MODEL 1
REMARK VINA RESULT:      -7.3      0.000      0.000
REMARK  Name = 
REMARK  13 active torsions:
REMARK  status: ('A' for Active; 'I' for Inactive)
REMARK    1  A    between atoms: C_1  and  O_2
REMARK    2  A    between atoms: O_2  and  C_3
REMARK    3  A    between atoms: C_6  and  N_7
REMARK    4  A    between atoms: N_8  and  C_9
REMARK    5  A    between atoms: C_9  and  C_18
REMARK    6  A    between atoms: N_10  and  C_11
REMARK    7  A    between atoms: C_21  and  N_22
REMARK    8  A    between atoms: N_22  and  C_23
REMARK    9  A    between atoms: N_22  and  C_27
REMARK   10  A    between atoms: C_23  and  C_24
REMARK   11  A    between atoms: C_24  and  C_25
REMARK   12  A    between atoms: C_27  and  C_28
REMARK   13  A    between atoms: C_28  and  C_29
REMARK                            x       y       z     vdW  Elec       q    Type
REMARK                         _______ _______ _______ _____ _____    ______ ____
ROOT
ATOM      1  C   UNL     1       0.690   9.536  19.971  0.00  0.00    +0.000 C 
ATOM      2  N   UNL     1       1.154  10.260  20.947  0.00  0.00    +0.000 NA
ENDROOT
BRANCH   2   3
ATOM      3  C   UNL     1       0.485  11.318  21.575  0.00  0.00    +0.000 A 
ATOM      4  C   UNL     1       0.785  12.608  21.119  0.00  0.00    +0.000 A 
ATOM      5  C   UNL     1       0.066  13.721  21.558  0.00  0.00    +0.000 A 
ATOM      6  C   UNL     1      -0.971  13.550  22.469  0.00  0.00    +0.000 A 
ATOM      7 CL   UNL     1      -1.898  14.905  22.978  0.00  0.00    +0.000 Cl
ATOM      8  C   UNL     1      -1.276  12.278  22.949  0.00  0.00    +0.000 A 
ATOM      9  C   UNL     1      -0.558  11.167  22.495  0.00  0.00    +0.000 A 
ENDBRANCH   2   3
BRANCH   1  10
ATOM     10  C   UNL     1       1.580   8.467  19.426  0.00  0.00    +0.000 A 
ATOM     11  C   UNL     1       1.822   7.329  20.198  0.00  0.00    +0.000 A 
ATOM     12  C   UNL     1       2.705   6.344  19.748  0.00  0.00    +0.000 A 
ATOM     13  C   UNL     1       3.355   6.433  18.505  0.00  0.00    +0.000 A 
ATOM     14  C   UNL     1       3.066   7.580  17.738  0.00  0.00    +0.000 A 
ATOM     15  C   UNL     1       2.202   8.587  18.187  0.00  0.00    +0.000 A 
BRANCH  13  16
ATOM     16  N   UNL     1       4.254   5.462  18.071  0.00  0.00    +0.000 N 
BRANCH  16  17
ATOM     17  C   UNL     1       3.886   4.032  18.041  0.00  0.00    +0.000 C 
BRANCH  17  18
ATOM     18  C   UNL     1       2.550   3.721  17.375  0.00  0.00    +0.000 C 
BRANCH  18  19
ATOM     19  C   UNL     1       1.525   3.020  18.251  0.00  0.00    +0.000 C 
ATOM     20  N   UNL     1       0.674   2.439  18.977  0.00  0.00    +0.000 NA
ENDBRANCH  18  19
ENDBRANCH  17  18
ENDBRANCH  16  17
BRANCH  16  21
ATOM     21  C   UNL     1       5.494   5.831  17.354  0.00  0.00    +0.000 C 
BRANCH  21  22
ATOM     22  C   UNL     1       6.162   4.628  16.674  0.00  0.00    +0.000 C 
BRANCH  22  23
ATOM     23  C   UNL     1       6.906   5.084  15.498  0.00  0.00    +0.000 C 
ATOM     24  N   UNL     1       7.492   5.431  14.555  0.00  0.00    +0.000 NA
ENDBRANCH  22  23
ENDBRANCH  21  22
ENDBRANCH  16  21
ENDBRANCH  13  16
ENDBRANCH   1  10
BRANCH   1  26
ATOM     25  N   UNL     1      -0.567  10.550  18.520  0.00  0.00    +0.000 NA
ATOM     26  N   UNL     1      -0.568   9.681  19.422  0.00  0.00    +0.000 NA
BRANCH  25  30
ATOM     27  C   UNL     1      -4.452  11.327  17.043  0.00  0.00    +0.000 A 
ATOM     28  C   UNL     1      -4.045  11.790  18.294  0.00  0.00    +0.000 A 
ATOM     29  C   UNL     1      -2.744  11.545  18.744  0.00  0.00    +0.000 A 
ATOM     30  C   UNL     1      -1.841  10.804  17.970  0.00  0.00    +0.000 A 
ATOM     31  C   UNL     1      -2.267  10.344  16.716  0.00  0.00    +0.000 A 
ATOM     32  C   UNL     1      -3.565  10.592  16.260  0.00  0.00    +0.000 A 
BRANCH  27  34
ATOM     33  C   UNL     1      -6.473  12.359  17.671  0.00  0.00    +0.000 C 
ATOM     34  O   UNL     1      -5.742  11.623  16.696  0.00  0.00    +0.000 OA
ENDBRANCH  27  34
ENDBRANCH  25  30
ENDBRANCH   1  26
TORSDOF 12
ENDMDL
MODEL 2
REMARK VINA RESULT:      -7.2      1.533      2.418
REMARK  Name = 
REMARK  13 active torsions:
REMARK  status: ('A' for Active; 'I' for Inactive)
REMARK    1  A    between atoms: C_1  and  O_2
REMARK    2  A    between atoms: O_2  and  C_3
REMARK    3  A    between atoms: C_6  and  N_7
REMARK    4  A    between atoms: N_8  and  C_9
REMARK    5  A    between atoms: C_9  and  C_18
REMARK    6  A    between atoms: N_10  and  C_11
REMARK    7  A    between atoms: C_21  and  N_22
REMARK    8  A    between atoms: N_22  and  C_23
REMARK    9  A    between atoms: N_22  and  C_27
REMARK   10  A    between atoms: C_23  and  C_24
REMARK   11  A    between atoms: C_24  and  C_25
REMARK   12  A    between atoms: C_27  and  C_28
REMARK   13  A    between atoms: C_28  and  C_29
REMARK                            x       y       z     vdW  Elec       q    Type
REMARK                         _______ _______ _______ _____ _____    ______ ____
ROOT
ATOM      1  C   UNL     1       1.002   8.896  19.880  0.00  0.00    +0.000 C 
ATOM      2  N   UNL     1       1.316   9.451  21.014  0.00  0.00    +0.000 NA
ENDROOT
BRANCH   2   3
ATOM      3  C   UNL     1       0.528  10.361  21.729  0.00  0.00    +0.000 A 
ATOM      4  C   UNL     1       0.656  11.712  21.382  0.00  0.00    +0.000 A 
ATOM      5  C   UNL     1      -0.191  12.685  21.914  0.00  0.00    +0.000 A 
ATOM      6  C   UNL     1      -1.185  12.309  22.811  0.00  0.00    +0.000 A 
ATOM      7 CL   UNL     1      -2.269  13.489  23.434  0.00  0.00    +0.000 Cl
ATOM      8  C   UNL     1      -1.321  10.974  23.185  0.00  0.00    +0.000 A 
ATOM      9  C   UNL     1      -0.475  10.004  22.637  0.00  0.00    +0.000 A 
ENDBRANCH   2   3
BRANCH   1  10
ATOM     10  C   UNL     1       2.001   7.969  19.269  0.00  0.00    +0.000 A 
ATOM     11  C   UNL     1       2.309   6.777  19.929  0.00  0.00    +0.000 A 
ATOM     12  C   UNL     1       3.291   5.921  19.422  0.00  0.00    +0.000 A 
ATOM     13  C   UNL     1       3.978   6.197  18.228  0.00  0.00    +0.000 A 
ATOM     14  C   UNL     1       3.623   7.393  17.572  0.00  0.00    +0.000 A 
ATOM     15  C   UNL     1       2.658   8.272  18.081  0.00  0.00    +0.000 A 
BRANCH  13  16
ATOM     16  N   UNL     1       4.974   5.355  17.738  0.00  0.00    +0.000 N 
BRANCH  16  17
ATOM     17  C   UNL     1       6.097   4.914  18.591  0.00  0.00    +0.000 C 
BRANCH  17  18
ATOM     18  C   UNL     1       7.460   5.481  18.208  0.00  0.00    +0.000 C 
BRANCH  18  19
ATOM     19  C   UNL     1       7.464   6.922  17.724  0.00  0.00    +0.000 C 
ATOM     20  N   UNL     1       7.465   8.117  17.323  0.00  0.00    +0.000 NA
ENDBRANCH  18  19
ENDBRANCH  17  18
ENDBRANCH  16  17
BRANCH  16  21
ATOM     21  C   UNL     1       4.807   4.634  16.458  0.00  0.00    +0.000 C 
BRANCH  21  22
ATOM     22  C   UNL     1       5.432   5.383  15.274  0.00  0.00    +0.000 C 
BRANCH  22  23
ATOM     23  C   UNL     1       5.857   4.419  14.256  0.00  0.00    +0.000 C 
ATOM     24  N   UNL     1       6.179   3.647  13.447  0.00  0.00    +0.000 NA
ENDBRANCH  22  23
ENDBRANCH  21  22
ENDBRANCH  16  21
ENDBRANCH  13  16
ENDBRANCH   1  10
BRANCH   1  26
ATOM     25  N   UNL     1      -0.268  10.264  18.770  0.00  0.00    +0.000 NA
ATOM     26  N   UNL     1      -0.193   9.097  19.219  0.00  0.00    +0.000 NA
BRANCH  25  30
ATOM     27  C   UNL     1      -4.024  11.208  17.073  0.00  0.00    +0.000 A 
ATOM     28  C   UNL     1      -3.564  11.851  18.222  0.00  0.00    +0.000 A 
ATOM     29  C   UNL     1      -2.304  11.541  18.744  0.00  0.00    +0.000 A 
ATOM     30  C   UNL     1      -1.499  10.560  18.149  0.00  0.00    +0.000 A 
ATOM     31  C   UNL     1      -1.977   9.922  16.996  0.00  0.00    +0.000 A 
ATOM     32  C   UNL     1      -3.234  10.233  16.468  0.00  0.00    +0.000 A 
BRANCH  27  34
ATOM     33  C   UNL     1      -6.252  11.684  17.666  0.00  0.00    +0.000 C 
ATOM     34  O   UNL     1      -5.267  11.586  16.643  0.00  0.00    +0.000 OA
ENDBRANCH  27  34
ENDBRANCH  25  30
ENDBRANCH   1  26
TORSDOF 12
ENDMDL
MODEL 3
REMARK VINA RESULT:      -7.1      0.888      3.014
REMARK  Name = 
REMARK  13 active torsions:
REMARK  status: ('A' for Active; 'I' for Inactive)
REMARK    1  A    between atoms: C_1  and  O_2
REMARK    2  A    between atoms: O_2  and  C_3
REMARK    3  A    between atoms: C_6  and  N_7
REMARK    4  A    between atoms: N_8  and  C_9
REMARK    5  A    between atoms: C_9  and  C_18
REMARK    6  A    between atoms: N_10  and  C_11
REMARK    7  A    between atoms: C_21  and  N_22
REMARK    8  A    between atoms: N_22  and  C_23
REMARK    9  A    between atoms: N_22  and  C_27
REMARK   10  A    between atoms: C_23  and  C_24
REMARK   11  A    between atoms: C_24  and  C_25
REMARK   12  A    between atoms: C_27  and  C_28
REMARK   13  A    between atoms: C_28  and  C_29
REMARK                            x       y       z     vdW  Elec       q    Type
REMARK                         _______ _______ _______ _____ _____    ______ ____
ROOT
ATOM      1  C   UNL     1       0.205  10.444  20.257  0.00  0.00    +0.000 C 
ATOM      2  N   UNL     1       0.721  11.223  21.162  0.00  0.00    +0.000 NA
ENDROOT
BRANCH   2   3
ATOM      3  C   UNL     1       0.081  12.306  21.776  0.00  0.00    +0.000 A 
ATOM      4  C   UNL     1       0.390  13.580  21.284  0.00  0.00    +0.000 A 
ATOM      5  C   UNL     1      -0.303  14.714  21.709  0.00  0.00    +0.000 A 
ATOM      6  C   UNL     1      -1.325  14.580  22.644  0.00  0.00    +0.000 A 
ATOM      7 CL   UNL     1      -2.222  15.961  23.138  0.00  0.00    +0.000 Cl
ATOM      8  C   UNL     1      -1.639  13.325  23.160  0.00  0.00    +0.000 A 
ATOM      9  C   UNL     1      -0.947  12.192  22.719  0.00  0.00    +0.000 A 
ENDBRANCH   2   3
BRANCH   1  10
ATOM     10  C   UNL     1       1.073   9.358  19.710  0.00  0.00    +0.000 A 
ATOM     11  C   UNL     1       1.578   9.483  18.413  0.00  0.00    +0.000 A 
ATOM     12  C   UNL     1       2.333   8.453  17.847  0.00  0.00    +0.000 A 
ATOM     13  C   UNL     1       2.645   7.279  18.552  0.00  0.00    +0.000 A 
ATOM     14  C   UNL     1       2.145   7.197  19.868  0.00  0.00    +0.000 A 
ATOM     15  C   UNL     1       1.366   8.211  20.441  0.00  0.00    +0.000 A 
BRANCH  13  16
ATOM     16  N   UNL     1       3.377   6.243  17.975  0.00  0.00    +0.000 N 
BRANCH  16  17
ATOM     17  C   UNL     1       4.476   6.514  17.027  0.00  0.00    +0.000 C 
BRANCH  17  18
ATOM     18  C   UNL     1       5.841   5.983  17.451  0.00  0.00    +0.000 C 
BRANCH  18  19
ATOM     19  C   UNL     1       6.791   5.627  16.319  0.00  0.00    +0.000 C 
ATOM     20  N   UNL     1       7.580   5.333  15.380  0.00  0.00    +0.000 NA
ENDBRANCH  18  19
ENDBRANCH  17  18
ENDBRANCH  16  17
BRANCH  16  21
ATOM     21  C   UNL     1       3.291   4.861  18.494  0.00  0.00    +0.000 C 
BRANCH  21  22
ATOM     22  C   UNL     1       2.740   3.875  17.457  0.00  0.00    +0.000 C 
BRANCH  22  23
ATOM     23  C   UNL     1       1.676   3.072  18.064  0.00  0.00    +0.000 C 
ATOM     24  N   UNL     1       0.839   2.419  18.541  0.00  0.00    +0.000 NA
ENDBRANCH  22  23
ENDBRANCH  21  22
ENDBRANCH  16  21
ENDBRANCH  13  16
ENDBRANCH   1  10
BRANCH   1  26
ATOM     25  N   UNL     1      -1.123  11.195  18.712  0.00  0.00    +0.000 NA
ATOM     26  N   UNL     1      -1.087  10.548  19.784  0.00  0.00    +0.000 NA
BRANCH  25  30
ATOM     27  C   UNL     1      -5.094  11.809  17.395  0.00  0.00    +0.000 A 
ATOM     28  C   UNL     1      -4.706  12.116  18.699  0.00  0.00    +0.000 A 
ATOM     29  C   UNL     1      -3.379  11.932  19.098  0.00  0.00    +0.000 A 
ATOM     30  C   UNL     1      -2.426  11.405  18.215  0.00  0.00    +0.000 A 
ATOM     31  C   UNL     1      -2.834  11.099  16.910  0.00  0.00    +0.000 A 
ATOM     32  C   UNL     1      -4.159  11.287  16.504  0.00  0.00    +0.000 A 
BRANCH  27  34
ATOM     33  C   UNL     1      -6.808  13.397  17.102  0.00  0.00    +0.000 C 
ATOM     34  O   UNL     1      -6.413  12.028  17.106  0.00  0.00    +0.000 OA
ENDBRANCH  27  34
ENDBRANCH  25  30
ENDBRANCH   1  26
TORSDOF 12
ENDMDL
MODEL 4
REMARK VINA RESULT:      -7.1      1.787      2.328
REMARK  Name = 
REMARK  13 active torsions:
REMARK  status: ('A' for Active; 'I' for Inactive)
REMARK    1  A    between atoms: C_1  and  O_2
REMARK    2  A    between atoms: O_2  and  C_3
REMARK    3  A    between atoms: C_6  and  N_7
REMARK    4  A    between atoms: N_8  and  C_9
REMARK    5  A    between atoms: C_9  and  C_18
REMARK    6  A    between atoms: N_10  and  C_11
REMARK    7  A    between atoms: C_21  and  N_22
REMARK    8  A    between atoms: N_22  and  C_23
REMARK    9  A    between atoms: N_22  and  C_27
REMARK   10  A    between atoms: C_23  and  C_24
REMARK   11  A    between atoms: C_24  and  C_25
REMARK   12  A    between atoms: C_27  and  C_28
REMARK   13  A    between atoms: C_28  and  C_29
REMARK                            x       y       z     vdW  Elec       q    Type
REMARK                         _______ _______ _______ _____ _____    ______ ____
ROOT
ATOM      1  C   UNL     1       0.450  10.865  19.653  0.00  0.00    +0.000 C 
ATOM      2  N   UNL     1       1.183  11.900  19.937  0.00  0.00    +0.000 NA
ENDROOT
BRANCH   2   3
ATOM      3  C   UNL     1       0.739  13.226  20.014  0.00  0.00    +0.000 A 
ATOM      4  C   UNL     1       0.919  14.016  18.871  0.00  0.00    +0.000 A 
ATOM      5  C   UNL     1       0.373  15.297  18.777  0.00  0.00    +0.000 A 
ATOM      6  C   UNL     1      -0.364  15.805  19.841  0.00  0.00    +0.000 A 
ATOM      7 CL   UNL     1      -1.086  17.361  19.718  0.00  0.00    +0.000 Cl
ATOM      8  C   UNL     1      -0.542  15.045  20.994  0.00  0.00    +0.000 A 
ATOM      9  C   UNL     1      -0.002  13.758  21.075  0.00  0.00    +0.000 A 
ENDBRANCH   2   3
BRANCH   1  10
ATOM     10  C   UNL     1       1.130   9.536  19.598  0.00  0.00    +0.000 A 
ATOM     11  C   UNL     1       1.720   9.127  18.399  0.00  0.00    +0.000 A 
ATOM     12  C   UNL     1       2.302   7.861  18.294  0.00  0.00    +0.000 A 
ATOM     13  C   UNL     1       2.351   6.968  19.378  0.00  0.00    +0.000 A 
ATOM     14  C   UNL     1       1.774   7.423  20.580  0.00  0.00    +0.000 A 
ATOM     15  C   UNL     1       1.165   8.680  20.694  0.00  0.00    +0.000 A 
BRANCH  13  16
ATOM     16  N   UNL     1       2.910   5.697  19.262  0.00  0.00    +0.000 N 
BRANCH  16  17
ATOM     17  C   UNL     1       2.082   4.520  18.927  0.00  0.00    +0.000 C 
BRANCH  17  18
ATOM     18  C   UNL     1       1.117   4.076  20.021  0.00  0.00    +0.000 C 
BRANCH  18  19
ATOM     19  C   UNL     1       1.752   3.392  21.221  0.00  0.00    +0.000 C 
ATOM     20  N   UNL     1       2.278   2.825  22.217  0.00  0.00    +0.000 NA
ENDBRANCH  18  19
ENDBRANCH  17  18
ENDBRANCH  16  17
BRANCH  16  21
ATOM     21  C   UNL     1       4.374   5.508  19.178  0.00  0.00    +0.000 C 
BRANCH  21  22
ATOM     22  C   UNL     1       4.760   4.196  18.483  0.00  0.00    +0.000 C 
BRANCH  22  23
ATOM     23  C   UNL     1       5.857   4.445  17.546  0.00  0.00    +0.000 C 
ATOM     24  N   UNL     1       6.722   4.631  16.789  0.00  0.00    +0.000 NA
ENDBRANCH  22  23
ENDBRANCH  21  22
ENDBRANCH  16  21
ENDBRANCH  13  16
ENDBRANCH   1  10
BRANCH   1  26
ATOM     25  N   UNL     1      -1.147  11.267  18.237  0.00  0.00    +0.000 NA
ATOM     26  N   UNL     1      -0.909  10.914  19.415  0.00  0.00    +0.000 NA
BRANCH  25  30
ATOM     27  C   UNL     1      -5.299  11.684  17.558  0.00  0.00    +0.000 A 
ATOM     28  C   UNL     1      -4.730  12.001  18.791  0.00  0.00    +0.000 A 
ATOM     29  C   UNL     1      -3.349  11.883  18.978  0.00  0.00    +0.000 A 
ATOM     30  C   UNL     1      -2.520  11.413  17.950  0.00  0.00    +0.000 A 
ATOM     31  C   UNL     1      -3.108  11.097  16.719  0.00  0.00    +0.000 A 
ATOM     32  C   UNL     1      -4.488  11.219  16.526  0.00  0.00    +0.000 A 
BRANCH  27  34
ATOM     33  C   UNL     1      -7.300  12.148  18.711  0.00  0.00    +0.000 C 
ATOM     34  O   UNL     1      -6.657  11.837  17.479  0.00  0.00    +0.000 OA
ENDBRANCH  27  34
ENDBRANCH  25  30
ENDBRANCH   1  26
TORSDOF 12
ENDMDL
MODEL 5
REMARK VINA RESULT:      -7.1      0.968      3.043
REMARK  Name = 
REMARK  13 active torsions:
REMARK  status: ('A' for Active; 'I' for Inactive)
REMARK    1  A    between atoms: C_1  and  O_2
REMARK    2  A    between atoms: O_2  and  C_3
REMARK    3  A    between atoms: C_6  and  N_7
REMARK    4  A    between atoms: N_8  and  C_9
REMARK    5  A    between atoms: C_9  and  C_18
REMARK    6  A    between atoms: N_10  and  C_11
REMARK    7  A    between atoms: C_21  and  N_22
REMARK    8  A    between atoms: N_22  and  C_23
REMARK    9  A    between atoms: N_22  and  C_27
REMARK   10  A    between atoms: C_23  and  C_24
REMARK   11  A    between atoms: C_24  and  C_25
REMARK   12  A    between atoms: C_27  and  C_28
REMARK   13  A    between atoms: C_28  and  C_29
REMARK                            x       y       z     vdW  Elec       q    Type
REMARK                         _______ _______ _______ _____ _____    ______ ____
ROOT
ATOM      1  C   UNL     1       0.514  10.491  19.693  0.00  0.00    +0.000 C 
ATOM      2  N   UNL     1       1.165  11.376  20.389  0.00  0.00    +0.000 NA
ENDROOT
BRANCH   2   3
ATOM      3  C   UNL     1       0.633  12.558  20.918  0.00  0.00    +0.000 A 
ATOM      4  C   UNL     1       0.863  13.732  20.189  0.00  0.00    +0.000 A 
ATOM      5  C   UNL     1       0.248  14.936  20.533  0.00  0.00    +0.000 A 
ATOM      6  C   UNL     1      -0.611  14.977  21.626  0.00  0.00    +0.000 A 
ATOM      7 CL   UNL     1      -1.416  16.441  22.031  0.00  0.00    +0.000 Cl
ATOM      8  C   UNL     1      -0.842  13.826  22.377  0.00  0.00    +0.000 A 
ATOM      9  C   UNL     1      -0.231  12.621  22.016  0.00  0.00    +0.000 A 
ENDBRANCH   2   3
BRANCH   1  10
ATOM     10  C   UNL     1       1.281   9.307  19.199  0.00  0.00    +0.000 A 
ATOM     11  C   UNL     1       1.497   8.232  20.064  0.00  0.00    +0.000 A 
ATOM     12  C   UNL     1       2.270   7.142  19.658  0.00  0.00    +0.000 A 
ATOM     13  C   UNL     1       2.828   7.059  18.370  0.00  0.00    +0.000 A 
ATOM     14  C   UNL     1       2.566   8.146  17.512  0.00  0.00    +0.000 A 
ATOM     15  C   UNL     1       1.813   9.258  17.914  0.00  0.00    +0.000 A 
BRANCH  13  16
ATOM     16  N   UNL     1       3.619   5.982  17.976  0.00  0.00    +0.000 N 
BRANCH  16  17
ATOM     17  C   UNL     1       4.865   6.183  17.209  0.00  0.00    +0.000 C 
BRANCH  17  18
ATOM     18  C   UNL     1       5.212   5.062  16.235  0.00  0.00    +0.000 C 
BRANCH  18  19
ATOM     19  C   UNL     1       6.510   5.237  15.463  0.00  0.00    +0.000 C 
ATOM     20  N   UNL     1       7.586   5.384  14.824  0.00  0.00    +0.000 NA
ENDBRANCH  18  19
ENDBRANCH  17  18
ENDBRANCH  16  17
BRANCH  16  21
ATOM     21  C   UNL     1       3.415   4.633  18.546  0.00  0.00    +0.000 C 
BRANCH  21  22
ATOM     22  C   UNL     1       2.180   3.929  17.969  0.00  0.00    +0.000 C 
BRANCH  22  23
ATOM     23  C   UNL     1       1.347   3.428  19.065  0.00  0.00    +0.000 C 
ATOM     24  N   UNL     1       0.687   3.013  19.929  0.00  0.00    +0.000 NA
ENDBRANCH  22  23
ENDBRANCH  21  22
ENDBRANCH  16  21
ENDBRANCH  13  16
ENDBRANCH   1  10
BRANCH   1  26
ATOM     25  N   UNL     1      -1.022  11.191  18.327  0.00  0.00    +0.000 NA
ATOM     26  N   UNL     1      -0.832  10.568  19.397  0.00  0.00    +0.000 NA
BRANCH  25  30
ATOM     27  C   UNL     1      -5.143  11.715  17.544  0.00  0.00    +0.000 A 
ATOM     28  C   UNL     1      -4.601  11.997  18.797  0.00  0.00    +0.000 A 
ATOM     29  C   UNL     1      -3.229  11.844  19.019  0.00  0.00    +0.000 A 
ATOM     30  C   UNL     1      -2.383  11.373  18.006  0.00  0.00    +0.000 A 
ATOM     31  C   UNL     1      -2.944  11.092  16.753  0.00  0.00    +0.000 A 
ATOM     32  C   UNL     1      -4.315  11.249  16.525  0.00  0.00    +0.000 A 
BRANCH  27  34
ATOM     33  C   UNL     1      -7.030  12.933  18.251  0.00  0.00    +0.000 C 
ATOM     34  O   UNL     1      -6.494  11.900  17.430  0.00  0.00    +0.000 OA
ENDBRANCH  27  34
ENDBRANCH  25  30
ENDBRANCH   1  26
TORSDOF 12
ENDMDL
MODEL 6
REMARK VINA RESULT:      -7.1      3.141      4.840
REMARK  Name = 
REMARK  13 active torsions:
REMARK  status: ('A' for Active; 'I' for Inactive)
REMARK    1  A    between atoms: C_1  and  O_2
REMARK    2  A    between atoms: O_2  and  C_3
REMARK    3  A    between atoms: C_6  and  N_7
REMARK    4  A    between atoms: N_8  and  C_9
REMARK    5  A    between atoms: C_9  and  C_18
REMARK    6  A    between atoms: N_10  and  C_11
REMARK    7  A    between atoms: C_21  and  N_22
REMARK    8  A    between atoms: N_22  and  C_23
REMARK    9  A    between atoms: N_22  and  C_27
REMARK   10  A    between atoms: C_23  and  C_24
REMARK   11  A    between atoms: C_24  and  C_25
REMARK   12  A    between atoms: C_27  and  C_28
REMARK   13  A    between atoms: C_28  and  C_29
REMARK                            x       y       z     vdW  Elec       q    Type
REMARK                         _______ _______ _______ _____ _____    ______ ____
ROOT
ATOM      1  C   UNL     1       0.639  10.657  19.596  0.00  0.00    +0.000 C 
ATOM      2  N   UNL     1      -0.289  10.576  20.503  0.00  0.00    +0.000 NA
ENDROOT
BRANCH   2   3
ATOM      3  C   UNL     1      -1.058  11.640  20.990  0.00  0.00    +0.000 A 
ATOM      4  C   UNL     1      -2.037  12.153  20.130  0.00  0.00    +0.000 A 
ATOM      5  C   UNL     1      -2.964  13.101  20.564  0.00  0.00    +0.000 A 
ATOM      6  C   UNL     1      -2.916  13.552  21.879  0.00  0.00    +0.000 A 
ATOM      7 CL   UNL     1      -4.084  14.682  22.441  0.00  0.00    +0.000 Cl
ATOM      8  C   UNL     1      -1.940  13.070  22.748  0.00  0.00    +0.000 A 
ATOM      9  C   UNL     1      -1.023  12.110  22.308  0.00  0.00    +0.000 A 
ENDBRANCH   2   3
BRANCH   1  10
ATOM     10  C   UNL     1       1.360   9.398  19.236  0.00  0.00    +0.000 A 
ATOM     11  C   UNL     1       1.434   8.369  20.178  0.00  0.00    +0.000 A 
ATOM     12  C   UNL     1       2.161   7.208  19.901  0.00  0.00    +0.000 A 
ATOM     13  C   UNL     1       2.811   7.009  18.671  0.00  0.00    +0.000 A 
ATOM     14  C   UNL     1       2.691   8.054  17.732  0.00  0.00    +0.000 A 
ATOM     15  C   UNL     1       1.987   9.234  18.005  0.00  0.00    +0.000 A 
BRANCH  13  16
ATOM     16  N   UNL     1       3.555   5.862  18.407  0.00  0.00    +0.000 N 
BRANCH  16  17
ATOM     17  C   UNL     1       4.221   5.660  17.104  0.00  0.00    +0.000 C 
BRANCH  17  18
ATOM     18  C   UNL     1       5.733   5.473  17.172  0.00  0.00    +0.000 C 
BRANCH  18  19
ATOM     19  C   UNL     1       6.553   6.751  17.226  0.00  0.00    +0.000 C 
ATOM     20  N   UNL     1       7.234   7.812  17.271  0.00  0.00    +0.000 NA
ENDBRANCH  18  19
ENDBRANCH  17  18
ENDBRANCH  16  17
BRANCH  16  21
ATOM     21  C   UNL     1       3.956   4.941  19.492  0.00  0.00    +0.000 C 
BRANCH  21  22
ATOM     22  C   UNL     1       3.390   3.528  19.306  0.00  0.00    +0.000 C 
BRANCH  22  23
ATOM     23  C   UNL     1       4.294   2.555  19.924  0.00  0.00    +0.000 C 
ATOM     24  N   UNL     1       5.014   1.774  20.399  0.00  0.00    +0.000 NA
ENDBRANCH  22  23
ENDBRANCH  21  22
ENDBRANCH  16  21
ENDBRANCH  13  16
ENDBRANCH   1  10
BRANCH   1  26
ATOM     25  N   UNL     1       1.703  12.549  19.663  0.00  0.00    +0.000 NA
ATOM     26  N   UNL     1       0.987  11.820  18.938  0.00  0.00    +0.000 NA
BRANCH  25  30
ATOM     27  C   UNL     1       2.502  16.317  17.919  0.00  0.00    +0.000 A 
ATOM     28  C   UNL     1       1.396  16.119  18.745  0.00  0.00    +0.000 A 
ATOM     29  C   UNL     1       1.173  14.870  19.333  0.00  0.00    +0.000 A 
ATOM     30  C   UNL     1       2.029  13.790  19.078  0.00  0.00    +0.000 A 
ATOM     31  C   UNL     1       3.134  14.005  18.244  0.00  0.00    +0.000 A 
ATOM     32  C   UNL     1       3.364  15.254  17.659  0.00  0.00    +0.000 A 
BRANCH  27  34
ATOM     33  C   UNL     1       1.439  18.118  16.838  0.00  0.00    +0.000 C 
ATOM     34  O   UNL     1       2.631  17.575  17.397  0.00  0.00    +0.000 OA
ENDBRANCH  27  34
ENDBRANCH  25  30
ENDBRANCH   1  26
TORSDOF 12
ENDMDL
MODEL 7
REMARK VINA RESULT:      -7.0      1.782      3.529
REMARK  Name = 
REMARK  13 active torsions:
REMARK  status: ('A' for Active; 'I' for Inactive)
REMARK    1  A    between atoms: C_1  and  O_2
REMARK    2  A    between atoms: O_2  and  C_3
REMARK    3  A    between atoms: C_6  and  N_7
REMARK    4  A    between atoms: N_8  and  C_9
REMARK    5  A    between atoms: C_9  and  C_18
REMARK    6  A    between atoms: N_10  and  C_11
REMARK    7  A    between atoms: C_21  and  N_22
REMARK    8  A    between atoms: N_22  and  C_23
REMARK    9  A    between atoms: N_22  and  C_27
REMARK   10  A    between atoms: C_23  and  C_24
REMARK   11  A    between atoms: C_24  and  C_25
REMARK   12  A    between atoms: C_27  and  C_28
REMARK   13  A    between atoms: C_28  and  C_29
REMARK                            x       y       z     vdW  Elec       q    Type
REMARK                         _______ _______ _______ _____ _____    ______ ____
ROOT
ATOM      1  C   UNL     1       0.436  10.861  19.510  0.00  0.00    +0.000 C 
ATOM      2  N   UNL     1       1.208  11.871  19.784  0.00  0.00    +0.000 NA
ENDROOT
BRANCH   2   3
ATOM      3  C   UNL     1       0.789  13.186  20.020  0.00  0.00    +0.000 A 
ATOM      4  C   UNL     1       0.744  14.039  18.910  0.00  0.00    +0.000 A 
ATOM      5  C   UNL     1       0.192  15.317  18.995  0.00  0.00    +0.000 A 
ATOM      6  C   UNL     1      -0.324  15.760  20.208  0.00  0.00    +0.000 A 
ATOM      7 CL   UNL     1      -1.054  17.313  20.315  0.00  0.00    +0.000 Cl
ATOM      8  C   UNL     1      -0.275  14.936  21.330  0.00  0.00    +0.000 A 
ATOM      9  C   UNL     1       0.269  13.651  21.232  0.00  0.00    +0.000 A 
ENDBRANCH   2   3
BRANCH   1  10
ATOM     10  C   UNL     1       1.092   9.541  19.267  0.00  0.00    +0.000 A 
ATOM     11  C   UNL     1       1.231   8.648  20.333  0.00  0.00    +0.000 A 
ATOM     12  C   UNL     1       1.903   7.436  20.157  0.00  0.00    +0.000 A 
ATOM     13  C   UNL     1       2.431   7.048  18.914  0.00  0.00    +0.000 A 
ATOM     14  C   UNL     1       2.248   7.957  17.853  0.00  0.00    +0.000 A 
ATOM     15  C   UNL     1       1.598   9.187  18.020  0.00  0.00    +0.000 A 
BRANCH  13  16
ATOM     16  N   UNL     1       3.122   5.849  18.747  0.00  0.00    +0.000 N 
BRANCH  16  17
ATOM     17  C   UNL     1       4.093   5.667  17.649  0.00  0.00    +0.000 C 
BRANCH  17  18
ATOM     18  C   UNL     1       5.460   6.302  17.883  0.00  0.00    +0.000 C 
BRANCH  18  19
ATOM     19  C   UNL     1       6.624   5.332  18.012  0.00  0.00    +0.000 C 
ATOM     20  N   UNL     1       7.590   4.529  18.118  0.00  0.00    +0.000 NA
ENDBRANCH  18  19
ENDBRANCH  17  18
ENDBRANCH  16  17
BRANCH  16  21
ATOM     21  C   UNL     1       3.141   4.821  19.810  0.00  0.00    +0.000 C 
BRANCH  21  22
ATOM     22  C   UNL     1       1.878   3.952  19.812  0.00  0.00    +0.000 C 
BRANCH  22  23
ATOM     23  C   UNL     1       1.784   3.230  21.083  0.00  0.00    +0.000 C 
ATOM     24  N   UNL     1       1.727   2.661  22.097  0.00  0.00    +0.000 NA
ENDBRANCH  22  23
ENDBRANCH  21  22
ENDBRANCH  16  21
ENDBRANCH  13  16
ENDBRANCH   1  10
BRANCH   1  26
ATOM     25  N   UNL     1      -1.317  11.351  18.327  0.00  0.00    +0.000 NA
ATOM     26  N   UNL     1      -0.941  10.928  19.444  0.00  0.00    +0.000 NA
BRANCH  25  30
ATOM     27  C   UNL     1      -5.484  11.861  17.821  0.00  0.00    +0.000 A 
ATOM     28  C   UNL     1      -4.693  11.311  16.814  0.00  0.00    +0.000 A 
ATOM     29  C   UNL     1      -3.322  11.125  17.019  0.00  0.00    +0.000 A 
ATOM     30  C   UNL     1      -2.714  11.518  18.220  0.00  0.00    +0.000 A 
ATOM     31  C   UNL     1      -3.523  12.072  19.221  0.00  0.00    +0.000 A 
ATOM     32  C   UNL     1      -4.895  12.254  19.021  0.00  0.00    +0.000 A 
BRANCH  27  34
ATOM     33  C   UNL     1      -7.561  12.775  18.448  0.00  0.00    +0.000 C 
ATOM     34  O   UNL     1      -6.812  11.997  17.520  0.00  0.00    +0.000 OA
ENDBRANCH  27  34
ENDBRANCH  25  30
ENDBRANCH   1  26
TORSDOF 12
ENDMDL
MODEL 8
REMARK VINA RESULT:      -7.0      2.055      3.797
REMARK  Name = 
REMARK  13 active torsions:
REMARK  status: ('A' for Active; 'I' for Inactive)
REMARK    1  A    between atoms: C_1  and  O_2
REMARK    2  A    between atoms: O_2  and  C_3
REMARK    3  A    between atoms: C_6  and  N_7
REMARK    4  A    between atoms: N_8  and  C_9
REMARK    5  A    between atoms: C_9  and  C_18
REMARK    6  A    between atoms: N_10  and  C_11
REMARK    7  A    between atoms: C_21  and  N_22
REMARK    8  A    between atoms: N_22  and  C_23
REMARK    9  A    between atoms: N_22  and  C_27
REMARK   10  A    between atoms: C_23  and  C_24
REMARK   11  A    between atoms: C_24  and  C_25
REMARK   12  A    between atoms: C_27  and  C_28
REMARK   13  A    between atoms: C_28  and  C_29
REMARK                            x       y       z     vdW  Elec       q    Type
REMARK                         _______ _______ _______ _____ _____    ______ ____
ROOT
ATOM      1  C   UNL     1       0.447  11.178  19.695  0.00  0.00    +0.000 C 
ATOM      2  N   UNL     1       1.221  12.209  19.862  0.00  0.00    +0.000 NA
ENDROOT
BRANCH   2   3
ATOM      3  C   UNL     1       0.805  13.543  19.957  0.00  0.00    +0.000 A 
ATOM      4  C   UNL     1       0.601  14.046  21.247  0.00  0.00    +0.000 A 
ATOM      5  C   UNL     1       0.343  15.399  21.469  0.00  0.00    +0.000 A 
ATOM      6  C   UNL     1       0.284  16.271  20.386  0.00  0.00    +0.000 A 
ATOM      7 CL   UNL     1       0.019  17.949  20.648  0.00  0.00    +0.000 Cl
ATOM      8  C   UNL     1       0.468  15.789  19.092  0.00  0.00    +0.000 A 
ATOM      9  C   UNL     1       0.738  14.434  18.880  0.00  0.00    +0.000 A 
ENDBRANCH   2   3
BRANCH   1  10
ATOM     10  C   UNL     1       1.099   9.837  19.593  0.00  0.00    +0.000 A 
ATOM     11  C   UNL     1       1.677   9.457  18.380  0.00  0.00    +0.000 A 
ATOM     12  C   UNL     1       2.233   8.183  18.230  0.00  0.00    +0.000 A 
ATOM     13  C   UNL     1       2.267   7.254  19.284  0.00  0.00    +0.000 A 
ATOM     14  C   UNL     1       1.702   7.681  20.503  0.00  0.00    +0.000 A 
ATOM     15  C   UNL     1       1.120   8.945  20.661  0.00  0.00    +0.000 A 
BRANCH  13  16
ATOM     16  N   UNL     1       2.799   5.976  19.124  0.00  0.00    +0.000 N 
BRANCH  16  17
ATOM     17  C   UNL     1       3.720   5.660  18.014  0.00  0.00    +0.000 C 
BRANCH  17  18
ATOM     18  C   UNL     1       4.734   4.561  18.308  0.00  0.00    +0.000 C 
BRANCH  18  19
ATOM     19  C   UNL     1       5.974   4.995  19.074  0.00  0.00    +0.000 C 
ATOM     20  N   UNL     1       7.002   5.355  19.708  0.00  0.00    +0.000 NA
ENDBRANCH  18  19
ENDBRANCH  17  18
ENDBRANCH  16  17
BRANCH  16  21
ATOM     21  C   UNL     1       2.707   4.968  20.202  0.00  0.00    +0.000 C 
BRANCH  21  22
ATOM     22  C   UNL     1       1.453   4.092  20.085  0.00  0.00    +0.000 C 
BRANCH  22  23
ATOM     23  C   UNL     1       1.432   3.122  21.183  0.00  0.00    +0.000 C 
ATOM     24  N   UNL     1       1.401   2.361  22.063  0.00  0.00    +0.000 NA
ENDBRANCH  22  23
ENDBRANCH  21  22
ENDBRANCH  16  21
ENDBRANCH  13  16
ENDBRANCH   1  10
BRANCH   1  26
ATOM     25  N   UNL     1      -1.308  11.434  18.442  0.00  0.00    +0.000 NA
ATOM     26  N   UNL     1      -0.930  11.241  19.620  0.00  0.00    +0.000 NA
BRANCH  25  30
ATOM     27  C   UNL     1      -5.469  11.902  17.854  0.00  0.00    +0.000 A 
ATOM     28  C   UNL     1      -4.653  11.355  16.864  0.00  0.00    +0.000 A 
ATOM     29  C   UNL     1      -3.285  11.183  17.097  0.00  0.00    +0.000 A 
ATOM     30  C   UNL     1      -2.704  11.587  18.307  0.00  0.00    +0.000 A 
ATOM     31  C   UNL     1      -3.537  12.137  19.290  0.00  0.00    +0.000 A 
ATOM     32  C   UNL     1      -4.907  12.305  19.063  0.00  0.00    +0.000 A 
BRANCH  27  34
ATOM     33  C   UNL     1      -7.637  12.453  18.590  0.00  0.00    +0.000 C 
ATOM     34  O   UNL     1      -6.792  12.024  17.526  0.00  0.00    +0.000 OA
ENDBRANCH  27  34
ENDBRANCH  25  30
ENDBRANCH   1  26
TORSDOF 12
ENDMDL
MODEL 9
REMARK VINA RESULT:      -7.0      3.020      5.015
REMARK  Name = 
REMARK  13 active torsions:
REMARK  status: ('A' for Active; 'I' for Inactive)
REMARK    1  A    between atoms: C_1  and  O_2
REMARK    2  A    between atoms: O_2  and  C_3
REMARK    3  A    between atoms: C_6  and  N_7
REMARK    4  A    between atoms: N_8  and  C_9
REMARK    5  A    between atoms: C_9  and  C_18
REMARK    6  A    between atoms: N_10  and  C_11
REMARK    7  A    between atoms: C_21  and  N_22
REMARK    8  A    between atoms: N_22  and  C_23
REMARK    9  A    between atoms: N_22  and  C_27
REMARK   10  A    between atoms: C_23  and  C_24
REMARK   11  A    between atoms: C_24  and  C_25
REMARK   12  A    between atoms: C_27  and  C_28
REMARK   13  A    between atoms: C_28  and  C_29
REMARK                            x       y       z     vdW  Elec       q    Type
REMARK                         _______ _______ _______ _____ _____    ______ ____
ROOT
ATOM      1  C   UNL     1       0.429  10.920  19.823  0.00  0.00    +0.000 C 
ATOM      2  N   UNL     1      -0.465  10.807  20.761  0.00  0.00    +0.000 NA
ENDROOT
BRANCH   2   3
ATOM      3  C   UNL     1      -1.252  11.845  21.275  0.00  0.00    +0.000 A 
ATOM      4  C   UNL     1      -0.833  12.410  22.486  0.00  0.00    +0.000 A 
ATOM      5  C   UNL     1      -1.445  13.550  23.008  0.00  0.00    +0.000 A 
ATOM      6  C   UNL     1      -2.497  14.140  22.315  0.00  0.00    +0.000 A 
ATOM      7 CL   UNL     1      -3.226  15.575  22.920  0.00  0.00    +0.000 Cl
ATOM      8  C   UNL     1      -2.942  13.586  21.117  0.00  0.00    +0.000 A 
ATOM      9  C   UNL     1      -2.315  12.450  20.595  0.00  0.00    +0.000 A 
ENDBRANCH   2   3
BRANCH   1  10
ATOM     10  C   UNL     1       1.180   9.687  19.437  0.00  0.00    +0.000 A 
ATOM     11  C   UNL     1       1.710   9.594  18.148  0.00  0.00    +0.000 A 
ATOM     12  C   UNL     1       2.356   8.427  17.733  0.00  0.00    +0.000 A 
ATOM     13  C   UNL     1       2.530   7.324  18.587  0.00  0.00    +0.000 A 
ATOM     14  C   UNL     1       2.009   7.463  19.889  0.00  0.00    +0.000 A 
ATOM     15  C   UNL     1       1.337   8.617  20.312  0.00  0.00    +0.000 A 
BRANCH  13  16
ATOM     16  N   UNL     1       3.152   6.152  18.162  0.00  0.00    +0.000 N 
BRANCH  16  17
ATOM     17  C   UNL     1       4.576   6.136  17.769  0.00  0.00    +0.000 C 
BRANCH  17  18
ATOM     18  C   UNL     1       4.871   5.457  16.436  0.00  0.00    +0.000 C 
BRANCH  18  19
ATOM     19  C   UNL     1       6.324   5.081  16.196  0.00  0.00    +0.000 C 
ATOM     20  N   UNL     1       7.529   4.768  15.997  0.00  0.00    +0.000 NA
ENDBRANCH  18  19
ENDBRANCH  17  18
ENDBRANCH  16  17
BRANCH  16  21
ATOM     21  C   UNL     1       2.516   4.832  18.358  0.00  0.00    +0.000 C 
BRANCH  21  22
ATOM     22  C   UNL     1       3.164   4.028  19.492  0.00  0.00    +0.000 C 
BRANCH  22  23
ATOM     23  C   UNL     1       2.128   3.579  20.426  0.00  0.00    +0.000 C 
ATOM     24  N   UNL     1       1.305   3.239  21.176  0.00  0.00    +0.000 NA
ENDBRANCH  22  23
ENDBRANCH  21  22
ENDBRANCH  16  21
ENDBRANCH  13  16
ENDBRANCH   1  10
BRANCH   1  26
ATOM     25  N   UNL     1       1.668  12.699  19.697  0.00  0.00    +0.000 NA
ATOM     26  N   UNL     1       0.714  12.095  19.156  0.00  0.00    +0.000 NA
BRANCH  25  30
ATOM     27  C   UNL     1       2.364  16.481  17.940  0.00  0.00    +0.000 A 
ATOM     28  C   UNL     1       1.243  16.245  18.734  0.00  0.00    +0.000 A 
ATOM     29  C   UNL     1       1.053  14.993  19.328  0.00  0.00    +0.000 A 
ATOM     30  C   UNL     1       1.961  13.947  19.111  0.00  0.00    +0.000 A 
ATOM     31  C   UNL     1       3.082  14.201  18.309  0.00  0.00    +0.000 A 
ATOM     32  C   UNL     1       3.278  15.453  17.717  0.00  0.00    +0.000 A 
BRANCH  27  34
ATOM     33  C   UNL     1       1.238  18.264  16.893  0.00  0.00    +0.000 C 
ATOM     34  O   UNL     1       2.457  17.738  17.409  0.00  0.00    +0.000 OA
ENDBRANCH  27  34
ENDBRANCH  25  30
ENDBRANCH   1  26
TORSDOF 12
ENDMDL
