MODEL 1
REMARK VINA RESULT:      -7.7      0.000      0.000
REMARK  Name = 
REMARK  8 active torsions:
REMARK  status: ('A' for Active; 'I' for Inactive)
REMARK    1  A    between atoms: C_1  and  N_2
REMARK    2  A    between atoms: C_3  and  C_5
REMARK    3  A    between atoms: C_8  and  S_9
REMARK    4  A    between atoms: S_9  and  C_10
REMARK    5  A    between atoms: C_14  and  N_15
REMARK    6  A    between atoms: N_15  and  C_16
REMARK    7  A    between atoms: C_16  and  N_18
REMARK    8  A    between atoms: N_18  and  C_19
REMARK                            x       y       z     vdW  Elec       q    Type
REMARK                         _______ _______ _______ _____ _____    ______ ____
ROOT
ATOM      1  C   UNL     1       2.241   7.542  18.698  0.00  0.00    +0.000 A 
ATOM      2  C   UNL     1       1.946   7.384  20.056  0.00  0.00    +0.000 A 
ATOM      3  C   UNL     1       1.877   6.104  20.613  0.00  0.00    +0.000 A 
ATOM      4  C   UNL     1       2.065   4.979  19.809  0.00  0.00    +0.000 A 
ATOM      5  C   UNL     1       2.316   5.131  18.444  0.00  0.00    +0.000 A 
ATOM      6  C   UNL     1       2.464   6.412  17.909  0.00  0.00    +0.000 A 
ENDROOT
BRANCH   5   7
ATOM      7  N   UNL     1       2.486   3.978  17.662  0.00  0.00    +0.000 N 
ATOM      8  H   UNL     1       1.869   3.876  16.865  0.00  0.00    +0.000 HD
BRANCH   7   9
ATOM      9  C   UNL     1       3.462   3.004  17.742  0.00  0.00    +0.000 C 
ATOM     10  S   UNL     1       3.427   1.614  18.671  0.00  0.00    +0.000 S 
BRANCH   9  11
ATOM     11  N   UNL     1       4.614   3.322  17.061  0.00  0.00    +0.000 N 
ATOM     12  H   UNL     1       4.693   2.956  16.115  0.00  0.00    +0.000 HD
BRANCH  11  13
ATOM     13  C   UNL     1       5.451   4.417  17.367  0.00  0.00    +0.000 A 
ATOM     14  C   UNL     1       6.037   4.499  18.627  0.00  0.00    +0.000 A 
ATOM     15  C   UNL     1       6.879   5.576  18.931  0.00  0.00    +0.000 A 
ATOM     16  C   UNL     1       7.163   6.534  17.951  0.00  0.00    +0.000 A 
ATOM     17 CL   UNL     1       8.244   7.824  18.304  0.00  0.00    +0.000 Cl
ATOM     18  C   UNL     1       6.592   6.445  16.690  0.00  0.00    +0.000 A 
ATOM     19  C   UNL     1       5.733   5.391  16.398  0.00  0.00    +0.000 A 
ENDBRANCH  11  13
ENDBRANCH   9  11
ENDBRANCH   7   9
ENDBRANCH   5   7
BRANCH   1  20
ATOM     20  S   UNL     1       2.378   9.158  17.968  0.00  0.00    +0.000 S 
BRANCH  20  24
ATOM     21  C   UNL     1      -1.289  11.388  19.477  0.00  0.00    +0.000 A 
ATOM     22  C   UNL     1      -1.451  10.528  18.393  0.00  0.00    +0.000 A 
ATOM     23  C   UNL     1      -0.346   9.827  17.900  0.00  0.00    +0.000 A 
ATOM     24  C   UNL     1       0.897   9.992  18.509  0.00  0.00    +0.000 A 
ATOM     25  N   UNL     1       1.073  10.851  19.541  0.00  0.00    +0.000 NA
ATOM     26  C   UNL     1      -0.010  11.536  19.992  0.00  0.00    +0.000 A 
BRANCH  21  29
ATOM     27  C   UNL     1      -4.733  12.888  19.867  0.00  0.00    +0.000 C 
ATOM     28  N   UNL     1      -3.562  12.233  19.343  0.00  0.00    +0.000 N 
ATOM     29  C   UNL     1      -2.403  12.148  20.088  0.00  0.00    +0.000 C 
ATOM     30  O   UNL     1      -2.281  12.626  21.208  0.00  0.00    +0.000 OA
ATOM     31  H   UNL     1      -3.662  11.678  18.504  0.00  0.00    +0.000 HD
ENDBRANCH  21  29
ENDBRANCH  20  24
ENDBRANCH   1  20
TORSDOF 7
ENDMDL
MODEL 2
REMARK VINA RESULT:      -7.6      2.262      3.101
REMARK  Name = 
REMARK  8 active torsions:
REMARK  status: ('A' for Active; 'I' for Inactive)
REMARK    1  A    between atoms: C_1  and  N_2
REMARK    2  A    between atoms: C_3  and  C_5
REMARK    3  A    between atoms: C_8  and  S_9
REMARK    4  A    between atoms: S_9  and  C_10
REMARK    5  A    between atoms: C_14  and  N_15
REMARK    6  A    between atoms: N_15  and  C_16
REMARK    7  A    between atoms: C_16  and  N_18
REMARK    8  A    between atoms: N_18  and  C_19
REMARK                            x       y       z     vdW  Elec       q    Type
REMARK                         _______ _______ _______ _____ _____    ______ ____
ROOT
ATOM      1  C   UNL     1       1.431   9.482  19.662  0.00  0.00    +0.000 A 
ATOM      2  C   UNL     1       1.736   9.504  18.297  0.00  0.00    +0.000 A 
ATOM      3  C   UNL     1       2.221   8.354  17.670  0.00  0.00    +0.000 A 
ATOM      4  C   UNL     1       2.438   7.191  18.410  0.00  0.00    +0.000 A 
ATOM      5  C   UNL     1       2.178   7.178  19.781  0.00  0.00    +0.000 A 
ATOM      6  C   UNL     1       1.617   8.303  20.387  0.00  0.00    +0.000 A 
ENDROOT
BRANCH   5   7
ATOM      7  N   UNL     1       2.421   5.995  20.497  0.00  0.00    +0.000 N 
ATOM      8  H   UNL     1       2.591   6.095  21.491  0.00  0.00    +0.000 HD
BRANCH   7   9
ATOM      9  C   UNL     1       2.343   4.684  20.072  0.00  0.00    +0.000 C 
ATOM     10  S   UNL     1       0.959   3.768  19.869  0.00  0.00    +0.000 S 
BRANCH   9  11
ATOM     11  N   UNL     1       3.569   4.077  19.932  0.00  0.00    +0.000 N 
ATOM     12  H   UNL     1       3.732   3.253  20.506  0.00  0.00    +0.000 HD
BRANCH  11  13
ATOM     13  C   UNL     1       4.410   4.215  18.806  0.00  0.00    +0.000 A 
ATOM     14  C   UNL     1       3.915   3.911  17.541  0.00  0.00    +0.000 A 
ATOM     15  C   UNL     1       4.739   4.059  16.419  0.00  0.00    +0.000 A 
ATOM     16  C   UNL     1       6.038   4.557  16.572  0.00  0.00    +0.000 A 
ATOM     17 CL   UNL     1       7.032   4.795  15.190  0.00  0.00    +0.000 Cl
ATOM     18  C   UNL     1       6.529   4.875  17.831  0.00  0.00    +0.000 A 
ATOM     19  C   UNL     1       5.718   4.701  18.948  0.00  0.00    +0.000 A 
ENDBRANCH  11  13
ENDBRANCH   9  11
ENDBRANCH   7   9
ENDBRANCH   5   7
BRANCH   1  20
ATOM     20  S   UNL     1       0.771  10.917  20.482  0.00  0.00    +0.000 S 
BRANCH  20  24
ATOM     21  C   UNL     1      -3.154  11.480  18.251  0.00  0.00    +0.000 A 
ATOM     22  C   UNL     1      -2.965  12.202  19.428  0.00  0.00    +0.000 A 
ATOM     23  C   UNL     1      -1.772  12.053  20.141  0.00  0.00    +0.000 A 
ATOM     24  C   UNL     1      -0.787  11.194  19.658  0.00  0.00    +0.000 A 
ATOM     25  N   UNL     1      -0.973  10.462  18.534  0.00  0.00    +0.000 NA
ATOM     26  C   UNL     1      -2.147  10.607  17.866  0.00  0.00    +0.000 A 
BRANCH  21  29
ATOM     27  C   UNL     1      -6.530  12.711  17.088  0.00  0.00    +0.000 C 
ATOM     28  N   UNL     1      -5.337  12.468  17.859  0.00  0.00    +0.000 N 
ATOM     29  C   UNL     1      -4.368  11.594  17.411  0.00  0.00    +0.000 C 
ATOM     30  O   UNL     1      -4.455  10.963  16.366  0.00  0.00    +0.000 OA
ATOM     31  H   UNL     1      -5.139  13.085  18.635  0.00  0.00    +0.000 HD
ENDBRANCH  21  29
ENDBRANCH  20  24
ENDBRANCH   1  20
TORSDOF 7
ENDMDL
MODEL 3
REMARK VINA RESULT:      -7.6      1.035      1.418
REMARK  Name = 
REMARK  8 active torsions:
REMARK  status: ('A' for Active; 'I' for Inactive)
REMARK    1  A    between atoms: C_1  and  N_2
REMARK    2  A    between atoms: C_3  and  C_5
REMARK    3  A    between atoms: C_8  and  S_9
REMARK    4  A    between atoms: S_9  and  C_10
REMARK    5  A    between atoms: C_14  and  N_15
REMARK    6  A    between atoms: N_15  and  C_16
REMARK    7  A    between atoms: C_16  and  N_18
REMARK    8  A    between atoms: N_18  and  C_19
REMARK                            x       y       z     vdW  Elec       q    Type
REMARK                         _______ _______ _______ _____ _____    ______ ____
ROOT
ATOM      1  C   UNL     1       2.137   7.882  18.812  0.00  0.00    +0.000 A 
ATOM      2  C   UNL     1       1.875   7.655  20.167  0.00  0.00    +0.000 A 
ATOM      3  C   UNL     1       1.834   6.348  20.662  0.00  0.00    +0.000 A 
ATOM      4  C   UNL     1       2.016   5.266  19.800  0.00  0.00    +0.000 A 
ATOM      5  C   UNL     1       2.233   5.488  18.439  0.00  0.00    +0.000 A 
ATOM      6  C   UNL     1       2.354   6.795  17.963  0.00  0.00    +0.000 A 
ENDROOT
BRANCH   5   7
ATOM      7  N   UNL     1       2.398   4.376  17.598  0.00  0.00    +0.000 N 
ATOM      8  H   UNL     1       1.804   4.336  16.778  0.00  0.00    +0.000 HD
BRANCH   7   9
ATOM      9  C   UNL     1       3.345   3.372  17.652  0.00  0.00    +0.000 C 
ATOM     10  S   UNL     1       3.308   1.999  18.605  0.00  0.00    +0.000 S 
BRANCH   9  11
ATOM     11  N   UNL     1       4.475   3.642  16.916  0.00  0.00    +0.000 N 
ATOM     12  H   UNL     1       4.480   3.302  15.957  0.00  0.00    +0.000 HD
BRANCH  11  13
ATOM     13  C   UNL     1       5.393   4.676  17.203  0.00  0.00    +0.000 A 
ATOM     14  C   UNL     1       5.533   5.735  16.311  0.00  0.00    +0.000 A 
ATOM     15  C   UNL     1       6.432   6.770  16.598  0.00  0.00    +0.000 A 
ATOM     16  C   UNL     1       7.146   6.756  17.801  0.00  0.00    +0.000 A 
ATOM     17 CL   UNL     1       8.206   8.055  18.182  0.00  0.00    +0.000 Cl
ATOM     18  C   UNL     1       6.997   5.708  18.699  0.00  0.00    +0.000 A 
ATOM     19  C   UNL     1       6.125   4.666  18.400  0.00  0.00    +0.000 A 
ENDBRANCH  11  13
ENDBRANCH   9  11
ENDBRANCH   7   9
ENDBRANCH   5   7
BRANCH   1  20
ATOM     20  S   UNL     1       2.239   9.534  18.158  0.00  0.00    +0.000 S 
BRANCH  20  24
ATOM     21  C   UNL     1      -2.025  11.119  18.218  0.00  0.00    +0.000 A 
ATOM     22  C   UNL     1      -1.795   9.895  17.593  0.00  0.00    +0.000 A 
ATOM     23  C   UNL     1      -0.497   9.377  17.554  0.00  0.00    +0.000 A 
ATOM     24  C   UNL     1       0.543  10.089  18.149  0.00  0.00    +0.000 A 
ATOM     25  N   UNL     1       0.337  11.295  18.729  0.00  0.00    +0.000 NA
ATOM     26  C   UNL     1      -0.929  11.788  18.741  0.00  0.00    +0.000 A 
BRANCH  21  29
ATOM     27  C   UNL     1      -5.454  12.322  17.188  0.00  0.00    +0.000 C 
ATOM     28  N   UNL     1      -4.108  11.807  17.177  0.00  0.00    +0.000 N 
ATOM     29  C   UNL     1      -3.368  11.733  18.339  0.00  0.00    +0.000 C 
ATOM     30  O   UNL     1      -3.778  12.106  19.430  0.00  0.00    +0.000 OA
ATOM     31  H   UNL     1      -3.788  11.332  16.344  0.00  0.00    +0.000 HD
ENDBRANCH  21  29
ENDBRANCH  20  24
ENDBRANCH   1  20
TORSDOF 7
ENDMDL
MODEL 4
REMARK VINA RESULT:      -7.5      2.664      3.209
REMARK  Name = 
REMARK  8 active torsions:
REMARK  status: ('A' for Active; 'I' for Inactive)
REMARK    1  A    between atoms: C_1  and  N_2
REMARK    2  A    between atoms: C_3  and  C_5
REMARK    3  A    between atoms: C_8  and  S_9
REMARK    4  A    between atoms: S_9  and  C_10
REMARK    5  A    between atoms: C_14  and  N_15
REMARK    6  A    between atoms: N_15  and  C_16
REMARK    7  A    between atoms: C_16  and  N_18
REMARK    8  A    between atoms: N_18  and  C_19
REMARK                            x       y       z     vdW  Elec       q    Type
REMARK                         _______ _______ _______ _____ _____    ______ ____
ROOT
ATOM      1  C   UNL     1       1.186   8.772  20.028  0.00  0.00    +0.000 A 
ATOM      2  C   UNL     1       1.326   9.192  18.701  0.00  0.00    +0.000 A 
ATOM      3  C   UNL     1       2.095   8.441  17.807  0.00  0.00    +0.000 A 
ATOM      4  C   UNL     1       2.756   7.292  18.244  0.00  0.00    +0.000 A 
ATOM      5  C   UNL     1       2.655   6.896  19.579  0.00  0.00    +0.000 A 
ATOM      6  C   UNL     1       1.821   7.602  20.448  0.00  0.00    +0.000 A 
ENDROOT
BRANCH   5   7
ATOM      7  N   UNL     1       3.344   5.743  19.988  0.00  0.00    +0.000 N 
ATOM      8  H   UNL     1       3.985   5.850  20.766  0.00  0.00    +0.000 HD
BRANCH   7   9
ATOM      9  C   UNL     1       3.192   4.437  19.565  0.00  0.00    +0.000 C 
ATOM     10  S   UNL     1       1.804   3.509  19.633  0.00  0.00    +0.000 S 
BRANCH   9  11
ATOM     11  N   UNL     1       4.370   3.847  19.168  0.00  0.00    +0.000 N 
ATOM     12  H   UNL     1       4.573   2.935  19.569  0.00  0.00    +0.000 HD
BRANCH  11  13
ATOM     13  C   UNL     1       5.067   4.165  17.982  0.00  0.00    +0.000 A 
ATOM     14  C   UNL     1       6.384   4.607  18.061  0.00  0.00    +0.000 A 
ATOM     15  C   UNL     1       7.086   4.910  16.887  0.00  0.00    +0.000 A 
ATOM     16  C   UNL     1       6.473   4.721  15.643  0.00  0.00    +0.000 A 
ATOM     17 CL   UNL     1       7.352   5.036  14.200  0.00  0.00    +0.000 Cl
ATOM     18  C   UNL     1       5.165   4.265  15.563  0.00  0.00    +0.000 A 
ATOM     19  C   UNL     1       4.460   3.991  16.730  0.00  0.00    +0.000 A 
ENDBRANCH  11  13
ENDBRANCH   9  11
ENDBRANCH   7   9
ENDBRANCH   5   7
BRANCH   1  20
ATOM     20  S   UNL     1       0.180   9.682  21.180  0.00  0.00    +0.000 S 
BRANCH  20  24
ATOM     21  C   UNL     1       0.329  13.930  19.561  0.00  0.00    +0.000 A 
ATOM     22  C   UNL     1      -0.751  13.132  19.191  0.00  0.00    +0.000 A 
ATOM     23  C   UNL     1      -0.829  11.820  19.668  0.00  0.00    +0.000 A 
ATOM     24  C   UNL     1       0.168  11.337  20.514  0.00  0.00    +0.000 A 
ATOM     25  N   UNL     1       1.240  12.093  20.852  0.00  0.00    +0.000 NA
ATOM     26  C   UNL     1       1.306  13.358  20.363  0.00  0.00    +0.000 A 
BRANCH  21  29
ATOM     27  C   UNL     1      -0.596  17.294  18.113  0.00  0.00    +0.000 C 
ATOM     28  N   UNL     1      -0.607  15.909  18.510  0.00  0.00    +0.000 N 
ATOM     29  C   UNL     1       0.484  15.340  19.133  0.00  0.00    +0.000 C 
ATOM     30  O   UNL     1       1.521  15.946  19.371  0.00  0.00    +0.000 OA
ATOM     31  H   UNL     1      -1.491  15.417  18.493  0.00  0.00    +0.000 HD
ENDBRANCH  21  29
ENDBRANCH  20  24
ENDBRANCH   1  20
TORSDOF 7
ENDMDL
MODEL 5
REMARK VINA RESULT:      -7.5      0.852      1.134
REMARK  Name = 
REMARK  8 active torsions:
REMARK  status: ('A' for Active; 'I' for Inactive)
REMARK    1  A    between atoms: C_1  and  N_2
REMARK    2  A    between atoms: C_3  and  C_5
REMARK    3  A    between atoms: C_8  and  S_9
REMARK    4  A    between atoms: S_9  and  C_10
REMARK    5  A    between atoms: C_14  and  N_15
REMARK    6  A    between atoms: N_15  and  C_16
REMARK    7  A    between atoms: C_16  and  N_18
REMARK    8  A    between atoms: N_18  and  C_19
REMARK                            x       y       z     vdW  Elec       q    Type
REMARK                         _______ _______ _______ _____ _____    ______ ____
ROOT
ATOM      1  C   UNL     1       2.106   7.745  18.857  0.00  0.00    +0.000 A 
ATOM      2  C   UNL     1       1.671   7.742  20.186  0.00  0.00    +0.000 A 
ATOM      3  C   UNL     1       1.667   6.552  20.919  0.00  0.00    +0.000 A 
ATOM      4  C   UNL     1       2.061   5.357  20.316  0.00  0.00    +0.000 A 
ATOM      5  C   UNL     1       2.453   5.348  18.976  0.00  0.00    +0.000 A 
ATOM      6  C   UNL     1       2.533   6.552  18.273  0.00  0.00    +0.000 A 
ENDROOT
BRANCH   5   7
ATOM      7  N   UNL     1       2.830   4.126  18.398  0.00  0.00    +0.000 N 
ATOM      8  H   UNL     1       2.244   3.781  17.646  0.00  0.00    +0.000 HD
BRANCH   7   9
ATOM      9  C   UNL     1       3.963   3.368  18.617  0.00  0.00    +0.000 C 
ATOM     10  S   UNL     1       4.238   2.303  19.876  0.00  0.00    +0.000 S 
BRANCH   9  11
ATOM     11  N   UNL     1       4.990   3.648  17.745  0.00  0.00    +0.000 N 
ATOM     12  H   UNL     1       4.983   3.141  16.863  0.00  0.00    +0.000 HD
BRANCH  11  13
ATOM     13  C   UNL     1       5.759   4.832  17.766  0.00  0.00    +0.000 A 
ATOM     14  C   UNL     1       6.753   4.985  18.727  0.00  0.00    +0.000 A 
ATOM     15  C   UNL     1       7.529   6.151  18.744  0.00  0.00    +0.000 A 
ATOM     16  C   UNL     1       7.331   7.131  17.765  0.00  0.00    +0.000 A 
ATOM     17 CL   UNL     1       8.321   8.536  17.748  0.00  0.00    +0.000 Cl
ATOM     18  C   UNL     1       6.349   6.974  16.796  0.00  0.00    +0.000 A 
ATOM     19  C   UNL     1       5.561   5.828  16.798  0.00  0.00    +0.000 A 
ENDBRANCH  11  13
ENDBRANCH   9  11
ENDBRANCH   7   9
ENDBRANCH   5   7
BRANCH   1  20
ATOM     20  S   UNL     1       2.163   9.251  17.910  0.00  0.00    +0.000 S 
BRANCH  20  24
ATOM     21  C   UNL     1      -1.510  11.526  19.336  0.00  0.00    +0.000 A 
ATOM     22  C   UNL     1      -0.300  11.774  19.981  0.00  0.00    +0.000 A 
ATOM     23  C   UNL     1       0.850  11.092  19.571  0.00  0.00    +0.000 A 
ATOM     24  C   UNL     1       0.769  10.184  18.517  0.00  0.00    +0.000 A 
ATOM     25  N   UNL     1      -0.408   9.910  17.905  0.00  0.00    +0.000 NA
ATOM     26  C   UNL     1      -1.516  10.570  18.331  0.00  0.00    +0.000 A 
BRANCH  21  29
ATOM     27  C   UNL     1      -5.137  12.554  19.106  0.00  0.00    +0.000 C 
ATOM     28  N   UNL     1      -3.841  11.986  18.834  0.00  0.00    +0.000 N 
ATOM     29  C   UNL     1      -2.773  12.220  19.676  0.00  0.00    +0.000 C 
ATOM     30  O   UNL     1      -2.839  12.924  20.675  0.00  0.00    +0.000 OA
ATOM     31  H   UNL     1      -3.776  11.267  18.126  0.00  0.00    +0.000 HD
ENDBRANCH  21  29
ENDBRANCH  20  24
ENDBRANCH   1  20
TORSDOF 7
ENDMDL
MODEL 6
REMARK VINA RESULT:      -7.4      4.100      8.320
REMARK  Name = 
REMARK  8 active torsions:
REMARK  status: ('A' for Active; 'I' for Inactive)
REMARK    1  A    between atoms: C_1  and  N_2
REMARK    2  A    between atoms: C_3  and  C_5
REMARK    3  A    between atoms: C_8  and  S_9
REMARK    4  A    between atoms: S_9  and  C_10
REMARK    5  A    between atoms: C_14  and  N_15
REMARK    6  A    between atoms: N_15  and  C_16
REMARK    7  A    between atoms: C_16  and  N_18
REMARK    8  A    between atoms: N_18  and  C_19
REMARK                            x       y       z     vdW  Elec       q    Type
REMARK                         _______ _______ _______ _____ _____    ______ ____
ROOT
ATOM      1  C   UNL     1       2.785   3.533  18.530  0.00  0.00    +0.000 A 
ATOM      2  C   UNL     1       1.811   2.573  18.822  0.00  0.00    +0.000 A 
ATOM      3  C   UNL     1       0.795   2.863  19.737  0.00  0.00    +0.000 A 
ATOM      4  C   UNL     1       0.771   4.095  20.391  0.00  0.00    +0.000 A 
ATOM      5  C   UNL     1       1.768   5.039  20.136  0.00  0.00    +0.000 A 
ATOM      6  C   UNL     1       2.733   4.777  19.162  0.00  0.00    +0.000 A 
ENDROOT
BRANCH   5   7
ATOM      7  N   UNL     1       1.721   6.263  20.822  0.00  0.00    +0.000 N 
ATOM      8  H   UNL     1       1.631   6.214  21.830  0.00  0.00    +0.000 HD
BRANCH   7   9
ATOM      9  C   UNL     1       1.903   7.543  20.339  0.00  0.00    +0.000 C 
ATOM     10  S   UNL     1       2.141   7.999  18.748  0.00  0.00    +0.000 S 
BRANCH   9  11
ATOM     11  N   UNL     1       2.013   8.494  21.328  0.00  0.00    +0.000 N 
ATOM     12  H   UNL     1       2.958   8.780  21.573  0.00  0.00    +0.000 HD
BRANCH  11  13
ATOM     13  C   UNL     1       0.986   9.388  21.701  0.00  0.00    +0.000 A 
ATOM     14  C   UNL     1       0.219   9.115  22.829  0.00  0.00    +0.000 A 
ATOM     15  C   UNL     1      -0.793  10.006  23.212  0.00  0.00    +0.000 A 
ATOM     16  C   UNL     1      -0.991  11.185  22.486  0.00  0.00    +0.000 A 
ATOM     17 CL   UNL     1      -2.192  12.308  22.988  0.00  0.00    +0.000 Cl
ATOM     18  C   UNL     1      -0.217  11.465  21.368  0.00  0.00    +0.000 A 
ATOM     19  C   UNL     1       0.768  10.567  20.973  0.00  0.00    +0.000 A 
ENDBRANCH  11  13
ENDBRANCH   9  11
ENDBRANCH   7   9
ENDBRANCH   5   7
BRANCH   1  20
ATOM     20  S   UNL     1       4.067   3.212  17.339  0.00  0.00    +0.000 S 
BRANCH  20  24
ATOM     21  C   UNL     1       6.973   6.665  17.906  0.00  0.00    +0.000 A 
ATOM     22  C   UNL     1       5.954   6.821  16.969  0.00  0.00    +0.000 A 
ATOM     23  C   UNL     1       5.043   5.780  16.766  0.00  0.00    +0.000 A 
ATOM     24  C   UNL     1       5.163   4.609  17.512  0.00  0.00    +0.000 A 
ATOM     25  N   UNL     1       6.170   4.434  18.401  0.00  0.00    +0.000 NA
ATOM     26  C   UNL     1       7.054   5.450  18.570  0.00  0.00    +0.000 A 
BRANCH  21  29
ATOM     27  C   UNL     1       8.700  10.022  17.776  0.00  0.00    +0.000 C 
ATOM     28  N   UNL     1       7.835   8.901  17.511  0.00  0.00    +0.000 N 
ATOM     29  C   UNL     1       7.965   7.721  18.214  0.00  0.00    +0.000 C 
ATOM     30  O   UNL     1       8.814   7.536  19.076  0.00  0.00    +0.000 OA
ATOM     31  H   UNL     1       7.016   9.058  16.938  0.00  0.00    +0.000 HD
ENDBRANCH  21  29
ENDBRANCH  20  24
ENDBRANCH   1  20
TORSDOF 7
ENDMDL
MODEL 7
REMARK VINA RESULT:      -7.4      2.940      3.898
REMARK  Name = 
REMARK  8 active torsions:
REMARK  status: ('A' for Active; 'I' for Inactive)
REMARK    1  A    between atoms: C_1  and  N_2
REMARK    2  A    between atoms: C_3  and  C_5
REMARK    3  A    between atoms: C_8  and  S_9
REMARK    4  A    between atoms: S_9  and  C_10
REMARK    5  A    between atoms: C_14  and  N_15
REMARK    6  A    between atoms: N_15  and  C_16
REMARK    7  A    between atoms: C_16  and  N_18
REMARK    8  A    between atoms: N_18  and  C_19
REMARK                            x       y       z     vdW  Elec       q    Type
REMARK                         _______ _______ _______ _____ _____    ______ ____
ROOT
ATOM      1  C   UNL     1       1.041   9.107  20.036  0.00  0.00    +0.000 A 
ATOM      2  C   UNL     1       1.338   9.361  18.693  0.00  0.00    +0.000 A 
ATOM      3  C   UNL     1       2.050   8.420  17.944  0.00  0.00    +0.000 A 
ATOM      4  C   UNL     1       2.501   7.243  18.543  0.00  0.00    +0.000 A 
ATOM      5  C   UNL     1       2.246   7.007  19.895  0.00  0.00    +0.000 A 
ATOM      6  C   UNL     1       1.464   7.910  20.618  0.00  0.00    +0.000 A 
ENDROOT
BRANCH   5   7
ATOM      7  N   UNL     1       2.726   5.819  20.468  0.00  0.00    +0.000 N 
ATOM      8  H   UNL     1       3.201   5.906  21.359  0.00  0.00    +0.000 HD
BRANCH   7   9
ATOM      9  C   UNL     1       2.542   4.514  20.058  0.00  0.00    +0.000 C 
ATOM     10  S   UNL     1       1.103   3.665  20.005  0.00  0.00    +0.000 S 
BRANCH   9  11
ATOM     11  N   UNL     1       3.717   3.850  19.793  0.00  0.00    +0.000 N 
ATOM     12  H   UNL     1       3.837   2.948  20.248  0.00  0.00    +0.000 HD
BRANCH  11  13
ATOM     13  C   UNL     1       4.531   4.079  18.662  0.00  0.00    +0.000 A 
ATOM     14  C   UNL     1       4.036   3.793  17.393  0.00  0.00    +0.000 A 
ATOM     15  C   UNL     1       4.833   4.031  16.267  0.00  0.00    +0.000 A 
ATOM     16  C   UNL     1       6.103   4.599  16.422  0.00  0.00    +0.000 A 
ATOM     17 CL   UNL     1       7.060   4.947  15.037  0.00  0.00    +0.000 Cl
ATOM     18  C   UNL     1       6.593   4.899  17.686  0.00  0.00    +0.000 A 
ATOM     19  C   UNL     1       5.810   4.636  18.805  0.00  0.00    +0.000 A 
ENDBRANCH  11  13
ENDBRANCH   9  11
ENDBRANCH   7   9
ENDBRANCH   5   7
BRANCH   1  20
ATOM     20  S   UNL     1       0.099  10.264  21.005  0.00  0.00    +0.000 S 
BRANCH  20  24
ATOM     21  C   UNL     1       1.428  14.314  19.417  0.00  0.00    +0.000 A 
ATOM     22  C   UNL     1       0.366  13.682  18.776  0.00  0.00    +0.000 A 
ATOM     23  C   UNL     1      -0.070  12.435  19.235  0.00  0.00    +0.000 A 
ATOM     24  C   UNL     1       0.560  11.851  20.333  0.00  0.00    +0.000 A 
ATOM     25  N   UNL     1       1.615  12.441  20.943  0.00  0.00    +0.000 NA
ATOM     26  C   UNL     1       2.034  13.643  20.470  0.00  0.00    +0.000 A 
BRANCH  21  29
ATOM     27  C   UNL     1       3.153  16.954  17.338  0.00  0.00    +0.000 C 
ATOM     28  N   UNL     1       2.665  15.700  17.853  0.00  0.00    +0.000 N 
ATOM     29  C   UNL     1       1.939  15.648  19.025  0.00  0.00    +0.000 C 
ATOM     30  O   UNL     1       1.680  16.631  19.707  0.00  0.00    +0.000 OA
ATOM     31  H   UNL     1       2.703  14.891  17.248  0.00  0.00    +0.000 HD
ENDBRANCH  21  29
ENDBRANCH  20  24
ENDBRANCH   1  20
TORSDOF 7
ENDMDL
MODEL 8
REMARK VINA RESULT:      -7.3      0.828      1.426
REMARK  Name = 
REMARK  8 active torsions:
REMARK  status: ('A' for Active; 'I' for Inactive)
REMARK    1  A    between atoms: C_1  and  N_2
REMARK    2  A    between atoms: C_3  and  C_5
REMARK    3  A    between atoms: C_8  and  S_9
REMARK    4  A    between atoms: S_9  and  C_10
REMARK    5  A    between atoms: C_14  and  N_15
REMARK    6  A    between atoms: N_15  and  C_16
REMARK    7  A    between atoms: C_16  and  N_18
REMARK    8  A    between atoms: N_18  and  C_19
REMARK                            x       y       z     vdW  Elec       q    Type
REMARK                         _______ _______ _______ _____ _____    ______ ____
ROOT
ATOM      1  C   UNL     1       2.138   7.882  18.828  0.00  0.00    +0.000 A 
ATOM      2  C   UNL     1       1.850   7.687  20.183  0.00  0.00    +0.000 A 
ATOM      3  C   UNL     1       1.784   6.392  20.705  0.00  0.00    +0.000 A 
ATOM      4  C   UNL     1       1.968   5.290  19.870  0.00  0.00    +0.000 A 
ATOM      5  C   UNL     1       2.211   5.480  18.508  0.00  0.00    +0.000 A 
ATOM      6  C   UNL     1       2.357   6.775  18.007  0.00  0.00    +0.000 A 
ENDROOT
BRANCH   5   7
ATOM      7  N   UNL     1       2.377   4.348  17.694  0.00  0.00    +0.000 N 
ATOM      8  H   UNL     1       1.989   4.401  16.760  0.00  0.00    +0.000 HD
BRANCH   7   9
ATOM      9  C   UNL     1       3.106   3.199  17.932  0.00  0.00    +0.000 C 
ATOM     10  S   UNL     1       2.667   1.906  18.897  0.00  0.00    +0.000 S 
BRANCH   9  11
ATOM     11  N   UNL     1       4.371   3.229  17.393  0.00  0.00    +0.000 N 
ATOM     12  H   UNL     1       4.571   2.538  16.674  0.00  0.00    +0.000 HD
BRANCH  11  13
ATOM     13  C   UNL     1       5.230   4.350  17.421  0.00  0.00    +0.000 A 
ATOM     14  C   UNL     1       5.378   5.126  16.275  0.00  0.00    +0.000 A 
ATOM     15  C   UNL     1       6.217   6.247  16.300  0.00  0.00    +0.000 A 
ATOM     16  C   UNL     1       6.862   6.605  17.489  0.00  0.00    +0.000 A 
ATOM     17 CL   UNL     1       7.846   8.014  17.538  0.00  0.00    +0.000 Cl
ATOM     18  C   UNL     1       6.704   5.840  18.637  0.00  0.00    +0.000 A 
ATOM     19  C   UNL     1       5.892   4.712  18.602  0.00  0.00    +0.000 A 
ENDBRANCH  11  13
ENDBRANCH   9  11
ENDBRANCH   7   9
ENDBRANCH   5   7
BRANCH   1  20
ATOM     20  S   UNL     1       2.271   9.518  18.141  0.00  0.00    +0.000 S 
BRANCH  20  24
ATOM     21  C   UNL     1      -1.729  11.412  19.193  0.00  0.00    +0.000 A 
ATOM     22  C   UNL     1      -0.652  11.654  20.043  0.00  0.00    +0.000 A 
ATOM     23  C   UNL     1       0.593  11.087  19.753  0.00  0.00    +0.000 A 
ATOM     24  C   UNL     1       0.737  10.299  18.613  0.00  0.00    +0.000 A 
ATOM     25  N   UNL     1      -0.310  10.030  17.798  0.00  0.00    +0.000 NA
ATOM     26  C   UNL     1      -1.515  10.576  18.108  0.00  0.00    +0.000 A 
BRANCH  21  29
ATOM     27  C   UNL     1      -5.334  12.288  18.483  0.00  0.00    +0.000 C 
ATOM     28  N   UNL     1      -3.975  11.824  18.366  0.00  0.00    +0.000 N 
ATOM     29  C   UNL     1      -3.076  11.994  19.399  0.00  0.00    +0.000 C 
ATOM     30  O   UNL     1      -3.351  12.552  20.453  0.00  0.00    +0.000 OA
ATOM     31  H   UNL     1      -3.746  11.211  17.595  0.00  0.00    +0.000 HD
ENDBRANCH  21  29
ENDBRANCH  20  24
ENDBRANCH   1  20
TORSDOF 7
ENDMDL
MODEL 9
REMARK VINA RESULT:      -7.3      2.953      3.763
REMARK  Name = 
REMARK  8 active torsions:
REMARK  status: ('A' for Active; 'I' for Inactive)
REMARK    1  A    between atoms: C_1  and  N_2
REMARK    2  A    between atoms: C_3  and  C_5
REMARK    3  A    between atoms: C_8  and  S_9
REMARK    4  A    between atoms: S_9  and  C_10
REMARK    5  A    between atoms: C_14  and  N_15
REMARK    6  A    between atoms: N_15  and  C_16
REMARK    7  A    between atoms: C_16  and  N_18
REMARK    8  A    between atoms: N_18  and  C_19
REMARK                            x       y       z     vdW  Elec       q    Type
REMARK                         _______ _______ _______ _____ _____    ______ ____
ROOT
ATOM      1  C   UNL     1       2.920   6.371  18.523  0.00  0.00    +0.000 A 
ATOM      2  C   UNL     1       2.105   5.307  18.920  0.00  0.00    +0.000 A 
ATOM      3  C   UNL     1       2.677   4.148  19.452  0.00  0.00    +0.000 A 
ATOM      4  C   UNL     1       4.064   4.033  19.553  0.00  0.00    +0.000 A 
ATOM      5  C   UNL     1       4.883   5.076  19.115  0.00  0.00    +0.000 A 
ATOM      6  C   UNL     1       4.305   6.263  18.661  0.00  0.00    +0.000 A 
ENDROOT
BRANCH   5   7
ATOM      7  N   UNL     1       6.274   4.921  19.218  0.00  0.00    +0.000 N 
ATOM      8  H   UNL     1       6.607   4.292  19.939  0.00  0.00    +0.000 HD
BRANCH   7   9
ATOM      9  C   UNL     1       7.271   5.410  18.397  0.00  0.00    +0.000 C 
ATOM     10  S   UNL     1       7.910   6.954  18.393  0.00  0.00    +0.000 S 
BRANCH   9  11
ATOM     11  N   UNL     1       7.658   4.526  17.416  0.00  0.00    +0.000 N 
ATOM     12  H   UNL     1       8.231   3.741  17.718  0.00  0.00    +0.000 HD
BRANCH  11  13
ATOM     13  C   UNL     1       7.002   4.366  16.176  0.00  0.00    +0.000 A 
ATOM     14  C   UNL     1       7.563   4.919  15.029  0.00  0.00    +0.000 A 
ATOM     15  C   UNL     1       6.924   4.752  13.794  0.00  0.00    +0.000 A 
ATOM     16  C   UNL     1       5.753   3.989  13.716  0.00  0.00    +0.000 A 
ATOM     17 CL   UNL     1       5.000   3.732  12.192  0.00  0.00    +0.000 Cl
ATOM     18  C   UNL     1       5.201   3.424  14.857  0.00  0.00    +0.000 A 
ATOM     19  C   UNL     1       5.821   3.615  16.087  0.00  0.00    +0.000 A 
ENDBRANCH  11  13
ENDBRANCH   9  11
ENDBRANCH   7   9
ENDBRANCH   5   7
BRANCH   1  20
ATOM     20  S   UNL     1       2.221   7.877  17.882  0.00  0.00    +0.000 S 
BRANCH  20  24
ATOM     21  C   UNL     1       0.274   9.971  21.420  0.00  0.00    +0.000 A 
ATOM     22  C   UNL     1       1.028   8.828  21.676  0.00  0.00    +0.000 A 
ATOM     23  C   UNL     1       1.640   8.157  20.613  0.00  0.00    +0.000 A 
ATOM     24  C   UNL     1       1.494   8.649  19.317  0.00  0.00    +0.000 A 
ATOM     25  N   UNL     1       0.736   9.739  19.053  0.00  0.00    +0.000 NA
ATOM     26  C   UNL     1       0.135  10.365  20.097  0.00  0.00    +0.000 A 
BRANCH  21  29
ATOM     27  C   UNL     1      -1.285  12.958  23.128  0.00  0.00    +0.000 C 
ATOM     28  N   UNL     1      -0.592  12.102  22.199  0.00  0.00    +0.000 N 
ATOM     29  C   UNL     1      -0.385  10.768  22.481  0.00  0.00    +0.000 C 
ATOM     30  O   UNL     1      -0.745  10.230  23.520  0.00  0.00    +0.000 OA
ATOM     31  H   UNL     1      -0.428  12.451  21.264  0.00  0.00    +0.000 HD
ENDBRANCH  21  29
ENDBRANCH  20  24
ENDBRANCH   1  20
TORSDOF 7
ENDMDL
