MODEL 1
REMARK VINA RESULT:      -9.5      0.000      0.000
REMARK  Name = 
REMARK  6 active torsions:
REMARK  status: ('A' for Active; 'I' for Inactive)
REMARK    1  A    between atoms: C_2  and  O_3
REMARK    2  A    between atoms: C_2  and  C_14
REMARK    3  A    between atoms: O_3  and  C_4
REMARK    4  A    between atoms: C_4  and  C_5
REMARK    5  A    between atoms: C_8  and  N_9
REMARK    6  A    between atoms: C_14  and  C_15
REMARK                            x       y       z     vdW  Elec       q    Type
REMARK                         _______ _______ _______ _____ _____    ______ ____
ROOT
ATOM      1  C   UNL     1       2.270   4.787  19.226  0.00  0.00    +0.000 C 
ATOM      2  C   UNL     1       1.177   4.000  20.017  0.00  0.00    +0.000 C 
ATOM      3  C   UNL     1       1.101   2.487  19.758  0.00  0.00    +0.000 C 
ATOM      4  N   UNL     1       1.041   2.165  18.341  0.00  0.00    +0.000 NA
ATOM      5  C   UNL     1       2.138   2.795  17.620  0.00  0.00    +0.000 C 
ATOM      6  C   UNL     1       2.095   4.322  17.753  0.00  0.00    +0.000 C 
ATOM      7  H   UNL     1       0.142   2.462  17.960  0.00  0.00    +0.000 HD
ENDROOT
BRANCH   1   8
ATOM      8  C   UNL     1       2.151   6.357  19.356  0.00  0.00    +0.000 A 
ATOM      9  C   UNL     1       2.304   7.177  18.220  0.00  0.00    +0.000 A 
ATOM     10  C   UNL     1       1.925   8.525  18.204  0.00  0.00    +0.000 A 
ATOM     11  C   UNL     1       1.357   9.119  19.325  0.00  0.00    +0.000 A 
ATOM     12  C   UNL     1       0.782  10.402  19.244  0.00  0.00    +0.000 A 
ATOM     13  C   UNL     1       0.187  10.992  20.358  0.00  0.00    +0.000 A 
ATOM     14  C   UNL     1       0.253  10.341  21.584  0.00  0.00    +0.000 A 
ATOM     15  C   UNL     1       0.835   9.067  21.677  0.00  0.00    +0.000 A 
ATOM     16  C   UNL     1       1.335   8.394  20.536  0.00  0.00    +0.000 A 
ATOM     17  C   UNL     1       1.756   7.025  20.537  0.00  0.00    +0.000 A 
ENDBRANCH   1   8
BRANCH   1  19
ATOM     18  O   UNL     1       4.047   3.255  20.067  0.00  0.00    +0.000 OA
ATOM     19  C   UNL     1       3.722   4.372  19.679  0.00  0.00    +0.000 C 
BRANCH  19  20
ATOM     20  O   UNL     1       4.544   5.472  19.717  0.00  0.00    +0.000 OA
BRANCH  20  21
ATOM     21  C   UNL     1       5.930   5.359  19.333  0.00  0.00    +0.000 C 
BRANCH  21  22
ATOM     22  C   UNL     1       6.218   5.299  17.841  0.00  0.00    +0.000 A 
ATOM     23  C   UNL     1       7.340   4.597  17.371  0.00  0.00    +0.000 A 
ATOM     24  C   UNL     1       7.561   4.414  16.002  0.00  0.00    +0.000 A 
ATOM     25  C   UNL     1       6.658   4.947  15.076  0.00  0.00    +0.000 A 
ATOM     26  C   UNL     1       5.540   5.667  15.516  0.00  0.00    +0.000 A 
ATOM     27  C   UNL     1       5.329   5.841  16.893  0.00  0.00    +0.000 A 
BRANCH  25  28
ATOM     28  N   UNL     1       6.864   4.726  13.635  0.00  0.00    +0.000 N 
ATOM     29  O   UNL     1       7.714   5.437  13.051  0.00  0.00    +0.000 OA
ATOM     30  O   UNL     1       6.188   3.859  13.077  0.00  0.00    +0.000 OA
ENDBRANCH  25  28
ENDBRANCH  21  22
ENDBRANCH  20  21
ENDBRANCH  19  20
ENDBRANCH   1  19
TORSDOF 6
ENDMDL
MODEL 2
REMARK VINA RESULT:      -9.2      0.773      1.187
REMARK  Name = 
REMARK  6 active torsions:
REMARK  status: ('A' for Active; 'I' for Inactive)
REMARK    1  A    between atoms: C_2  and  O_3
REMARK    2  A    between atoms: C_2  and  C_14
REMARK    3  A    between atoms: O_3  and  C_4
REMARK    4  A    between atoms: C_4  and  C_5
REMARK    5  A    between atoms: C_8  and  N_9
REMARK    6  A    between atoms: C_14  and  C_15
REMARK                            x       y       z     vdW  Elec       q    Type
REMARK                         _______ _______ _______ _____ _____    ______ ____
ROOT
ATOM      1  C   UNL     1       2.753   4.738  19.101  0.00  0.00    +0.000 C 
ATOM      2  C   UNL     1       1.862   3.851  20.028  0.00  0.00    +0.000 C 
ATOM      3  C   UNL     1       1.916   2.335  19.782  0.00  0.00    +0.000 C 
ATOM      4  N   UNL     1       1.709   1.987  18.385  0.00  0.00    +0.000 NA
ATOM      5  C   UNL     1       2.630   2.720  17.527  0.00  0.00    +0.000 C 
ATOM      6  C   UNL     1       2.440   4.236  17.664  0.00  0.00    +0.000 C 
ATOM      7  H   UNL     1       0.742   2.181  18.124  0.00  0.00    +0.000 HD
ENDROOT
BRANCH   1   8
ATOM      8  C   UNL     1       2.483   6.289  19.245  0.00  0.00    +0.000 A 
ATOM      9  C   UNL     1       2.531   7.126  18.112  0.00  0.00    +0.000 A 
ATOM     10  C   UNL     1       2.021   8.430  18.112  0.00  0.00    +0.000 A 
ATOM     11  C   UNL     1       1.422   8.960  19.249  0.00  0.00    +0.000 A 
ATOM     12  C   UNL     1       0.722  10.180  19.189  0.00  0.00    +0.000 A 
ATOM     13  C   UNL     1       0.095  10.704  20.318  0.00  0.00    +0.000 A 
ATOM     14  C   UNL     1       0.250  10.057  21.538  0.00  0.00    +0.000 A 
ATOM     15  C   UNL     1       0.955   8.845  21.611  0.00  0.00    +0.000 A 
ATOM     16  C   UNL     1       1.495   8.230  20.455  0.00  0.00    +0.000 A 
ATOM     17  C   UNL     1       2.049   6.909  20.438  0.00  0.00    +0.000 A 
ENDBRANCH   1   8
BRANCH   1  19
ATOM     18  O   UNL     1       4.781   3.412  19.681  0.00  0.00    +0.000 OA
ATOM     19  C   UNL     1       4.287   4.488  19.362  0.00  0.00    +0.000 C 
BRANCH  19  20
ATOM     20  O   UNL     1       4.979   5.673  19.322  0.00  0.00    +0.000 OA
BRANCH  20  21
ATOM     21  C   UNL     1       6.129   5.817  18.464  0.00  0.00    +0.000 C 
BRANCH  21  22
ATOM     22  C   UNL     1       5.995   5.264  17.053  0.00  0.00    +0.000 A 
ATOM     23  C   UNL     1       5.269   5.979  16.085  0.00  0.00    +0.000 A 
ATOM     24  C   UNL     1       5.237   5.564  14.751  0.00  0.00    +0.000 A 
ATOM     25  C   UNL     1       5.928   4.412  14.364  0.00  0.00    +0.000 A 
ATOM     26  C   UNL     1       6.646   3.670  15.311  0.00  0.00    +0.000 A 
ATOM     27  C   UNL     1       6.672   4.098  16.648  0.00  0.00    +0.000 A 
BRANCH  25  28
ATOM     28  N   UNL     1       5.929   3.991  12.953  0.00  0.00    +0.000 N 
ATOM     29  O   UNL     1       7.011   4.053  12.325  0.00  0.00    +0.000 OA
ATOM     30  O   UNL     1       4.867   3.603  12.462  0.00  0.00    +0.000 OA
ENDBRANCH  25  28
ENDBRANCH  21  22
ENDBRANCH  20  21
ENDBRANCH  19  20
ENDBRANCH   1  19
TORSDOF 6
ENDMDL
MODEL 3
REMARK VINA RESULT:      -9.1      0.951      1.247
REMARK  Name = 
REMARK  6 active torsions:
REMARK  status: ('A' for Active; 'I' for Inactive)
REMARK    1  A    between atoms: C_2  and  O_3
REMARK    2  A    between atoms: C_2  and  C_14
REMARK    3  A    between atoms: O_3  and  C_4
REMARK    4  A    between atoms: C_4  and  C_5
REMARK    5  A    between atoms: C_8  and  N_9
REMARK    6  A    between atoms: C_14  and  C_15
REMARK                            x       y       z     vdW  Elec       q    Type
REMARK                         _______ _______ _______ _____ _____    ______ ____
ROOT
ATOM      1  C   UNL     1       2.307   4.867  19.801  0.00  0.00    +0.000 C 
ATOM      2  C   UNL     1       2.352   4.479  21.313  0.00  0.00    +0.000 C 
ATOM      3  C   UNL     1       2.215   2.983  21.641  0.00  0.00    +0.000 C 
ATOM      4  N   UNL     1       1.067   2.372  20.988  0.00  0.00    +0.000 NA
ATOM      5  C   UNL     1       1.092   2.624  19.554  0.00  0.00    +0.000 C 
ATOM      6  C   UNL     1       1.058   4.126  19.247  0.00  0.00    +0.000 C 
ATOM      7  H   UNL     1       0.206   2.731  21.402  0.00  0.00    +0.000 HD
ENDROOT
BRANCH   1   8
ATOM      8  C   UNL     1       2.222   6.423  19.540  0.00  0.00    +0.000 A 
ATOM      9  C   UNL     1       2.455   6.940  18.250  0.00  0.00    +0.000 A 
ATOM     10  C   UNL     1       2.113   8.248  17.886  0.00  0.00    +0.000 A 
ATOM     11  C   UNL     1       1.503   9.104  18.796  0.00  0.00    +0.000 A 
ATOM     12  C   UNL     1       0.966  10.336  18.374  0.00  0.00    +0.000 A 
ATOM     13  C   UNL     1       0.330  11.187  19.276  0.00  0.00    +0.000 A 
ATOM     14  C   UNL     1       0.314  10.853  20.625  0.00  0.00    +0.000 A 
ATOM     15  C   UNL     1       0.857   9.632  21.057  0.00  0.00    +0.000 A 
ATOM     16  C   UNL     1       1.398   8.696  20.143  0.00  0.00    +0.000 A 
ATOM     17  C   UNL     1       1.783   7.363  20.500  0.00  0.00    +0.000 A 
ENDBRANCH   1   8
BRANCH   1  19
ATOM     18  O   UNL     1       3.517   3.617  18.016  0.00  0.00    +0.000 OA
ATOM     19  C   UNL     1       3.563   4.314  19.024  0.00  0.00    +0.000 C 
BRANCH  19  20
ATOM     20  O   UNL     1       4.715   4.600  19.714  0.00  0.00    +0.000 OA
BRANCH  20  21
ATOM     21  C   UNL     1       5.625   5.607  19.225  0.00  0.00    +0.000 C 
BRANCH  21  22
ATOM     22  C   UNL     1       6.053   5.487  17.770  0.00  0.00    +0.000 A 
ATOM     23  C   UNL     1       7.041   4.557  17.404  0.00  0.00    +0.000 A 
ATOM     24  C   UNL     1       7.362   4.332  16.062  0.00  0.00    +0.000 A 
ATOM     25  C   UNL     1       6.701   5.048  15.059  0.00  0.00    +0.000 A 
ATOM     26  C   UNL     1       5.724   5.993  15.396  0.00  0.00    +0.000 A 
ATOM     27  C   UNL     1       5.409   6.209  16.747  0.00  0.00    +0.000 A 
BRANCH  25  28
ATOM     28  N   UNL     1       7.008   4.788  13.643  0.00  0.00    +0.000 N 
ATOM     29  O   UNL     1       6.397   3.855  13.074  0.00  0.00    +0.000 OA
ATOM     30  O   UNL     1       7.852   5.497  13.092  0.00  0.00    +0.000 OA
ENDBRANCH  25  28
ENDBRANCH  21  22
ENDBRANCH  20  21
ENDBRANCH  19  20
ENDBRANCH   1  19
TORSDOF 6
ENDMDL
MODEL 4
REMARK VINA RESULT:      -9.0      2.542      2.986
REMARK  Name = 
REMARK  6 active torsions:
REMARK  status: ('A' for Active; 'I' for Inactive)
REMARK    1  A    between atoms: C_2  and  O_3
REMARK    2  A    between atoms: C_2  and  C_14
REMARK    3  A    between atoms: O_3  and  C_4
REMARK    4  A    between atoms: C_4  and  C_5
REMARK    5  A    between atoms: C_8  and  N_9
REMARK    6  A    between atoms: C_14  and  C_15
REMARK                            x       y       z     vdW  Elec       q    Type
REMARK                         _______ _______ _______ _____ _____    ______ ____
ROOT
ATOM      1  C   UNL     1       2.877   4.359  18.931  0.00  0.00    +0.000 C 
ATOM      2  C   UNL     1       2.158   3.627  20.109  0.00  0.00    +0.000 C 
ATOM      3  C   UNL     1       2.059   2.096  20.004  0.00  0.00    +0.000 C 
ATOM      4  N   UNL     1       1.525   1.657  18.725  0.00  0.00    +0.000 NA
ATOM      5  C   UNL     1       2.278   2.239  17.622  0.00  0.00    +0.000 C 
ATOM      6  C   UNL     1       2.221   3.772  17.650  0.00  0.00    +0.000 C 
ATOM      7  H   UNL     1       0.539   1.910  18.660  0.00  0.00    +0.000 HD
ENDROOT
BRANCH   1   8
ATOM      8  C   UNL     1       2.745   5.933  18.980  0.00  0.00    +0.000 A 
ATOM      9  C   UNL     1       3.026   6.705  17.834  0.00  0.00    +0.000 A 
ATOM     10  C   UNL     1       2.652   8.049  17.717  0.00  0.00    +0.000 A 
ATOM     11  C   UNL     1       1.964   8.689  18.742  0.00  0.00    +0.000 A 
ATOM     12  C   UNL     1       1.403   9.965  18.543  0.00  0.00    +0.000 A 
ATOM     13  C   UNL     1       0.689  10.600  19.557  0.00  0.00    +0.000 A 
ATOM     14  C   UNL     1       0.616  10.003  20.809  0.00  0.00    +0.000 A 
ATOM     15  C   UNL     1       1.182   8.735  21.021  0.00  0.00    +0.000 A 
ATOM     16  C   UNL     1       1.805   8.016  19.973  0.00  0.00    +0.000 A 
ATOM     17  C   UNL     1       2.222   6.650  20.080  0.00  0.00    +0.000 A 
ENDBRANCH   1   8
BRANCH   1  19
ATOM     18  O   UNL     1       5.131   3.842  19.858  0.00  0.00    +0.000 OA
ATOM     19  C   UNL     1       4.412   4.003  18.879  0.00  0.00    +0.000 C 
BRANCH  19  20
ATOM     20  O   UNL     1       4.866   4.037  17.584  0.00  0.00    +0.000 OA
BRANCH  20  21
ATOM     21  C   UNL     1       6.256   4.303  17.307  0.00  0.00    +0.000 C 
BRANCH  21  22
ATOM     22  C   UNL     1       6.761   5.697  17.650  0.00  0.00    +0.000 A 
ATOM     23  C   UNL     1       7.752   5.861  18.633  0.00  0.00    +0.000 A 
ATOM     24  C   UNL     1       8.328   7.111  18.880  0.00  0.00    +0.000 A 
ATOM     25  C   UNL     1       7.910   8.226  18.147  0.00  0.00    +0.000 A 
ATOM     26  C   UNL     1       6.911   8.095  17.173  0.00  0.00    +0.000 A 
ATOM     27  C   UNL     1       6.342   6.834  16.934  0.00  0.00    +0.000 A 
BRANCH  25  28
ATOM     28  N   UNL     1       8.539   9.537  18.375  0.00  0.00    +0.000 N 
ATOM     29  O   UNL     1       8.284  10.457  17.564  0.00  0.00    +0.000 OA
ATOM     30  O   UNL     1       9.285   9.662  19.348  0.00  0.00    +0.000 OA
ENDBRANCH  25  28
ENDBRANCH  21  22
ENDBRANCH  20  21
ENDBRANCH  19  20
ENDBRANCH   1  19
TORSDOF 6
ENDMDL
MODEL 5
REMARK VINA RESULT:      -8.9      2.606      3.156
REMARK  Name = 
REMARK  6 active torsions:
REMARK  status: ('A' for Active; 'I' for Inactive)
REMARK    1  A    between atoms: C_2  and  O_3
REMARK    2  A    between atoms: C_2  and  C_14
REMARK    3  A    between atoms: O_3  and  C_4
REMARK    4  A    between atoms: C_4  and  C_5
REMARK    5  A    between atoms: C_8  and  N_9
REMARK    6  A    between atoms: C_14  and  C_15
REMARK                            x       y       z     vdW  Elec       q    Type
REMARK                         _______ _______ _______ _____ _____    ______ ____
ROOT
ATOM      1  C   UNL     1       2.818   4.416  18.945  0.00  0.00    +0.000 C 
ATOM      2  C   UNL     1       2.040   3.679  20.081  0.00  0.00    +0.000 C 
ATOM      3  C   UNL     1       1.934   2.150  19.958  0.00  0.00    +0.000 C 
ATOM      4  N   UNL     1       1.458   1.726  18.651  0.00  0.00    +0.000 NA
ATOM      5  C   UNL     1       2.266   2.312  17.590  0.00  0.00    +0.000 C 
ATOM      6  C   UNL     1       2.219   3.845  17.629  0.00  0.00    +0.000 C 
ATOM      7  H   UNL     1       0.477   1.987  18.543  0.00  0.00    +0.000 HD
ENDROOT
BRANCH   1   8
ATOM      8  C   UNL     1       2.696   5.990  19.002  0.00  0.00    +0.000 A 
ATOM      9  C   UNL     1       2.959   6.764  17.853  0.00  0.00    +0.000 A 
ATOM     10  C   UNL     1       2.590   8.112  17.748  0.00  0.00    +0.000 A 
ATOM     11  C   UNL     1       1.925   8.751  18.787  0.00  0.00    +0.000 A 
ATOM     12  C   UNL     1       1.367  10.031  18.603  0.00  0.00    +0.000 A 
ATOM     13  C   UNL     1       0.675  10.666  19.632  0.00  0.00    +0.000 A 
ATOM     14  C   UNL     1       0.624  10.065  20.884  0.00  0.00    +0.000 A 
ATOM     15  C   UNL     1       1.186   8.793  21.081  0.00  0.00    +0.000 A 
ATOM     16  C   UNL     1       1.786   8.075  20.019  0.00  0.00    +0.000 A 
ATOM     17  C   UNL     1       2.197   6.706  20.113  0.00  0.00    +0.000 A 
ENDBRANCH   1   8
BRANCH   1  19
ATOM     18  O   UNL     1       4.961   3.615  19.932  0.00  0.00    +0.000 OA
ATOM     19  C   UNL     1       4.351   4.048  18.961  0.00  0.00    +0.000 C 
BRANCH  19  20
ATOM     20  O   UNL     1       4.943   4.414  17.778  0.00  0.00    +0.000 OA
BRANCH  20  21
ATOM     21  C   UNL     1       6.380   4.414  17.652  0.00  0.00    +0.000 C 
BRANCH  21  22
ATOM     22  C   UNL     1       7.077   5.755  17.829  0.00  0.00    +0.000 A 
ATOM     23  C   UNL     1       6.799   6.812  16.946  0.00  0.00    +0.000 A 
ATOM     24  C   UNL     1       7.322   8.091  17.158  0.00  0.00    +0.000 A 
ATOM     25  C   UNL     1       8.147   8.330  18.262  0.00  0.00    +0.000 A 
ATOM     26  C   UNL     1       8.455   7.290  19.150  0.00  0.00    +0.000 A 
ATOM     27  C   UNL     1       7.921   6.011  18.926  0.00  0.00    +0.000 A 
BRANCH  25  28
ATOM     28  N   UNL     1       8.671   9.683  18.513  0.00  0.00    +0.000 N 
ATOM     29  O   UNL     1       9.321   9.872  19.566  0.00  0.00    +0.000 OA
ATOM     30  O   UNL     1       8.439  10.559  17.677  0.00  0.00    +0.000 OA
ENDBRANCH  25  28
ENDBRANCH  21  22
ENDBRANCH  20  21
ENDBRANCH  19  20
ENDBRANCH   1  19
TORSDOF 6
ENDMDL
MODEL 6
REMARK VINA RESULT:      -8.9      0.879      1.258
REMARK  Name = 
REMARK  6 active torsions:
REMARK  status: ('A' for Active; 'I' for Inactive)
REMARK    1  A    between atoms: C_2  and  O_3
REMARK    2  A    between atoms: C_2  and  C_14
REMARK    3  A    between atoms: O_3  and  C_4
REMARK    4  A    between atoms: C_4  and  C_5
REMARK    5  A    between atoms: C_8  and  N_9
REMARK    6  A    between atoms: C_14  and  C_15
REMARK                            x       y       z     vdW  Elec       q    Type
REMARK                         _______ _______ _______ _____ _____    ______ ____
ROOT
ATOM      1  C   UNL     1       2.365   5.013  19.223  0.00  0.00    +0.000 C 
ATOM      2  C   UNL     1       1.503   4.252  20.279  0.00  0.00    +0.000 C 
ATOM      3  C   UNL     1       1.437   2.722  20.135  0.00  0.00    +0.000 C 
ATOM      4  N   UNL     1       1.087   2.303  18.788  0.00  0.00    +0.000 NA
ATOM      5  C   UNL     1       1.975   2.913  17.808  0.00  0.00    +0.000 C 
ATOM      6  C   UNL     1       1.896   4.445  17.855  0.00  0.00    +0.000 C 
ATOM      7  H   UNL     1       0.115   2.547  18.595  0.00  0.00    +0.000 HD
ENDROOT
BRANCH   1   8
ATOM      8  C   UNL     1       2.208   6.585  19.282  0.00  0.00    +0.000 A 
ATOM      9  C   UNL     1       2.345   7.356  18.109  0.00  0.00    +0.000 A 
ATOM     10  C   UNL     1       1.934   8.692  18.030  0.00  0.00    +0.000 A 
ATOM     11  C   UNL     1       1.352   9.324  19.123  0.00  0.00    +0.000 A 
ATOM     12  C   UNL     1       0.747  10.588  18.983  0.00  0.00    +0.000 A 
ATOM     13  C   UNL     1       0.137  11.215  20.068  0.00  0.00    +0.000 A 
ATOM     14  C   UNL     1       0.216  10.622  21.323  0.00  0.00    +0.000 A 
ATOM     15  C   UNL     1       0.826   9.367  21.475  0.00  0.00    +0.000 A 
ATOM     16  C   UNL     1       1.344   8.654  20.366  0.00  0.00    +0.000 A 
ATOM     17  C   UNL     1       1.796   7.297  20.430  0.00  0.00    +0.000 A 
ENDBRANCH   1   8
BRANCH   1  19
ATOM     18  O   UNL     1       4.355   3.791  20.091  0.00  0.00    +0.000 OA
ATOM     19  C   UNL     1       3.897   4.673  19.373  0.00  0.00    +0.000 C 
BRANCH  19  20
ATOM     20  O   UNL     1       4.659   5.594  18.698  0.00  0.00    +0.000 OA
BRANCH  20  21
ATOM     21  C   UNL     1       5.997   5.261  18.273  0.00  0.00    +0.000 C 
BRANCH  21  22
ATOM     22  C   UNL     1       6.156   4.803  16.831  0.00  0.00    +0.000 A 
ATOM     23  C   UNL     1       5.207   3.937  16.261  0.00  0.00    +0.000 A 
ATOM     24  C   UNL     1       5.254   3.603  14.904  0.00  0.00    +0.000 A 
ATOM     25  C   UNL     1       6.266   4.126  14.094  0.00  0.00    +0.000 A 
ATOM     26  C   UNL     1       7.236   4.977  14.639  0.00  0.00    +0.000 A 
ATOM     27  C   UNL     1       7.177   5.307  16.003  0.00  0.00    +0.000 A 
BRANCH  25  28
ATOM     28  N   UNL     1       6.299   3.807  12.657  0.00  0.00    +0.000 N 
ATOM     29  O   UNL     1       5.337   3.165  12.178  0.00  0.00    +0.000 OA
ATOM     30  O   UNL     1       7.272   4.184  12.000  0.00  0.00    +0.000 OA
ENDBRANCH  25  28
ENDBRANCH  21  22
ENDBRANCH  20  21
ENDBRANCH  19  20
ENDBRANCH   1  19
TORSDOF 6
ENDMDL
MODEL 7
REMARK VINA RESULT:      -8.8      2.200      2.776
REMARK  Name = 
REMARK  6 active torsions:
REMARK  status: ('A' for Active; 'I' for Inactive)
REMARK    1  A    between atoms: C_2  and  O_3
REMARK    2  A    between atoms: C_2  and  C_14
REMARK    3  A    between atoms: O_3  and  C_4
REMARK    4  A    between atoms: C_4  and  C_5
REMARK    5  A    between atoms: C_8  and  N_9
REMARK    6  A    between atoms: C_14  and  C_15
REMARK                            x       y       z     vdW  Elec       q    Type
REMARK                         _______ _______ _______ _____ _____    ______ ____
ROOT
ATOM      1  C   UNL     1       2.109   4.662  19.463  0.00  0.00    +0.000 C 
ATOM      2  C   UNL     1       3.338   4.078  20.230  0.00  0.00    +0.000 C 
ATOM      3  C   UNL     1       3.291   2.576  20.556  0.00  0.00    +0.000 C 
ATOM      4  N   UNL     1       2.048   2.184  21.202  0.00  0.00    +0.000 NA
ATOM      5  C   UNL     1       0.899   2.616  20.420  0.00  0.00    +0.000 C 
ATOM      6  C   UNL     1       0.875   4.141  20.251  0.00  0.00    +0.000 C 
ATOM      7  H   UNL     1       2.012   2.577  22.143  0.00  0.00    +0.000 HD
ENDROOT
BRANCH   1   8
ATOM      8  C   UNL     1       2.108   6.239  19.361  0.00  0.00    +0.000 A 
ATOM      9  C   UNL     1       2.310   6.870  18.117  0.00  0.00    +0.000 A 
ATOM     10  C   UNL     1       2.031   8.225  17.901  0.00  0.00    +0.000 A 
ATOM     11  C   UNL     1       1.521   9.018  18.922  0.00  0.00    +0.000 A 
ATOM     12  C   UNL     1       1.041  10.315  18.654  0.00  0.00    +0.000 A 
ATOM     13  C   UNL     1       0.503  11.105  19.667  0.00  0.00    +0.000 A 
ATOM     14  C   UNL     1       0.533  10.638  20.976  0.00  0.00    +0.000 A 
ATOM     15  C   UNL     1       1.019   9.351  21.256  0.00  0.00    +0.000 A 
ATOM     16  C   UNL     1       1.457   8.482  20.227  0.00  0.00    +0.000 A 
ATOM     17  C   UNL     1       1.775   7.101  20.430  0.00  0.00    +0.000 A 
ENDBRANCH   1   8
BRANCH   1  19
ATOM     18  O   UNL     1       1.068   4.253  17.237  0.00  0.00    +0.000 OA
ATOM     19  C   UNL     1       2.011   4.082  18.000  0.00  0.00    +0.000 C 
BRANCH  19  20
ATOM     20  O   UNL     1       3.065   3.238  17.749  0.00  0.00    +0.000 OA
BRANCH  20  21
ATOM     21  C   UNL     1       4.071   3.598  16.780  0.00  0.00    +0.000 C 
BRANCH  21  22
ATOM     22  C   UNL     1       5.012   4.730  17.168  0.00  0.00    +0.000 A 
ATOM     23  C   UNL     1       6.110   4.473  18.005  0.00  0.00    +0.000 A 
ATOM     24  C   UNL     1       7.063   5.460  18.273  0.00  0.00    +0.000 A 
ATOM     25  C   UNL     1       6.923   6.732  17.711  0.00  0.00    +0.000 A 
ATOM     26  C   UNL     1       5.829   7.022  16.887  0.00  0.00    +0.000 A 
ATOM     27  C   UNL     1       4.879   6.021  16.623  0.00  0.00    +0.000 A 
BRANCH  25  28
ATOM     28  N   UNL     1       7.943   7.765  17.959  0.00  0.00    +0.000 N 
ATOM     29  O   UNL     1       8.052   8.692  17.124  0.00  0.00    +0.000 OA
ATOM     30  O   UNL     1       8.639   7.662  18.972  0.00  0.00    +0.000 OA
ENDBRANCH  25  28
ENDBRANCH  21  22
ENDBRANCH  20  21
ENDBRANCH  19  20
ENDBRANCH   1  19
TORSDOF 6
ENDMDL
MODEL 8
REMARK VINA RESULT:      -8.6      1.365      1.715
REMARK  Name = 
REMARK  6 active torsions:
REMARK  status: ('A' for Active; 'I' for Inactive)
REMARK    1  A    between atoms: C_2  and  O_3
REMARK    2  A    between atoms: C_2  and  C_14
REMARK    3  A    between atoms: O_3  and  C_4
REMARK    4  A    between atoms: C_4  and  C_5
REMARK    5  A    between atoms: C_8  and  N_9
REMARK    6  A    between atoms: C_14  and  C_15
REMARK                            x       y       z     vdW  Elec       q    Type
REMARK                         _______ _______ _______ _____ _____    ______ ____
ROOT
ATOM      1  C   UNL     1       2.230   4.655  19.696  0.00  0.00    +0.000 C 
ATOM      2  C   UNL     1       3.151   4.169  20.860  0.00  0.00    +0.000 C 
ATOM      3  C   UNL     1       2.990   2.704  21.295  0.00  0.00    +0.000 C 
ATOM      4  N   UNL     1       1.604   2.348  21.555  0.00  0.00    +0.000 NA
ATOM      5  C   UNL     1       0.761   2.683  20.416  0.00  0.00    +0.000 C 
ATOM      6  C   UNL     1       0.806   4.184  20.105  0.00  0.00    +0.000 C 
ATOM      7  H   UNL     1       1.279   2.826  22.396  0.00  0.00    +0.000 HD
ENDROOT
BRANCH   1   8
ATOM      8  C   UNL     1       2.276   6.215  19.450  0.00  0.00    +0.000 A 
ATOM      9  C   UNL     1       2.720   6.725  18.213  0.00  0.00    +0.000 A 
ATOM     10  C   UNL     1       2.512   8.055  17.824  0.00  0.00    +0.000 A 
ATOM     11  C   UNL     1       1.833   8.941  18.653  0.00  0.00    +0.000 A 
ATOM     12  C   UNL     1       1.436  10.206  18.179  0.00  0.00    +0.000 A 
ATOM     13  C   UNL     1       0.731  11.088  18.995  0.00  0.00    +0.000 A 
ATOM     14  C   UNL     1       0.506  10.747  20.323  0.00  0.00    +0.000 A 
ATOM     15  C   UNL     1       0.907   9.492  20.809  0.00  0.00    +0.000 A 
ATOM     16  C   UNL     1       1.514   8.530  19.966  0.00  0.00    +0.000 A 
ATOM     17  C   UNL     1       1.764   7.174  20.352  0.00  0.00    +0.000 A 
ENDBRANCH   1   8
BRANCH   1  19
ATOM     18  O   UNL     1       1.832   3.826  17.380  0.00  0.00    +0.000 OA
ATOM     19  C   UNL     1       2.589   3.939  18.338  0.00  0.00    +0.000 C 
BRANCH  19  20
ATOM     20  O   UNL     1       3.817   3.333  18.426  0.00  0.00    +0.000 OA
BRANCH  20  21
ATOM     21  C   UNL     1       5.022   4.126  18.425  0.00  0.00    +0.000 C 
BRANCH  21  22
ATOM     22  C   UNL     1       5.620   4.448  17.063  0.00  0.00    +0.000 A 
ATOM     23  C   UNL     1       6.944   4.910  16.970  0.00  0.00    +0.000 A 
ATOM     24  C   UNL     1       7.563   5.091  15.729  0.00  0.00    +0.000 A 
ATOM     25  C   UNL     1       6.856   4.818  14.554  0.00  0.00    +0.000 A 
ATOM     26  C   UNL     1       5.530   4.373  14.616  0.00  0.00    +0.000 A 
ATOM     27  C   UNL     1       4.920   4.194  15.868  0.00  0.00    +0.000 A 
BRANCH  25  28
ATOM     28  N   UNL     1       7.514   4.970  13.246  0.00  0.00    +0.000 N 
ATOM     29  O   UNL     1       8.463   5.784  13.159  0.00  0.00    +0.000 OA
ATOM     30  O   UNL     1       7.097   4.294  12.303  0.00  0.00    +0.000 OA
ENDBRANCH  25  28
ENDBRANCH  21  22
ENDBRANCH  20  21
ENDBRANCH  19  20
ENDBRANCH   1  19
TORSDOF 6
ENDMDL
MODEL 9
REMARK VINA RESULT:      -8.6      0.924      1.160
REMARK  Name = 
REMARK  6 active torsions:
REMARK  status: ('A' for Active; 'I' for Inactive)
REMARK    1  A    between atoms: C_2  and  O_3
REMARK    2  A    between atoms: C_2  and  C_14
REMARK    3  A    between atoms: O_3  and  C_4
REMARK    4  A    between atoms: C_4  and  C_5
REMARK    5  A    between atoms: C_8  and  N_9
REMARK    6  A    between atoms: C_14  and  C_15
REMARK                            x       y       z     vdW  Elec       q    Type
REMARK                         _______ _______ _______ _____ _____    ______ ____
ROOT
ATOM      1  C   UNL     1       2.130   4.919  19.333  0.00  0.00    +0.000 C 
ATOM      2  C   UNL     1       1.022   4.264  20.216  0.00  0.00    +0.000 C 
ATOM      3  C   UNL     1       0.842   2.744  20.074  0.00  0.00    +0.000 C 
ATOM      4  N   UNL     1       0.708   2.324  18.688  0.00  0.00    +0.000 NA
ATOM      5  C   UNL     1       1.814   2.828  17.885  0.00  0.00    +0.000 C 
ATOM      6  C   UNL     1       1.871   4.361  17.906  0.00  0.00    +0.000 C 
ATOM      7  H   UNL     1      -0.184   2.650  18.316  0.00  0.00    +0.000 HD
ENDROOT
BRANCH   1   8
ATOM      8  C   UNL     1       2.113   6.499  19.349  0.00  0.00    +0.000 A 
ATOM      9  C   UNL     1       2.416   7.224  18.179  0.00  0.00    +0.000 A 
ATOM     10  C   UNL     1       2.137   8.590  18.041  0.00  0.00    +0.000 A 
ATOM     11  C   UNL     1       1.524   9.298  19.068  0.00  0.00    +0.000 A 
ATOM     12  C   UNL     1       1.050  10.607  18.855  0.00  0.00    +0.000 A 
ATOM     13  C   UNL     1       0.411  11.313  19.872  0.00  0.00    +0.000 A 
ATOM     14  C   UNL     1       0.330  10.748  21.139  0.00  0.00    +0.000 A 
ATOM     15  C   UNL     1       0.810   9.448  21.365  0.00  0.00    +0.000 A 
ATOM     16  C   UNL     1       1.351   8.664  20.318  0.00  0.00    +0.000 A 
ATOM     17  C   UNL     1       1.672   7.274  20.445  0.00  0.00    +0.000 A 
ENDBRANCH   1   8
BRANCH   1  19
ATOM     18  O   UNL     1       3.836   3.872  20.817  0.00  0.00    +0.000 OA
ATOM     19  C   UNL     1       3.570   4.446  19.767  0.00  0.00    +0.000 C 
BRANCH  19  20
ATOM     20  O   UNL     1       4.510   4.892  18.871  0.00  0.00    +0.000 OA
BRANCH  20  21
ATOM     21  C   UNL     1       5.426   3.964  18.254  0.00  0.00    +0.000 C 
BRANCH  21  22
ATOM     22  C   UNL     1       5.940   4.336  16.871  0.00  0.00    +0.000 A 
ATOM     23  C   UNL     1       6.865   5.384  16.725  0.00  0.00    +0.000 A 
ATOM     24  C   UNL     1       7.453   5.665  15.488  0.00  0.00    +0.000 A 
ATOM     25  C   UNL     1       7.112   4.900  14.367  0.00  0.00    +0.000 A 
ATOM     26  C   UNL     1       6.180   3.861  14.480  0.00  0.00    +0.000 A 
ATOM     27  C   UNL     1       5.598   3.588  15.729  0.00  0.00    +0.000 A 
BRANCH  25  28
ATOM     28  N   UNL     1       7.756   5.167  13.070  0.00  0.00    +0.000 N 
ATOM     29  O   UNL     1       7.358   4.516  12.076  0.00  0.00    +0.000 OA
ATOM     30  O   UNL     1       8.653   6.011  13.029  0.00  0.00    +0.000 OA
ENDBRANCH  25  28
ENDBRANCH  21  22
ENDBRANCH  20  21
ENDBRANCH  19  20
ENDBRANCH   1  19
TORSDOF 6
ENDMDL
