MODEL 1
REMARK VINA RESULT:      -7.5      0.000      0.000
REMARK  Name = 
REMARK  6 active torsions:
REMARK  status: ('A' for Active; 'I' for Inactive)
REMARK    1  A    between atoms: C_1  and  C_2
REMARK    2  A    between atoms: C_7  and  C_8
REMARK    3  A    between atoms: C_13  and  C_14
REMARK    4  A    between atoms: N_17  and  C_18
REMARK    5  A    between atoms: C_18  and  C_19
REMARK    6  A    between atoms: C_19  and  C_20
REMARK                            x       y       z     vdW  Elec       q    Type
REMARK                         _______ _______ _______ _____ _____    ______ ____
ROOT
ATOM      1  C   UNL     1       2.619   5.928  19.992  0.00  0.00    +0.000 C 
ATOM      2  O   UNL     1       2.328   5.327  21.023  0.00  0.00    +0.000 OA
ATOM      3  N   UNL     1       2.125   7.231  19.709  0.00  0.00    +0.000 N 
ATOM      4  C   UNL     1       1.482   7.981  20.788  0.00  0.00    +0.000 C 
ATOM      5  C   UNL     1       0.321   8.843  20.284  0.00  0.00    +0.000 C 
ATOM      6  C   UNL     1       0.691   9.755  19.091  0.00  0.00    +0.000 C 
ATOM      7  C   UNL     1       1.305   8.860  18.011  0.00  0.00    +0.000 C 
ATOM      8  C   UNL     1       2.468   8.016  18.518  0.00  0.00    +0.000 C 
ENDROOT
BRANCH   1  15
ATOM      9  C   UNL     1       1.584   4.218  17.628  0.00  0.00    +0.000 C 
ATOM     10  C   UNL     1       3.031   4.515  17.882  0.00  0.00    +0.000 A 
ATOM     11  C   UNL     1       3.977   4.007  16.973  0.00  0.00    +0.000 A 
ATOM     12  C   UNL     1       5.334   4.254  17.150  0.00  0.00    +0.000 A 
ATOM     13  C   UNL     1       5.720   4.949  18.274  0.00  0.00    +0.000 A 
ATOM     14  N   UNL     1       4.856   5.400  19.202  0.00  0.00    +0.000 NA
ATOM     15  C   UNL     1       3.523   5.236  18.976  0.00  0.00    +0.000 A 
ENDBRANCH   1  15
BRANCH   6  16
ATOM     16  C   UNL     1       1.575  10.965  19.496  0.00  0.00    +0.000 C 
ATOM     17  C   UNL     1       1.863  11.982  18.386  0.00  0.00    +0.000 C 
ATOM     18  C   UNL     1       1.963  13.303  19.141  0.00  0.00    +0.000 C 
ATOM     19  N   UNL     1       0.917  13.224  20.174  0.00  0.00    +0.000 NA
ATOM     20  C   UNL     1       0.936  11.817  20.610  0.00  0.00    +0.000 C 
BRANCH  19  21
ATOM     21  C   UNL     1      -0.396  13.645  19.641  0.00  0.00    +0.000 C 
BRANCH  21  22
ATOM     22  C   UNL     1      -1.587  12.827  20.182  0.00  0.00    +0.000 C 
BRANCH  22  23
ATOM     23  C   UNL     1      -2.391  12.206  19.062  0.00  0.00    +0.000 A 
ATOM     24  C   UNL     1      -1.756  11.760  17.894  0.00  0.00    +0.000 A 
ATOM     25  C   UNL     1      -2.501  11.219  16.845  0.00  0.00    +0.000 A 
ATOM     26  C   UNL     1      -3.888  11.121  16.955  0.00  0.00    +0.000 A 
ATOM     27  C   UNL     1      -4.527  11.554  18.114  0.00  0.00    +0.000 A 
ATOM     28  C   UNL     1      -3.783  12.096  19.164  0.00  0.00    +0.000 A 
ENDBRANCH  22  23
ENDBRANCH  21  22
ENDBRANCH  19  21
ENDBRANCH   6  16
TORSDOF 5
ENDMDL
MODEL 2
REMARK VINA RESULT:      -7.4      0.412      1.007
REMARK  Name = 
REMARK  6 active torsions:
REMARK  status: ('A' for Active; 'I' for Inactive)
REMARK    1  A    between atoms: C_1  and  C_2
REMARK    2  A    between atoms: C_7  and  C_8
REMARK    3  A    between atoms: C_13  and  C_14
REMARK    4  A    between atoms: N_17  and  C_18
REMARK    5  A    between atoms: C_18  and  C_19
REMARK    6  A    between atoms: C_19  and  C_20
REMARK                            x       y       z     vdW  Elec       q    Type
REMARK                         _______ _______ _______ _____ _____    ______ ____
ROOT
ATOM      1  C   UNL     1       2.421   6.093  19.964  0.00  0.00    +0.000 C 
ATOM      2  O   UNL     1       2.026   5.515  20.974  0.00  0.00    +0.000 OA
ATOM      3  N   UNL     1       2.019   7.418  19.644  0.00  0.00    +0.000 N 
ATOM      4  C   UNL     1       1.344   8.209  20.673  0.00  0.00    +0.000 C 
ATOM      5  C   UNL     1       0.270   9.129  20.088  0.00  0.00    +0.000 C 
ATOM      6  C   UNL     1       0.770  10.012  18.920  0.00  0.00    +0.000 C 
ATOM      7  C   UNL     1       1.408   9.078  17.888  0.00  0.00    +0.000 C 
ATOM      8  C   UNL     1       2.486   8.175  18.477  0.00  0.00    +0.000 C 
ENDROOT
BRANCH   1  15
ATOM      9  C   UNL     1       1.454   4.290  17.640  0.00  0.00    +0.000 C 
ATOM     10  C   UNL     1       2.894   4.582  17.936  0.00  0.00    +0.000 A 
ATOM     11  C   UNL     1       3.867   4.023  17.088  0.00  0.00    +0.000 A 
ATOM     12  C   UNL     1       5.220   4.263  17.306  0.00  0.00    +0.000 A 
ATOM     13  C   UNL     1       5.572   5.004  18.411  0.00  0.00    +0.000 A 
ATOM     14  N   UNL     1       4.679   5.506  19.285  0.00  0.00    +0.000 NA
ATOM     15  C   UNL     1       3.354   5.346  19.015  0.00  0.00    +0.000 A 
ENDBRANCH   1  15
BRANCH   6  16
ATOM     16  C   UNL     1       1.688  11.175  19.383  0.00  0.00    +0.000 C 
ATOM     17  C   UNL     1       1.882  12.313  18.374  0.00  0.00    +0.000 C 
ATOM     18  C   UNL     1       2.049  13.541  19.262  0.00  0.00    +0.000 C 
ATOM     19  N   UNL     1       1.097  13.338  20.366  0.00  0.00    +0.000 NA
ATOM     20  C   UNL     1       1.151  11.891  20.636  0.00  0.00    +0.000 C 
BRANCH  19  21
ATOM     21  C   UNL     1      -0.256  13.807  19.999  0.00  0.00    +0.000 C 
BRANCH  21  22
ATOM     22  C   UNL     1      -1.400  13.003  20.652  0.00  0.00    +0.000 C 
BRANCH  22  23
ATOM     23  C   UNL     1      -2.372  12.477  19.620  0.00  0.00    +0.000 A 
ATOM     24  C   UNL     1      -3.751  12.482  19.874  0.00  0.00    +0.000 A 
ATOM     25  C   UNL     1      -4.646  11.964  18.937  0.00  0.00    +0.000 A 
ATOM     26  C   UNL     1      -4.170  11.437  17.738  0.00  0.00    +0.000 A 
ATOM     27  C   UNL     1      -2.802  11.434  17.472  0.00  0.00    +0.000 A 
ATOM     28  C   UNL     1      -1.906  11.951  18.409  0.00  0.00    +0.000 A 
ENDBRANCH  22  23
ENDBRANCH  21  22
ENDBRANCH  19  21
ENDBRANCH   6  16
TORSDOF 5
ENDMDL
MODEL 3
REMARK VINA RESULT:      -7.2      2.238      3.491
REMARK  Name = 
REMARK  6 active torsions:
REMARK  status: ('A' for Active; 'I' for Inactive)
REMARK    1  A    between atoms: C_1  and  C_2
REMARK    2  A    between atoms: C_7  and  C_8
REMARK    3  A    between atoms: C_13  and  C_14
REMARK    4  A    between atoms: N_17  and  C_18
REMARK    5  A    between atoms: C_18  and  C_19
REMARK    6  A    between atoms: C_19  and  C_20
REMARK                            x       y       z     vdW  Elec       q    Type
REMARK                         _______ _______ _______ _____ _____    ______ ____
ROOT
ATOM      1  C   UNL     1       2.397   6.194  19.868  0.00  0.00    +0.000 C 
ATOM      2  O   UNL     1       1.982   5.679  20.904  0.00  0.00    +0.000 OA
ATOM      3  N   UNL     1       2.067   7.527  19.500  0.00  0.00    +0.000 N 
ATOM      4  C   UNL     1       1.451   8.394  20.504  0.00  0.00    +0.000 C 
ATOM      5  C   UNL     1       0.424   9.351  19.894  0.00  0.00    +0.000 C 
ATOM      6  C   UNL     1       0.961  10.158  18.688  0.00  0.00    +0.000 C 
ATOM      7  C   UNL     1       1.532   9.150  17.687  0.00  0.00    +0.000 C 
ATOM      8  C   UNL     1       2.563   8.211  18.300  0.00  0.00    +0.000 C 
ENDROOT
BRANCH   1  15
ATOM      9  C   UNL     1       1.304   4.396  17.597  0.00  0.00    +0.000 C 
ATOM     10  C   UNL     1       2.762   4.598  17.884  0.00  0.00    +0.000 A 
ATOM     11  C   UNL     1       3.692   3.950  17.051  0.00  0.00    +0.000 A 
ATOM     12  C   UNL     1       5.059   4.103  17.262  0.00  0.00    +0.000 A 
ATOM     13  C   UNL     1       5.463   4.850  18.346  0.00  0.00    +0.000 A 
ATOM     14  N   UNL     1       4.608   5.435  19.205  0.00  0.00    +0.000 NA
ATOM     15  C   UNL     1       3.274   5.359  18.940  0.00  0.00    +0.000 A 
ENDBRANCH   1  15
BRANCH   6  16
ATOM     16  C   UNL     1       1.949  11.284  19.095  0.00  0.00    +0.000 C 
ATOM     17  C   UNL     1       2.395  12.221  17.967  0.00  0.00    +0.000 C 
ATOM     18  C   UNL     1       2.600  13.552  18.681  0.00  0.00    +0.000 C 
ATOM     19  N   UNL     1       1.506  13.624  19.664  0.00  0.00    +0.000 NA
ATOM     20  C   UNL     1       1.355  12.241  20.147  0.00  0.00    +0.000 C 
BRANCH  19  21
ATOM     21  C   UNL     1       0.271  14.160  19.052  0.00  0.00    +0.000 C 
BRANCH  21  22
ATOM     22  C   UNL     1      -0.103  15.579  19.528  0.00  0.00    +0.000 C 
BRANCH  22  23
ATOM     23  C   UNL     1       0.245  16.624  18.492  0.00  0.00    +0.000 A 
ATOM     24  C   UNL     1      -0.766  17.365  17.863  0.00  0.00    +0.000 A 
ATOM     25  C   UNL     1      -0.449  18.304  16.881  0.00  0.00    +0.000 A 
ATOM     26  C   UNL     1       0.882  18.510  16.519  0.00  0.00    +0.000 A 
ATOM     27  C   UNL     1       1.894  17.785  17.144  0.00  0.00    +0.000 A 
ATOM     28  C   UNL     1       1.578  16.845  18.125  0.00  0.00    +0.000 A 
ENDBRANCH  22  23
ENDBRANCH  21  22
ENDBRANCH  19  21
ENDBRANCH   6  16
TORSDOF 5
ENDMDL
MODEL 4
REMARK VINA RESULT:      -6.8      2.042      3.137
REMARK  Name = 
REMARK  6 active torsions:
REMARK  status: ('A' for Active; 'I' for Inactive)
REMARK    1  A    between atoms: C_1  and  C_2
REMARK    2  A    between atoms: C_7  and  C_8
REMARK    3  A    between atoms: C_13  and  C_14
REMARK    4  A    between atoms: N_17  and  C_18
REMARK    5  A    between atoms: C_18  and  C_19
REMARK    6  A    between atoms: C_19  and  C_20
REMARK                            x       y       z     vdW  Elec       q    Type
REMARK                         _______ _______ _______ _____ _____    ______ ____
ROOT
ATOM      1  C   UNL     1       2.440   6.093  19.940  0.00  0.00    +0.000 C 
ATOM      2  O   UNL     1       2.061   5.517  20.957  0.00  0.00    +0.000 OA
ATOM      3  N   UNL     1       2.025   7.415  19.621  0.00  0.00    +0.000 N 
ATOM      4  C   UNL     1       1.358   8.205  20.655  0.00  0.00    +0.000 C 
ATOM      5  C   UNL     1       0.270   9.116  20.080  0.00  0.00    +0.000 C 
ATOM      6  C   UNL     1       0.751   9.998  18.904  0.00  0.00    +0.000 C 
ATOM      7  C   UNL     1       1.382   9.065  17.867  0.00  0.00    +0.000 C 
ATOM      8  C   UNL     1       2.473   8.172  18.446  0.00  0.00    +0.000 C 
ENDROOT
BRANCH   1  15
ATOM      9  C   UNL     1       1.457   4.268  17.641  0.00  0.00    +0.000 C 
ATOM     10  C   UNL     1       2.899   4.576  17.915  0.00  0.00    +0.000 A 
ATOM     11  C   UNL     1       3.865   4.021  17.056  0.00  0.00    +0.000 A 
ATOM     12  C   UNL     1       5.219   4.274  17.253  0.00  0.00    +0.000 A 
ATOM     13  C   UNL     1       5.579   5.025  18.350  0.00  0.00    +0.000 A 
ATOM     14  N   UNL     1       4.694   5.524  19.233  0.00  0.00    +0.000 NA
ATOM     15  C   UNL     1       3.366   5.350  18.982  0.00  0.00    +0.000 A 
ENDBRANCH   1  15
BRANCH   6  16
ATOM     16  C   UNL     1       1.666  11.169  19.352  0.00  0.00    +0.000 C 
ATOM     17  C   UNL     1       1.424  12.511  18.651  0.00  0.00    +0.000 C 
ATOM     18  C   UNL     1       1.766  13.533  19.729  0.00  0.00    +0.000 C 
ATOM     19  N   UNL     1       1.244  12.952  20.976  0.00  0.00    +0.000 NA
ATOM     20  C   UNL     1       1.506  11.508  20.846  0.00  0.00    +0.000 C 
BRANCH  19  21
ATOM     21  C   UNL     1      -0.190  13.264  21.155  0.00  0.00    +0.000 C 
BRANCH  21  22
ATOM     22  C   UNL     1      -0.967  12.211  21.972  0.00  0.00    +0.000 C 
BRANCH  22  23
ATOM     23  C   UNL     1      -1.851  12.856  23.015  0.00  0.00    +0.000 A 
ATOM     24  C   UNL     1      -3.060  12.254  23.393  0.00  0.00    +0.000 A 
ATOM     25  C   UNL     1      -3.893  12.867  24.330  0.00  0.00    +0.000 A 
ATOM     26  C   UNL     1      -3.526  14.087  24.896  0.00  0.00    +0.000 A 
ATOM     27  C   UNL     1      -2.324  14.689  24.533  0.00  0.00    +0.000 A 
ATOM     28  C   UNL     1      -1.489  14.078  23.595  0.00  0.00    +0.000 A 
ENDBRANCH  22  23
ENDBRANCH  21  22
ENDBRANCH  19  21
ENDBRANCH   6  16
TORSDOF 5
ENDMDL
MODEL 5
REMARK VINA RESULT:      -6.8      1.395      2.213
REMARK  Name = 
REMARK  6 active torsions:
REMARK  status: ('A' for Active; 'I' for Inactive)
REMARK    1  A    between atoms: C_1  and  C_2
REMARK    2  A    between atoms: C_7  and  C_8
REMARK    3  A    between atoms: C_13  and  C_14
REMARK    4  A    between atoms: N_17  and  C_18
REMARK    5  A    between atoms: C_18  and  C_19
REMARK    6  A    between atoms: C_19  and  C_20
REMARK                            x       y       z     vdW  Elec       q    Type
REMARK                         _______ _______ _______ _____ _____    ______ ____
ROOT
ATOM      1  C   UNL     1       2.472   6.106  19.989  0.00  0.00    +0.000 C 
ATOM      2  O   UNL     1       2.102   5.511  20.999  0.00  0.00    +0.000 OA
ATOM      3  N   UNL     1       2.031   7.422  19.681  0.00  0.00    +0.000 N 
ATOM      4  C   UNL     1       1.344   8.187  20.721  0.00  0.00    +0.000 C 
ATOM      5  C   UNL     1       0.239   9.081  20.150  0.00  0.00    +0.000 C 
ATOM      6  C   UNL     1       0.705   9.984  18.984  0.00  0.00    +0.000 C 
ATOM      7  C   UNL     1       1.360   9.075  17.941  0.00  0.00    +0.000 C 
ATOM      8  C   UNL     1       2.467   8.199  18.516  0.00  0.00    +0.000 C 
ENDROOT
BRANCH   1  15
ATOM      9  C   UNL     1       1.535   4.323  17.638  0.00  0.00    +0.000 C 
ATOM     10  C   UNL     1       2.971   4.637  17.938  0.00  0.00    +0.000 A 
ATOM     11  C   UNL     1       3.953   4.109  17.080  0.00  0.00    +0.000 A 
ATOM     12  C   UNL     1       5.301   4.369  17.301  0.00  0.00    +0.000 A 
ATOM     13  C   UNL     1       5.641   5.099  18.418  0.00  0.00    +0.000 A 
ATOM     14  N   UNL     1       4.740   5.570  19.300  0.00  0.00    +0.000 NA
ATOM     15  C   UNL     1       3.417   5.392  19.028  0.00  0.00    +0.000 A 
ENDBRANCH   1  15
BRANCH   6  16
ATOM     16  C   UNL     1       1.595  11.170  19.447  0.00  0.00    +0.000 C 
ATOM     17  C   UNL     1       1.725  12.332  18.456  0.00  0.00    +0.000 C 
ATOM     18  C   UNL     1       1.873  13.548  19.363  0.00  0.00    +0.000 C 
ATOM     19  N   UNL     1       0.956  13.293  20.486  0.00  0.00    +0.000 NA
ATOM     20  C   UNL     1       1.064  11.844  20.727  0.00  0.00    +0.000 C 
BRANCH  19  21
ATOM     21  C   UNL     1      -0.422  13.722  20.160  0.00  0.00    +0.000 C 
BRANCH  21  22
ATOM     22  C   UNL     1      -1.442  12.566  20.095  0.00  0.00    +0.000 C 
BRANCH  22  23
ATOM     23  C   UNL     1      -2.488  12.684  21.181  0.00  0.00    +0.000 A 
ATOM     24  C   UNL     1      -2.149  12.452  22.522  0.00  0.00    +0.000 A 
ATOM     25  C   UNL     1      -3.120  12.526  23.521  0.00  0.00    +0.000 A 
ATOM     26  C   UNL     1      -4.439  12.832  23.188  0.00  0.00    +0.000 A 
ATOM     27  C   UNL     1      -4.784  13.072  21.860  0.00  0.00    +0.000 A 
ATOM     28  C   UNL     1      -3.814  12.997  20.859  0.00  0.00    +0.000 A 
ENDBRANCH  22  23
ENDBRANCH  21  22
ENDBRANCH  19  21
ENDBRANCH   6  16
TORSDOF 5
ENDMDL
MODEL 6
REMARK VINA RESULT:      -6.6      2.867      9.128
REMARK  Name = 
REMARK  6 active torsions:
REMARK  status: ('A' for Active; 'I' for Inactive)
REMARK    1  A    between atoms: C_1  and  C_2
REMARK    2  A    between atoms: C_7  and  C_8
REMARK    3  A    between atoms: C_13  and  C_14
REMARK    4  A    between atoms: N_17  and  C_18
REMARK    5  A    between atoms: C_18  and  C_19
REMARK    6  A    between atoms: C_19  and  C_20
REMARK                            x       y       z     vdW  Elec       q    Type
REMARK                         _______ _______ _______ _____ _____    ______ ____
ROOT
ATOM      1  C   UNL     1       0.779   9.700  19.242  0.00  0.00    +0.000 C 
ATOM      2  O   UNL     1       0.421  10.398  18.296  0.00  0.00    +0.000 OA
ATOM      3  N   UNL     1       1.652   8.591  19.077  0.00  0.00    +0.000 N 
ATOM      4  C   UNL     1       2.357   8.443  17.804  0.00  0.00    +0.000 C 
ATOM      5  C   UNL     1       2.523   6.976  17.397  0.00  0.00    +0.000 C 
ATOM      6  C   UNL     1       3.140   6.087  18.503  0.00  0.00    +0.000 C 
ATOM      7  C   UNL     1       2.296   6.284  19.765  0.00  0.00    +0.000 C 
ATOM      8  C   UNL     1       2.148   7.746  20.169  0.00  0.00    +0.000 C 
ENDROOT
BRANCH   1  15
ATOM      9  C   UNL     1       0.594  12.565  20.399  0.00  0.00    +0.000 C 
ATOM     10  C   UNL     1       0.117  11.336  21.113  0.00  0.00    +0.000 A 
ATOM     11  C   UNL     1      -0.476  11.498  22.379  0.00  0.00    +0.000 A 
ATOM     12  C   UNL     1      -0.944  10.398  23.089  0.00  0.00    +0.000 A 
ATOM     13  C   UNL     1      -0.747   9.149  22.543  0.00  0.00    +0.000 A 
ATOM     14  N   UNL     1      -0.128   8.942  21.365  0.00  0.00    +0.000 NA
ATOM     15  C   UNL     1       0.244  10.028  20.633  0.00  0.00    +0.000 A 
ENDBRANCH   1  15
BRANCH   6  16
ATOM     16  C   UNL     1       4.659   6.330  18.706  0.00  0.00    +0.000 C 
ATOM     17  C   UNL     1       5.414   5.235  19.468  0.00  0.00    +0.000 C 
ATOM     18  C   UNL     1       6.803   5.268  18.842  0.00  0.00    +0.000 C 
ATOM     19  N   UNL     1       6.563   5.501  17.408  0.00  0.00    +0.000 NA
ATOM     20  C   UNL     1       5.425   6.436  17.373  0.00  0.00    +0.000 C 
BRANCH  19  21
ATOM     21  C   UNL     1       6.290   4.233  16.698  0.00  0.00    +0.000 C 
BRANCH  21  22
ATOM     22  C   UNL     1       5.283   4.366  15.536  0.00  0.00    +0.000 C 
BRANCH  22  23
ATOM     23  C   UNL     1       5.974   4.319  14.192  0.00  0.00    +0.000 A 
ATOM     24  C   UNL     1       5.510   3.461  13.184  0.00  0.00    +0.000 A 
ATOM     25  C   UNL     1       6.169   3.390  11.956  0.00  0.00    +0.000 A 
ATOM     26  C   UNL     1       7.297   4.176  11.725  0.00  0.00    +0.000 A 
ATOM     27  C   UNL     1       7.761   5.037  12.717  0.00  0.00    +0.000 A 
ATOM     28  C   UNL     1       7.104   5.108  13.946  0.00  0.00    +0.000 A 
ENDBRANCH  22  23
ENDBRANCH  21  22
ENDBRANCH  19  21
ENDBRANCH   6  16
TORSDOF 5
ENDMDL
MODEL 7
REMARK VINA RESULT:      -6.5      1.991      8.516
REMARK  Name = 
REMARK  6 active torsions:
REMARK  status: ('A' for Active; 'I' for Inactive)
REMARK    1  A    between atoms: C_1  and  C_2
REMARK    2  A    between atoms: C_7  and  C_8
REMARK    3  A    between atoms: C_13  and  C_14
REMARK    4  A    between atoms: N_17  and  C_18
REMARK    5  A    between atoms: C_18  and  C_19
REMARK    6  A    between atoms: C_19  and  C_20
REMARK                            x       y       z     vdW  Elec       q    Type
REMARK                         _______ _______ _______ _____ _____    ______ ____
ROOT
ATOM      1  C   UNL     1       0.712  10.212  20.625  0.00  0.00    +0.000 C 
ATOM      2  O   UNL     1       0.526  10.422  21.821  0.00  0.00    +0.000 OA
ATOM      3  N   UNL     1       1.255   8.989  20.146  0.00  0.00    +0.000 N 
ATOM      4  C   UNL     1       1.336   7.855  21.066  0.00  0.00    +0.000 C 
ATOM      5  C   UNL     1       2.582   6.999  20.826  0.00  0.00    +0.000 C 
ATOM      6  C   UNL     1       2.764   6.559  19.355  0.00  0.00    +0.000 C 
ATOM      7  C   UNL     1       2.713   7.824  18.494  0.00  0.00    +0.000 C 
ATOM      8  C   UNL     1       1.463   8.663  18.730  0.00  0.00    +0.000 C 
ENDROOT
BRANCH   1  15
ATOM      9  C   UNL     1      -1.811  10.210  18.832  0.00  0.00    +0.000 C 
ATOM     10  C   UNL     1      -0.807  11.322  18.870  0.00  0.00    +0.000 A 
ATOM     11  C   UNL     1      -1.040  12.448  18.059  0.00  0.00    +0.000 A 
ATOM     12  C   UNL     1      -0.148  13.515  18.055  0.00  0.00    +0.000 A 
ATOM     13  C   UNL     1       0.994  13.402  18.815  0.00  0.00    +0.000 A 
ATOM     14  N   UNL     1       1.289  12.318  19.557  0.00  0.00    +0.000 NA
ATOM     15  C   UNL     1       0.369  11.316  19.629  0.00  0.00    +0.000 A 
ENDBRANCH   1  15
BRANCH   6  16
ATOM     16  C   UNL     1       1.769   5.450  18.920  0.00  0.00    +0.000 C 
ATOM     17  C   UNL     1       1.872   4.996  17.459  0.00  0.00    +0.000 C 
ATOM     18  C   UNL     1       1.483   3.523  17.524  0.00  0.00    +0.000 C 
ATOM     19  N   UNL     1       2.095   3.028  18.767  0.00  0.00    +0.000 NA
ATOM     20  C   UNL     1       1.952   4.144  19.717  0.00  0.00    +0.000 C 
BRANCH  19  21
ATOM     21  C   UNL     1       3.503   2.631  18.551  0.00  0.00    +0.000 C 
BRANCH  21  22
ATOM     22  C   UNL     1       4.515   3.398  19.427  0.00  0.00    +0.000 C 
BRANCH  22  23
ATOM     23  C   UNL     1       5.397   4.303  18.596  0.00  0.00    +0.000 A 
ATOM     24  C   UNL     1       5.374   4.229  17.196  0.00  0.00    +0.000 A 
ATOM     25  C   UNL     1       6.213   5.038  16.430  0.00  0.00    +0.000 A 
ATOM     26  C   UNL     1       7.083   5.930  17.057  0.00  0.00    +0.000 A 
ATOM     27  C   UNL     1       7.107   6.017  18.447  0.00  0.00    +0.000 A 
ATOM     28  C   UNL     1       6.269   5.207  19.215  0.00  0.00    +0.000 A 
ENDBRANCH  22  23
ENDBRANCH  21  22
ENDBRANCH  19  21
ENDBRANCH   6  16
TORSDOF 5
ENDMDL
MODEL 8
REMARK VINA RESULT:      -6.5      1.990      8.444
REMARK  Name = 
REMARK  6 active torsions:
REMARK  status: ('A' for Active; 'I' for Inactive)
REMARK    1  A    between atoms: C_1  and  C_2
REMARK    2  A    between atoms: C_7  and  C_8
REMARK    3  A    between atoms: C_13  and  C_14
REMARK    4  A    between atoms: N_17  and  C_18
REMARK    5  A    between atoms: C_18  and  C_19
REMARK    6  A    between atoms: C_19  and  C_20
REMARK                            x       y       z     vdW  Elec       q    Type
REMARK                         _______ _______ _______ _____ _____    ______ ____
ROOT
ATOM      1  C   UNL     1       0.140  10.148  20.671  0.00  0.00    +0.000 C 
ATOM      2  O   UNL     1      -0.288  10.316  21.811  0.00  0.00    +0.000 OA
ATOM      3  N   UNL     1       0.847   8.974  20.293  0.00  0.00    +0.000 N 
ATOM      4  C   UNL     1       0.825   7.826  21.199  0.00  0.00    +0.000 C 
ATOM      5  C   UNL     1       2.150   7.058  21.196  0.00  0.00    +0.000 C 
ATOM      6  C   UNL     1       2.642   6.667  19.783  0.00  0.00    +0.000 C 
ATOM      7  C   UNL     1       2.672   7.946  18.943  0.00  0.00    +0.000 C 
ATOM      8  C   UNL     1       1.345   8.696  18.941  0.00  0.00    +0.000 C 
ENDROOT
BRANCH   1  15
ATOM      9  C   UNL     1      -2.076  10.090  18.510  0.00  0.00    +0.000 C 
ATOM     10  C   UNL     1      -1.124  11.230  18.709  0.00  0.00    +0.000 A 
ATOM     11  C   UNL     1      -1.263  12.357  17.878  0.00  0.00    +0.000 A 
ATOM     12  C   UNL     1      -0.414  13.450  18.017  0.00  0.00    +0.000 A 
ATOM     13  C   UNL     1       0.601  13.362  18.943  0.00  0.00    +0.000 A 
ATOM     14  N   UNL     1       0.811  12.280  19.716  0.00  0.00    +0.000 NA
ATOM     15  C   UNL     1      -0.079  11.252  19.640  0.00  0.00    +0.000 A 
ENDBRANCH   1  15
BRANCH   6  16
ATOM     16  C   UNL     1       1.827   5.506  19.151  0.00  0.00    +0.000 C 
ATOM     17  C   UNL     1       1.925   5.375  17.626  0.00  0.00    +0.000 C 
ATOM     18  C   UNL     1       1.796   3.873  17.397  0.00  0.00    +0.000 C 
ATOM     19  N   UNL     1       2.550   3.259  18.502  0.00  0.00    +0.000 NA
ATOM     20  C   UNL     1       2.272   4.123  19.662  0.00  0.00    +0.000 C 
BRANCH  19  21
ATOM     21  C   UNL     1       3.991   3.168  18.182  0.00  0.00    +0.000 C 
BRANCH  21  22
ATOM     22  C   UNL     1       4.911   3.840  19.224  0.00  0.00    +0.000 C 
BRANCH  22  23
ATOM     23  C   UNL     1       5.758   4.927  18.601  0.00  0.00    +0.000 A 
ATOM     24  C   UNL     1       6.956   5.329  19.207  0.00  0.00    +0.000 A 
ATOM     25  C   UNL     1       7.721   6.356  18.652  0.00  0.00    +0.000 A 
ATOM     26  C   UNL     1       7.293   6.990  17.486  0.00  0.00    +0.000 A 
ATOM     27  C   UNL     1       6.108   6.592  16.872  0.00  0.00    +0.000 A 
ATOM     28  C   UNL     1       5.342   5.566  17.426  0.00  0.00    +0.000 A 
ENDBRANCH  22  23
ENDBRANCH  21  22
ENDBRANCH  19  21
ENDBRANCH   6  16
TORSDOF 5
ENDMDL
MODEL 9
REMARK VINA RESULT:      -6.5      1.745      2.523
REMARK  Name = 
REMARK  6 active torsions:
REMARK  status: ('A' for Active; 'I' for Inactive)
REMARK    1  A    between atoms: C_1  and  C_2
REMARK    2  A    between atoms: C_7  and  C_8
REMARK    3  A    between atoms: C_13  and  C_14
REMARK    4  A    between atoms: N_17  and  C_18
REMARK    5  A    between atoms: C_18  and  C_19
REMARK    6  A    between atoms: C_19  and  C_20
REMARK                            x       y       z     vdW  Elec       q    Type
REMARK                         _______ _______ _______ _____ _____    ______ ____
ROOT
ATOM      1  C   UNL     1       2.431   6.207  19.899  0.00  0.00    +0.000 C 
ATOM      2  O   UNL     1       2.011   5.680  20.926  0.00  0.00    +0.000 OA
ATOM      3  N   UNL     1       2.075   7.533  19.529  0.00  0.00    +0.000 N 
ATOM      4  C   UNL     1       1.421   8.382  20.524  0.00  0.00    +0.000 C 
ATOM      5  C   UNL     1       0.381   9.315  19.898  0.00  0.00    +0.000 C 
ATOM      6  C   UNL     1       0.918  10.138  18.703  0.00  0.00    +0.000 C 
ATOM      7  C   UNL     1       1.532   9.148  17.710  0.00  0.00    +0.000 C 
ATOM      8  C   UNL     1       2.575   8.232  18.339  0.00  0.00    +0.000 C 
ENDROOT
BRANCH   1  15
ATOM      9  C   UNL     1       1.421   4.345  17.642  0.00  0.00    +0.000 C 
ATOM     10  C   UNL     1       2.868   4.606  17.934  0.00  0.00    +0.000 A 
ATOM     11  C   UNL     1       3.827   3.985  17.113  0.00  0.00    +0.000 A 
ATOM     12  C   UNL     1       5.186   4.193  17.329  0.00  0.00    +0.000 A 
ATOM     13  C   UNL     1       5.555   4.966  18.406  0.00  0.00    +0.000 A 
ATOM     14  N   UNL     1       4.674   5.527  19.256  0.00  0.00    +0.000 NA
ATOM     15  C   UNL     1       3.345   5.397  18.985  0.00  0.00    +0.000 A 
ENDBRANCH   1  15
BRANCH   6  16
ATOM     16  C   UNL     1       1.871  11.287  19.131  0.00  0.00    +0.000 C 
ATOM     17  C   UNL     1       2.245  12.289  18.032  0.00  0.00    +0.000 C 
ATOM     18  C   UNL     1       2.416  13.596  18.796  0.00  0.00    +0.000 C 
ATOM     19  N   UNL     1       1.350  13.581  19.811  0.00  0.00    +0.000 NA
ATOM     20  C   UNL     1       1.270  12.174  20.239  0.00  0.00    +0.000 C 
BRANCH  19  21
ATOM     21  C   UNL     1       0.076  14.089  19.257  0.00  0.00    +0.000 C 
BRANCH  21  22
ATOM     22  C   UNL     1      -0.686  15.041  20.202  0.00  0.00    +0.000 C 
BRANCH  22  23
ATOM     23  C   UNL     1      -1.366  14.287  21.323  0.00  0.00    +0.000 A 
ATOM     24  C   UNL     1      -2.209  13.202  21.041  0.00  0.00    +0.000 A 
ATOM     25  C   UNL     1      -2.864  12.528  22.072  0.00  0.00    +0.000 A 
ATOM     26  C   UNL     1      -2.683  12.933  23.394  0.00  0.00    +0.000 A 
ATOM     27  C   UNL     1      -1.842  14.004  23.685  0.00  0.00    +0.000 A 
ATOM     28  C   UNL     1      -1.186  14.680  22.655  0.00  0.00    +0.000 A 
ENDBRANCH  22  23
ENDBRANCH  21  22
ENDBRANCH  19  21
ENDBRANCH   6  16
TORSDOF 5
ENDMDL
