MODEL 1
REMARK VINA RESULT:      -7.1      0.000      0.000
REMARK  Name = 
REMARK  12 active torsions:
REMARK  status: ('A' for Active; 'I' for Inactive)
REMARK    1  A    between atoms: C_1  and  C_2
REMARK    2  A    between atoms: C_2  and  C_3
REMARK    3  A    between atoms: C_2  and  C_4
REMARK    4  A    between atoms: C_2  and  O_5
REMARK    5  A    between atoms: O_5  and  C_6
REMARK    6  A    between atoms: C_6  and  C_8
REMARK    7  A    between atoms: C_8  and  C_9
REMARK    8  A    between atoms: C_14  and  C_15
REMARK    9  A    between atoms: C_15  and  C_16
REMARK   10  A    between atoms: N_18  and  C_19
REMARK   11  A    between atoms: C_19  and  C_20
REMARK   12  A    between atoms: C_20  and  O_21
REMARK                            x       y       z     vdW  Elec       q    Type
REMARK                         _______ _______ _______ _____ _____    ______ ____
ROOT
ATOM      1  C   UNL     1       2.047   7.321  20.341  0.00  0.00    +0.000 C 
ATOM      2  C   UNL     1       2.043   7.925  18.845  0.00  0.00    +0.000 C 
ATOM      3  C   UNL     1       2.751   7.216  17.644  0.00  0.00    +0.000 C 
ATOM      4  C   UNL     1       4.074   7.030  17.369  0.00  0.00    +0.000 C 
ATOM      5  C   UNL     1       4.626   5.925  16.393  0.00  0.00    +0.000 C 
ATOM      6  C   UNL     1       5.696   4.746  16.802  0.00  0.00    +0.000 C 
ATOM      7  C   UNL     1       5.835   4.083  18.280  0.00  0.00    +0.000 C 
ATOM      8  O   UNL     1       6.788   4.471  18.974  0.00  0.00    +0.000 OA
ATOM      9  N   UNL     1       4.761   3.296  18.906  0.00  0.00    +0.000 N 
ATOM     10  C   UNL     1       3.617   2.981  18.057  0.00  0.00    +0.000 C 
ATOM     11  C   UNL     1       2.648   4.088  18.399  0.00  0.00    +0.000 C 
ATOM     12  C   UNL     1       3.577   4.968  19.231  0.00  0.00    +0.000 C 
ATOM     13  C   UNL     1       4.255   4.027  20.127  0.00  0.00    +0.000 C 
ATOM     14  C   UNL     1       3.027   3.782  21.141  0.00  0.00    +0.000 C 
ATOM     15  O   UNL     1       2.252   5.109  21.472  0.00  0.00    +0.000 OA
ATOM     16  C   UNL     1       1.428   5.854  20.603  0.00  0.00    +0.000 C 
ATOM     17  O   UNL     1       0.441   5.404  20.034  0.00  0.00    +0.000 OA
ENDROOT
BRANCH   1  18
ATOM     18  C   UNL     1       1.563   8.243  21.439  0.00  0.00    +0.000 C 
BRANCH  18  19
ATOM     19  C   UNL     1       0.158   8.680  21.243  0.00  0.00    +0.000 C 
ATOM     20  O   UNL     1      -0.787   8.109  21.768  0.00  0.00    +0.000 OA
BRANCH  19  21
ATOM     21  O   UNL     1       0.118   9.757  20.422  0.00  0.00    +0.000 OA
BRANCH  21  23
ATOM     22  C   UNL     1       1.064  12.006  20.732  0.00  0.00    +0.000 C 
ATOM     23  C   UNL     1      -0.121  11.068  20.982  0.00  0.00    +0.000 C 
ATOM     24  C   UNL     1      -0.469  10.936  22.468  0.00  0.00    +0.000 C 
ATOM     25  C   UNL     1      -1.344  11.624  20.236  0.00  0.00    +0.000 C 
ENDBRANCH  21  23
ENDBRANCH  19  21
ENDBRANCH  18  19
ENDBRANCH   1  18
BRANCH   6  26
ATOM     26  C   UNL     1       5.782   3.696  15.668  0.00  0.00    +0.000 C 
BRANCH  26  27
ATOM     27  C   UNL     1       6.513   4.194  14.428  0.00  0.00    +0.000 C 
ATOM     28  O   UNL     1       7.196   5.200  14.442  0.00  0.00    +0.000 OA
ATOM     29  N   UNL     1       6.319   3.410  13.321  0.00  0.00    +0.000 N 
ATOM     30  H   UNL     1       5.716   2.599  13.360  0.00  0.00    +0.000 HD
BRANCH  29  31
ATOM     31  C   UNL     1       6.882   3.769  12.027  0.00  0.00    +0.000 C 
BRANCH  31  32
ATOM     32  C   UNL     1       7.307   2.561  11.191  0.00  0.00    +0.000 C 
BRANCH  32  33
ATOM     33  O   UNL     1       6.394   1.483  11.393  0.00  0.00    +0.000 OA
ATOM     34  H   UNL     1       5.568   1.898  11.700  0.00  0.00    +0.000 HD
ENDBRANCH  32  33
ENDBRANCH  31  32
ENDBRANCH  29  31
ENDBRANCH  26  27
ENDBRANCH   6  26
TORSDOF 9
ENDMDL
MODEL 2
REMARK VINA RESULT:      -6.7      3.927      7.660
REMARK  Name = 
REMARK  12 active torsions:
REMARK  status: ('A' for Active; 'I' for Inactive)
REMARK    1  A    between atoms: C_1  and  C_2
REMARK    2  A    between atoms: C_2  and  C_3
REMARK    3  A    between atoms: C_2  and  C_4
REMARK    4  A    between atoms: C_2  and  O_5
REMARK    5  A    between atoms: O_5  and  C_6
REMARK    6  A    between atoms: C_6  and  C_8
REMARK    7  A    between atoms: C_8  and  C_9
REMARK    8  A    between atoms: C_14  and  C_15
REMARK    9  A    between atoms: C_15  and  C_16
REMARK   10  A    between atoms: N_18  and  C_19
REMARK   11  A    between atoms: C_19  and  C_20
REMARK   12  A    between atoms: C_20  and  O_21
REMARK                            x       y       z     vdW  Elec       q    Type
REMARK                         _______ _______ _______ _____ _____    ______ ____
ROOT
ATOM      1  C   UNL     1      -1.951  11.903  22.728  0.00  0.00    +0.000 C 
ATOM      2  C   UNL     1      -1.126  10.650  23.321  0.00  0.00    +0.000 C 
ATOM      3  C   UNL     1      -0.040   9.886  22.497  0.00  0.00    +0.000 C 
ATOM      4  C   UNL     1      -0.152   9.065  21.412  0.00  0.00    +0.000 C 
ATOM      5  C   UNL     1       1.029   8.744  20.422  0.00  0.00    +0.000 C 
ATOM      6  C   UNL     1       1.016   9.029  18.804  0.00  0.00    +0.000 C 
ATOM      7  C   UNL     1       0.195  10.227  18.073  0.00  0.00    +0.000 C 
ATOM      8  O   UNL     1      -0.861   9.908  17.504  0.00  0.00    +0.000 OA
ATOM      9  N   UNL     1       0.489  11.650  18.301  0.00  0.00    +0.000 N 
ATOM     10  C   UNL     1       1.686  11.942  19.082  0.00  0.00    +0.000 C 
ATOM     11  C   UNL     1       1.127  12.105  20.477  0.00  0.00    +0.000 C 
ATOM     12  C   UNL     1      -0.297  11.620  20.220  0.00  0.00    +0.000 C 
ATOM     13  C   UNL     1      -0.691  12.300  18.983  0.00  0.00    +0.000 C 
ATOM     14  C   UNL     1      -0.943  13.759  19.619  0.00  0.00    +0.000 C 
ATOM     15  O   UNL     1      -1.677  13.687  21.009  0.00  0.00    +0.000 OA
ATOM     16  C   UNL     1      -1.149  13.211  22.227  0.00  0.00    +0.000 C 
ATOM     17  O   UNL     1      -0.145  13.660  22.766  0.00  0.00    +0.000 OA
ENDROOT
BRANCH   1  18
ATOM     18  C   UNL     1      -3.148  12.361  23.533  0.00  0.00    +0.000 C 
BRANCH  18  19
ATOM     19  C   UNL     1      -4.280  12.799  22.679  0.00  0.00    +0.000 C 
ATOM     20  O   UNL     1      -4.643  12.172  21.694  0.00  0.00    +0.000 OA
BRANCH  19  21
ATOM     21  O   UNL     1      -4.801  13.954  23.158  0.00  0.00    +0.000 OA
BRANCH  21  23
ATOM     22  C   UNL     1      -6.867  13.992  21.824  0.00  0.00    +0.000 C 
ATOM     23  C   UNL     1      -6.237  14.115  23.215  0.00  0.00    +0.000 C 
ATOM     24  C   UNL     1      -6.579  15.439  23.905  0.00  0.00    +0.000 C 
ATOM     25  C   UNL     1      -6.754  12.958  24.083  0.00  0.00    +0.000 C 
ENDBRANCH  21  23
ENDBRANCH  19  21
ENDBRANCH  18  19
ENDBRANCH   1  18
BRANCH   6  26
ATOM     26  C   UNL     1       2.439   8.843  18.224  0.00  0.00    +0.000 C 
BRANCH  26  27
ATOM     27  C   UNL     1       2.847   7.385  18.060  0.00  0.00    +0.000 C 
ATOM     28  O   UNL     1       2.100   6.470  18.348  0.00  0.00    +0.000 OA
ATOM     29  N   UNL     1       4.116   7.219  17.572  0.00  0.00    +0.000 N 
ATOM     30  H   UNL     1       4.705   8.017  17.377  0.00  0.00    +0.000 HD
BRANCH  29  31
ATOM     31  C   UNL     1       4.704   5.896  17.416  0.00  0.00    +0.000 C 
BRANCH  31  32
ATOM     32  C   UNL     1       5.352   5.362  18.694  0.00  0.00    +0.000 C 
BRANCH  32  33
ATOM     33  O   UNL     1       4.401   4.607  19.444  0.00  0.00    +0.000 OA
ATOM     34  H   UNL     1       4.520   4.887  20.369  0.00  0.00    +0.000 HD
ENDBRANCH  32  33
ENDBRANCH  31  32
ENDBRANCH  29  31
ENDBRANCH  26  27
ENDBRANCH   6  26
TORSDOF 9
ENDMDL
MODEL 3
REMARK VINA RESULT:      -6.7      3.623      7.524
REMARK  Name = 
REMARK  12 active torsions:
REMARK  status: ('A' for Active; 'I' for Inactive)
REMARK    1  A    between atoms: C_1  and  C_2
REMARK    2  A    between atoms: C_2  and  C_3
REMARK    3  A    between atoms: C_2  and  C_4
REMARK    4  A    between atoms: C_2  and  O_5
REMARK    5  A    between atoms: O_5  and  C_6
REMARK    6  A    between atoms: C_6  and  C_8
REMARK    7  A    between atoms: C_8  and  C_9
REMARK    8  A    between atoms: C_14  and  C_15
REMARK    9  A    between atoms: C_15  and  C_16
REMARK   10  A    between atoms: N_18  and  C_19
REMARK   11  A    between atoms: C_19  and  C_20
REMARK   12  A    between atoms: C_20  and  O_21
REMARK                            x       y       z     vdW  Elec       q    Type
REMARK                         _______ _______ _______ _____ _____    ______ ____
ROOT
ATOM      1  C   UNL     1      -1.948  11.811  22.805  0.00  0.00    +0.000 C 
ATOM      2  C   UNL     1      -1.088  10.558  23.348  0.00  0.00    +0.000 C 
ATOM      3  C   UNL     1      -0.012   9.829  22.479  0.00  0.00    +0.000 C 
ATOM      4  C   UNL     1      -0.140   9.031  21.379  0.00  0.00    +0.000 C 
ATOM      5  C   UNL     1       1.019   8.750  20.352  0.00  0.00    +0.000 C 
ATOM      6  C   UNL     1       0.958   9.070  18.742  0.00  0.00    +0.000 C 
ATOM      7  C   UNL     1       0.100  10.271  18.060  0.00  0.00    +0.000 C 
ATOM      8  O   UNL     1      -0.966   9.948  17.511  0.00  0.00    +0.000 OA
ATOM      9  N   UNL     1       0.378  11.693  18.311  0.00  0.00    +0.000 N 
ATOM     10  C   UNL     1       1.591  11.987  19.067  0.00  0.00    +0.000 C 
ATOM     11  C   UNL     1       1.067  12.110  20.479  0.00  0.00    +0.000 C 
ATOM     12  C   UNL     1      -0.356  11.608  20.249  0.00  0.00    +0.000 C 
ATOM     13  C   UNL     1      -0.793  12.310  19.038  0.00  0.00    +0.000 C 
ATOM     14  C   UNL     1      -1.050  13.750  19.713  0.00  0.00    +0.000 C 
ATOM     15  O   UNL     1      -1.746  13.635  21.119  0.00  0.00    +0.000 OA
ATOM     16  C   UNL     1      -1.179  13.142  22.313  0.00  0.00    +0.000 C 
ATOM     17  O   UNL     1      -0.168  13.595  22.834  0.00  0.00    +0.000 OA
ENDROOT
BRANCH   1  18
ATOM     18  C   UNL     1      -3.130  12.232  23.651  0.00  0.00    +0.000 C 
BRANCH  18  19
ATOM     19  C   UNL     1      -4.134  13.012  22.885  0.00  0.00    +0.000 C 
ATOM     20  O   UNL     1      -4.330  14.203  23.081  0.00  0.00    +0.000 OA
BRANCH  19  21
ATOM     21  O   UNL     1      -4.758  12.210  21.990  0.00  0.00    +0.000 OA
BRANCH  21  23
ATOM     22  C   UNL     1      -5.201  13.839  20.202  0.00  0.00    +0.000 C 
ATOM     23  C   UNL     1      -5.778  12.765  21.129  0.00  0.00    +0.000 C 
ATOM     24  C   UNL     1      -6.943  13.281  21.980  0.00  0.00    +0.000 C 
ATOM     25  C   UNL     1      -6.278  11.597  20.265  0.00  0.00    +0.000 C 
ENDBRANCH  21  23
ENDBRANCH  19  21
ENDBRANCH  18  19
ENDBRANCH   1  18
BRANCH   6  26
ATOM     26  C   UNL     1       2.368   8.920  18.121  0.00  0.00    +0.000 C 
BRANCH  26  27
ATOM     27  C   UNL     1       2.806   7.473  17.940  0.00  0.00    +0.000 C 
ATOM     28  O   UNL     1       2.077   6.539  18.216  0.00  0.00    +0.000 OA
ATOM     29  N   UNL     1       4.079   7.337  17.452  0.00  0.00    +0.000 N 
ATOM     30  H   UNL     1       4.651   8.150  17.267  0.00  0.00    +0.000 HD
BRANCH  29  31
ATOM     31  C   UNL     1       4.693   6.029  17.281  0.00  0.00    +0.000 C 
BRANCH  31  32
ATOM     32  C   UNL     1       5.473   5.556  18.508  0.00  0.00    +0.000 C 
BRANCH  32  33
ATOM     33  O   UNL     1       4.569   5.075  19.504  0.00  0.00    +0.000 OA
ATOM     34  H   UNL     1       3.998   5.833  19.721  0.00  0.00    +0.000 HD
ENDBRANCH  32  33
ENDBRANCH  31  32
ENDBRANCH  29  31
ENDBRANCH  26  27
ENDBRANCH   6  26
TORSDOF 9
ENDMDL
MODEL 4
REMARK VINA RESULT:      -6.6      3.911      7.823
REMARK  Name = 
REMARK  12 active torsions:
REMARK  status: ('A' for Active; 'I' for Inactive)
REMARK    1  A    between atoms: C_1  and  C_2
REMARK    2  A    between atoms: C_2  and  C_3
REMARK    3  A    between atoms: C_2  and  C_4
REMARK    4  A    between atoms: C_2  and  O_5
REMARK    5  A    between atoms: O_5  and  C_6
REMARK    6  A    between atoms: C_6  and  C_8
REMARK    7  A    between atoms: C_8  and  C_9
REMARK    8  A    between atoms: C_14  and  C_15
REMARK    9  A    between atoms: C_15  and  C_16
REMARK   10  A    between atoms: N_18  and  C_19
REMARK   11  A    between atoms: C_19  and  C_20
REMARK   12  A    between atoms: C_20  and  O_21
REMARK                            x       y       z     vdW  Elec       q    Type
REMARK                         _______ _______ _______ _____ _____    ______ ____
ROOT
ATOM      1  C   UNL     1      -1.869  11.773  22.775  0.00  0.00    +0.000 C 
ATOM      2  C   UNL     1      -0.980  10.546  23.327  0.00  0.00    +0.000 C 
ATOM      3  C   UNL     1       0.107   9.831  22.460  0.00  0.00    +0.000 C 
ATOM      4  C   UNL     1      -0.009   9.018  21.370  0.00  0.00    +0.000 C 
ATOM      5  C   UNL     1       1.151   8.751  20.340  0.00  0.00    +0.000 C 
ATOM      6  C   UNL     1       1.075   9.052  18.726  0.00  0.00    +0.000 C 
ATOM      7  C   UNL     1       0.187  10.226  18.036  0.00  0.00    +0.000 C 
ATOM      8  O   UNL     1      -0.874   9.874  17.496  0.00  0.00    +0.000 OA
ATOM      9  N   UNL     1       0.435  11.657  18.270  0.00  0.00    +0.000 N 
ATOM     10  C   UNL     1       1.645  11.986  19.016  0.00  0.00    +0.000 C 
ATOM     11  C   UNL     1       1.126  12.113  20.429  0.00  0.00    +0.000 C 
ATOM     12  C   UNL     1      -0.287  11.578  20.213  0.00  0.00    +0.000 C 
ATOM     13  C   UNL     1      -0.745  12.256  18.997  0.00  0.00    +0.000 C 
ATOM     14  C   UNL     1      -1.031  13.698  19.657  0.00  0.00    +0.000 C 
ATOM     15  O   UNL     1      -1.717  13.583  21.068  0.00  0.00    +0.000 OA
ATOM     16  C   UNL     1      -1.133  13.115  22.264  0.00  0.00    +0.000 C 
ATOM     17  O   UNL     1      -0.129  13.596  22.775  0.00  0.00    +0.000 OA
ENDROOT
BRANCH   1  18
ATOM     18  C   UNL     1      -3.056  12.178  23.623  0.00  0.00    +0.000 C 
BRANCH  18  19
ATOM     19  C   UNL     1      -4.147  12.792  22.826  0.00  0.00    +0.000 C 
ATOM     20  O   UNL     1      -4.682  12.216  21.889  0.00  0.00    +0.000 OA
BRANCH  19  21
ATOM     21  O   UNL     1      -4.421  14.033  23.295  0.00  0.00    +0.000 OA
BRANCH  21  23
ATOM     22  C   UNL     1      -6.759  13.578  23.906  0.00  0.00    +0.000 C 
ATOM     23  C   UNL     1      -5.775  14.535  23.227  0.00  0.00    +0.000 C 
ATOM     24  C   UNL     1      -6.142  14.826  21.769  0.00  0.00    +0.000 C 
ATOM     25  C   UNL     1      -5.770  15.858  24.009  0.00  0.00    +0.000 C 
ENDBRANCH  21  23
ENDBRANCH  19  21
ENDBRANCH  18  19
ENDBRANCH   1  18
BRANCH   6  26
ATOM     26  C   UNL     1       2.484   8.927  18.099  0.00  0.00    +0.000 C 
BRANCH  26  27
ATOM     27  C   UNL     1       2.995   7.493  18.026  0.00  0.00    +0.000 C 
ATOM     28  O   UNL     1       4.058   7.214  17.505  0.00  0.00    +0.000 OA
ATOM     29  N   UNL     1       2.147   6.576  18.589  0.00  0.00    +0.000 N 
ATOM     30  H   UNL     1       1.261   6.862  18.982  0.00  0.00    +0.000 HD
BRANCH  29  31
ATOM     31  C   UNL     1       2.436   5.149  18.549  0.00  0.00    +0.000 C 
BRANCH  31  32
ATOM     32  C   UNL     1       2.800   4.562  19.913  0.00  0.00    +0.000 C 
BRANCH  32  33
ATOM     33  O   UNL     1       2.419   5.466  20.950  0.00  0.00    +0.000 OA
ATOM     34  H   UNL     1       1.567   5.132  21.283  0.00  0.00    +0.000 HD
ENDBRANCH  32  33
ENDBRANCH  31  32
ENDBRANCH  29  31
ENDBRANCH  26  27
ENDBRANCH   6  26
TORSDOF 9
ENDMDL
MODEL 5
REMARK VINA RESULT:      -6.6      3.870      7.423
REMARK  Name = 
REMARK  12 active torsions:
REMARK  status: ('A' for Active; 'I' for Inactive)
REMARK    1  A    between atoms: C_1  and  C_2
REMARK    2  A    between atoms: C_2  and  C_3
REMARK    3  A    between atoms: C_2  and  C_4
REMARK    4  A    between atoms: C_2  and  O_5
REMARK    5  A    between atoms: O_5  and  C_6
REMARK    6  A    between atoms: C_6  and  C_8
REMARK    7  A    between atoms: C_8  and  C_9
REMARK    8  A    between atoms: C_14  and  C_15
REMARK    9  A    between atoms: C_15  and  C_16
REMARK   10  A    between atoms: N_18  and  C_19
REMARK   11  A    between atoms: C_19  and  C_20
REMARK   12  A    between atoms: C_20  and  O_21
REMARK                            x       y       z     vdW  Elec       q    Type
REMARK                         _______ _______ _______ _____ _____    ______ ____
ROOT
ATOM      1  C   UNL     1      -1.844  11.772  22.769  0.00  0.00    +0.000 C 
ATOM      2  C   UNL     1      -0.974  10.534  23.326  0.00  0.00    +0.000 C 
ATOM      3  C   UNL     1       0.101   9.797  22.462  0.00  0.00    +0.000 C 
ATOM      4  C   UNL     1      -0.030   8.980  21.376  0.00  0.00    +0.000 C 
ATOM      5  C   UNL     1       1.124   8.689  20.346  0.00  0.00    +0.000 C 
ATOM      6  C   UNL     1       1.051   8.983  18.731  0.00  0.00    +0.000 C 
ATOM      7  C   UNL     1       0.181  10.167  18.035  0.00  0.00    +0.000 C 
ATOM      8  O   UNL     1      -0.886   9.829  17.499  0.00  0.00    +0.000 OA
ATOM      9  N   UNL     1       0.453  11.595  18.261  0.00  0.00    +0.000 N 
ATOM     10  C   UNL     1       1.669  11.908  19.005  0.00  0.00    +0.000 C 
ATOM     11  C   UNL     1       1.153  12.051  20.418  0.00  0.00    +0.000 C 
ATOM     12  C   UNL     1      -0.268  11.537  20.205  0.00  0.00    +0.000 C 
ATOM     13  C   UNL     1      -0.717  12.216  18.986  0.00  0.00    +0.000 C 
ATOM     14  C   UNL     1      -0.979  13.666  19.639  0.00  0.00    +0.000 C 
ATOM     15  O   UNL     1      -1.664  13.570  21.052  0.00  0.00    +0.000 OA
ATOM     16  C   UNL     1      -1.087  13.099  22.249  0.00  0.00    +0.000 C 
ATOM     17  O   UNL     1      -0.075  13.567  22.757  0.00  0.00    +0.000 OA
ENDROOT
BRANCH   1  18
ATOM     18  C   UNL     1      -3.023  12.200  23.615  0.00  0.00    +0.000 C 
BRANCH  18  19
ATOM     19  C   UNL     1      -4.102  12.835  22.817  0.00  0.00    +0.000 C 
ATOM     20  O   UNL     1      -4.728  12.230  21.958  0.00  0.00    +0.000 OA
BRANCH  19  21
ATOM     21  O   UNL     1      -4.253  14.128  23.189  0.00  0.00    +0.000 OA
BRANCH  21  23
ATOM     22  C   UNL     1      -6.596  13.758  23.839  0.00  0.00    +0.000 C 
ATOM     23  C   UNL     1      -5.576  14.711  23.209  0.00  0.00    +0.000 C 
ATOM     24  C   UNL     1      -5.967  15.147  21.794  0.00  0.00    +0.000 C 
ATOM     25  C   UNL     1      -5.469  15.960  24.098  0.00  0.00    +0.000 C 
ENDBRANCH  21  23
ENDBRANCH  19  21
ENDBRANCH  18  19
ENDBRANCH   1  18
BRANCH   6  26
ATOM     26  C   UNL     1       2.458   8.831  18.104  0.00  0.00    +0.000 C 
BRANCH  26  27
ATOM     27  C   UNL     1       2.909   7.383  17.956  0.00  0.00    +0.000 C 
ATOM     28  O   UNL     1       2.132   6.453  18.057  0.00  0.00    +0.000 OA
ATOM     29  N   UNL     1       4.249   7.245  17.710  0.00  0.00    +0.000 N 
ATOM     30  H   UNL     1       4.854   8.054  17.665  0.00  0.00    +0.000 HD
BRANCH  29  31
ATOM     31  C   UNL     1       4.873   5.933  17.610  0.00  0.00    +0.000 C 
BRANCH  31  32
ATOM     32  C   UNL     1       5.074   5.461  16.169  0.00  0.00    +0.000 C 
BRANCH  32  33
ATOM     33  O   UNL     1       5.056   4.035  16.117  0.00  0.00    +0.000 OA
ATOM     34  H   UNL     1       5.522   3.741  16.919  0.00  0.00    +0.000 HD
ENDBRANCH  32  33
ENDBRANCH  31  32
ENDBRANCH  29  31
ENDBRANCH  26  27
ENDBRANCH   6  26
TORSDOF 9
ENDMDL
MODEL 6
REMARK VINA RESULT:      -6.5      4.467      8.364
REMARK  Name = 
REMARK  12 active torsions:
REMARK  status: ('A' for Active; 'I' for Inactive)
REMARK    1  A    between atoms: C_1  and  C_2
REMARK    2  A    between atoms: C_2  and  C_3
REMARK    3  A    between atoms: C_2  and  C_4
REMARK    4  A    between atoms: C_2  and  O_5
REMARK    5  A    between atoms: O_5  and  C_6
REMARK    6  A    between atoms: C_6  and  C_8
REMARK    7  A    between atoms: C_8  and  C_9
REMARK    8  A    between atoms: C_14  and  C_15
REMARK    9  A    between atoms: C_15  and  C_16
REMARK   10  A    between atoms: N_18  and  C_19
REMARK   11  A    between atoms: C_19  and  C_20
REMARK   12  A    between atoms: C_20  and  O_21
REMARK                            x       y       z     vdW  Elec       q    Type
REMARK                         _______ _______ _______ _____ _____    ______ ____
ROOT
ATOM      1  C   UNL     1      -2.381  12.889  22.557  0.00  0.00    +0.000 C 
ATOM      2  C   UNL     1      -1.796  11.656  23.417  0.00  0.00    +0.000 C 
ATOM      3  C   UNL     1      -0.717  10.671  22.859  0.00  0.00    +0.000 C 
ATOM      4  C   UNL     1      -0.794   9.718  21.885  0.00  0.00    +0.000 C 
ATOM      5  C   UNL     1       0.452   9.135  21.119  0.00  0.00    +0.000 C 
ATOM      6  C   UNL     1       0.673   9.182  19.492  0.00  0.00    +0.000 C 
ATOM      7  C   UNL     1       0.101  10.340  18.504  0.00  0.00    +0.000 C 
ATOM      8  O   UNL     1      -0.907  10.053  17.840  0.00  0.00    +0.000 OA
ATOM      9  N   UNL     1       0.537  11.743  18.583  0.00  0.00    +0.000 N 
ATOM     10  C   UNL     1       1.655  12.019  19.479  0.00  0.00    +0.000 C 
ATOM     11  C   UNL     1       0.953  12.440  20.749  0.00  0.00    +0.000 C 
ATOM     12  C   UNL     1      -0.477  12.073  20.362  0.00  0.00    +0.000 C 
ATOM     13  C   UNL     1      -0.629  12.604  19.004  0.00  0.00    +0.000 C 
ATOM     14  C   UNL     1      -0.777  14.158  19.404  0.00  0.00    +0.000 C 
ATOM     15  O   UNL     1      -1.680  14.365  20.675  0.00  0.00    +0.000 OA
ATOM     16  C   UNL     1      -1.370  14.019  22.006  0.00  0.00    +0.000 C 
ATOM     17  O   UNL     1      -0.392  14.435  22.616  0.00  0.00    +0.000 OA
ENDROOT
BRANCH   1  18
ATOM     18  C   UNL     1      -3.603  13.581  23.121  0.00  0.00    +0.000 C 
BRANCH  18  19
ATOM     19  C   UNL     1      -4.689  12.632  23.472  0.00  0.00    +0.000 C 
ATOM     20  O   UNL     1      -4.840  12.194  24.604  0.00  0.00    +0.000 OA
BRANCH  19  21
ATOM     21  O   UNL     1      -5.432  12.352  22.375  0.00  0.00    +0.000 OA
BRANCH  21  23
ATOM     22  C   UNL     1      -7.159  13.029  20.759  0.00  0.00    +0.000 C 
ATOM     23  C   UNL     1      -6.739  12.953  22.230  0.00  0.00    +0.000 C 
ATOM     24  C   UNL     1      -6.756  14.319  22.922  0.00  0.00    +0.000 C 
ATOM     25  C   UNL     1      -7.713  12.017  22.963  0.00  0.00    +0.000 C 
ENDBRANCH  21  23
ENDBRANCH  19  21
ENDBRANCH  18  19
ENDBRANCH   1  18
BRANCH   6  26
ATOM     26  C   UNL     1       2.123   8.767  19.145  0.00  0.00    +0.000 C 
BRANCH  26  27
ATOM     27  C   UNL     1       2.306   7.264  18.979  0.00  0.00    +0.000 C 
ATOM     28  O   UNL     1       2.223   6.721  17.894  0.00  0.00    +0.000 OA
ATOM     29  N   UNL     1       2.561   6.606  20.153  0.00  0.00    +0.000 N 
ATOM     30  H   UNL     1       2.590   7.106  21.032  0.00  0.00    +0.000 HD
BRANCH  29  31
ATOM     31  C   UNL     1       2.694   5.157  20.199  0.00  0.00    +0.000 C 
BRANCH  31  32
ATOM     32  C   UNL     1       1.388   4.435  20.536  0.00  0.00    +0.000 C 
BRANCH  32  33
ATOM     33  O   UNL     1       1.636   3.396  21.484  0.00  0.00    +0.000 OA
ATOM     34  H   UNL     1       2.538   3.557  21.813  0.00  0.00    +0.000 HD
ENDBRANCH  32  33
ENDBRANCH  31  32
ENDBRANCH  29  31
ENDBRANCH  26  27
ENDBRANCH   6  26
TORSDOF 9
ENDMDL
MODEL 7
REMARK VINA RESULT:      -6.5      4.800     10.745
REMARK  Name = 
REMARK  12 active torsions:
REMARK  status: ('A' for Active; 'I' for Inactive)
REMARK    1  A    between atoms: C_1  and  C_2
REMARK    2  A    between atoms: C_2  and  C_3
REMARK    3  A    between atoms: C_2  and  C_4
REMARK    4  A    between atoms: C_2  and  O_5
REMARK    5  A    between atoms: O_5  and  C_6
REMARK    6  A    between atoms: C_6  and  C_8
REMARK    7  A    between atoms: C_8  and  C_9
REMARK    8  A    between atoms: C_14  and  C_15
REMARK    9  A    between atoms: C_15  and  C_16
REMARK   10  A    between atoms: N_18  and  C_19
REMARK   11  A    between atoms: C_19  and  C_20
REMARK   12  A    between atoms: C_20  and  O_21
REMARK                            x       y       z     vdW  Elec       q    Type
REMARK                         _______ _______ _______ _____ _____    ______ ____
ROOT
ATOM      1  C   UNL     1       2.093   8.007  19.773  0.00  0.00    +0.000 C 
ATOM      2  C   UNL     1       0.936   7.558  20.803  0.00  0.00    +0.000 C 
ATOM      3  C   UNL     1      -0.133   8.554  21.362  0.00  0.00    +0.000 C 
ATOM      4  C   UNL     1      -0.014   9.598  22.233  0.00  0.00    +0.000 C 
ATOM      5  C   UNL     1      -1.052  10.776  22.347  0.00  0.00    +0.000 C 
ATOM      6  C   UNL     1      -0.707  12.369  22.139  0.00  0.00    +0.000 C 
ATOM      7  C   UNL     1       0.458  12.953  21.167  0.00  0.00    +0.000 C 
ATOM      8  O   UNL     1       1.504  13.329  21.720  0.00  0.00    +0.000 OA
ATOM      9  N   UNL     1       0.435  12.789  19.705  0.00  0.00    +0.000 N 
ATOM     10  C   UNL     1      -0.788  12.228  19.141  0.00  0.00    +0.000 C 
ATOM     11  C   UNL     1      -0.451  10.759  19.038  0.00  0.00    +0.000 C 
ATOM     12  C   UNL     1       0.862  10.762  19.816  0.00  0.00    +0.000 C 
ATOM     13  C   UNL     1       1.592  11.916  19.283  0.00  0.00    +0.000 C 
ATOM     14  C   UNL     1       2.034  11.255  17.882  0.00  0.00    +0.000 C 
ATOM     15  O   UNL     1       2.492   9.759  18.045  0.00  0.00    +0.000 OA
ATOM     16  C   UNL     1       1.679   8.647  18.350  0.00  0.00    +0.000 C 
ATOM     17  O   UNL     1       0.715   8.294  17.682  0.00  0.00    +0.000 OA
ENDROOT
BRANCH   1  18
ATOM     18  C   UNL     1       3.206   7.009  19.537  0.00  0.00    +0.000 C 
BRANCH  18  19
ATOM     19  C   UNL     1       2.701   5.659  19.184  0.00  0.00    +0.000 C 
ATOM     20  O   UNL     1       2.136   5.423  18.126  0.00  0.00    +0.000 OA
BRANCH  19  21
ATOM     21  O   UNL     1       2.961   4.790  20.191  0.00  0.00    +0.000 OA
BRANCH  21  23
ATOM     22  C   UNL     1       2.723   2.544  19.217  0.00  0.00    +0.000 C 
ATOM     23  C   UNL     1       2.226   3.547  20.263  0.00  0.00    +0.000 C 
ATOM     24  C   UNL     1       0.726   3.830  20.146  0.00  0.00    +0.000 C 
ATOM     25  C   UNL     1       2.513   2.972  21.659  0.00  0.00    +0.000 C 
ENDBRANCH  21  23
ENDBRANCH  19  21
ENDBRANCH  18  19
ENDBRANCH   1  18
BRANCH   6  26
ATOM     26  C   UNL     1      -2.019  13.185  22.052  0.00  0.00    +0.000 C 
BRANCH  26  27
ATOM     27  C   UNL     1      -2.820  13.195  23.348  0.00  0.00    +0.000 C 
ATOM     28  O   UNL     1      -2.375  13.666  24.377  0.00  0.00    +0.000 OA
ATOM     29  N   UNL     1      -4.061  12.626  23.234  0.00  0.00    +0.000 N 
ATOM     30  H   UNL     1      -4.368  12.223  22.359  0.00  0.00    +0.000 HD
BRANCH  29  31
ATOM     31  C   UNL     1      -4.940  12.482  24.386  0.00  0.00    +0.000 C 
BRANCH  31  32
ATOM     32  C   UNL     1      -6.410  12.764  24.070  0.00  0.00    +0.000 C 
BRANCH  32  33
ATOM     33  O   UNL     1      -7.149  11.542  24.061  0.00  0.00    +0.000 OA
ATOM     34  H   UNL     1      -7.294  11.321  24.997  0.00  0.00    +0.000 HD
ENDBRANCH  32  33
ENDBRANCH  31  32
ENDBRANCH  29  31
ENDBRANCH  26  27
ENDBRANCH   6  26
TORSDOF 9
ENDMDL
MODEL 8
REMARK VINA RESULT:      -6.4      3.733      7.810
REMARK  Name = 
REMARK  12 active torsions:
REMARK  status: ('A' for Active; 'I' for Inactive)
REMARK    1  A    between atoms: C_1  and  C_2
REMARK    2  A    between atoms: C_2  and  C_3
REMARK    3  A    between atoms: C_2  and  C_4
REMARK    4  A    between atoms: C_2  and  O_5
REMARK    5  A    between atoms: O_5  and  C_6
REMARK    6  A    between atoms: C_6  and  C_8
REMARK    7  A    between atoms: C_8  and  C_9
REMARK    8  A    between atoms: C_14  and  C_15
REMARK    9  A    between atoms: C_15  and  C_16
REMARK   10  A    between atoms: N_18  and  C_19
REMARK   11  A    between atoms: C_19  and  C_20
REMARK   12  A    between atoms: C_20  and  O_21
REMARK                            x       y       z     vdW  Elec       q    Type
REMARK                         _______ _______ _______ _____ _____    ______ ____
ROOT
ATOM      1  C   UNL     1      -1.943  12.744  22.583  0.00  0.00    +0.000 C 
ATOM      2  C   UNL     1      -1.307  11.476  23.351  0.00  0.00    +0.000 C 
ATOM      3  C   UNL     1      -0.297  10.494  22.672  0.00  0.00    +0.000 C 
ATOM      4  C   UNL     1      -0.473   9.574  21.680  0.00  0.00    +0.000 C 
ATOM      5  C   UNL     1       0.692   8.998  20.793  0.00  0.00    +0.000 C 
ATOM      6  C   UNL     1       0.775   9.094  19.155  0.00  0.00    +0.000 C 
ATOM      7  C   UNL     1       0.141  10.292  18.256  0.00  0.00    +0.000 C 
ATOM      8  O   UNL     1      -0.925  10.042  17.671  0.00  0.00    +0.000 OA
ATOM      9  N   UNL     1       0.607  11.685  18.340  0.00  0.00    +0.000 N 
ATOM     10  C   UNL     1       1.801  11.915  19.146  0.00  0.00    +0.000 C 
ATOM     11  C   UNL     1       1.217  12.305  20.483  0.00  0.00    +0.000 C 
ATOM     12  C   UNL     1      -0.247  11.973  20.209  0.00  0.00    +0.000 C 
ATOM     13  C   UNL     1      -0.505  12.549  18.886  0.00  0.00    +0.000 C 
ATOM     14  C   UNL     1      -0.591  14.092  19.345  0.00  0.00    +0.000 C 
ATOM     15  O   UNL     1      -1.379  14.271  20.694  0.00  0.00    +0.000 OA
ATOM     16  C   UNL     1      -0.962  13.877  21.983  0.00  0.00    +0.000 C 
ATOM     17  O   UNL     1       0.071  14.259  22.519  0.00  0.00    +0.000 OA
ENDROOT
BRANCH   1  18
ATOM     18  C   UNL     1      -3.100  13.436  23.271  0.00  0.00    +0.000 C 
BRANCH  18  19
ATOM     19  C   UNL     1      -4.285  12.555  23.425  0.00  0.00    +0.000 C 
ATOM     20  O   UNL     1      -4.640  12.114  24.509  0.00  0.00    +0.000 OA
BRANCH  19  21
ATOM     21  O   UNL     1      -4.860  12.338  22.218  0.00  0.00    +0.000 OA
BRANCH  21  23
ATOM     22  C   UNL     1      -7.297  12.334  22.547  0.00  0.00    +0.000 C 
ATOM     23  C   UNL     1      -6.094  13.015  21.888  0.00  0.00    +0.000 C 
ATOM     24  C   UNL     1      -6.232  13.118  20.366  0.00  0.00    +0.000 C 
ATOM     25  C   UNL     1      -5.962  14.431  22.468  0.00  0.00    +0.000 C 
ENDBRANCH  21  23
ENDBRANCH  19  21
ENDBRANCH  18  19
ENDBRANCH   1  18
BRANCH   6  26
ATOM     26  C   UNL     1       2.183   8.670  18.672  0.00  0.00    +0.000 C 
BRANCH  26  27
ATOM     27  C   UNL     1       2.486   7.193  18.892  0.00  0.00    +0.000 C 
ATOM     28  O   UNL     1       1.945   6.548  19.769  0.00  0.00    +0.000 OA
ATOM     29  N   UNL     1       3.413   6.684  18.021  0.00  0.00    +0.000 N 
ATOM     30  H   UNL     1       3.853   7.276  17.329  0.00  0.00    +0.000 HD
BRANCH  29  31
ATOM     31  C   UNL     1       3.880   5.309  18.125  0.00  0.00    +0.000 C 
BRANCH  31  32
ATOM     32  C   UNL     1       5.107   5.148  19.023  0.00  0.00    +0.000 C 
BRANCH  32  33
ATOM     33  O   UNL     1       5.878   4.024  18.596  0.00  0.00    +0.000 OA
ATOM     34  H   UNL     1       5.759   3.981  17.631  0.00  0.00    +0.000 HD
ENDBRANCH  32  33
ENDBRANCH  31  32
ENDBRANCH  29  31
ENDBRANCH  26  27
ENDBRANCH   6  26
TORSDOF 9
ENDMDL
MODEL 9
REMARK VINA RESULT:      -6.4      3.894      7.695
REMARK  Name = 
REMARK  12 active torsions:
REMARK  status: ('A' for Active; 'I' for Inactive)
REMARK    1  A    between atoms: C_1  and  C_2
REMARK    2  A    between atoms: C_2  and  C_3
REMARK    3  A    between atoms: C_2  and  C_4
REMARK    4  A    between atoms: C_2  and  O_5
REMARK    5  A    between atoms: O_5  and  C_6
REMARK    6  A    between atoms: C_6  and  C_8
REMARK    7  A    between atoms: C_8  and  C_9
REMARK    8  A    between atoms: C_14  and  C_15
REMARK    9  A    between atoms: C_15  and  C_16
REMARK   10  A    between atoms: N_18  and  C_19
REMARK   11  A    between atoms: C_19  and  C_20
REMARK   12  A    between atoms: C_20  and  O_21
REMARK                            x       y       z     vdW  Elec       q    Type
REMARK                         _______ _______ _______ _____ _____    ______ ____
ROOT
ATOM      1  C   UNL     1      -2.060  12.296  22.505  0.00  0.00    +0.000 C 
ATOM      2  C   UNL     1      -1.455  11.016  23.278  0.00  0.00    +0.000 C 
ATOM      3  C   UNL     1      -0.395  10.063  22.636  0.00  0.00    +0.000 C 
ATOM      4  C   UNL     1      -0.501   9.166  21.613  0.00  0.00    +0.000 C 
ATOM      5  C   UNL     1       0.721   8.625  20.782  0.00  0.00    +0.000 C 
ATOM      6  C   UNL     1       0.898   8.763  19.154  0.00  0.00    +0.000 C 
ATOM      7  C   UNL     1       0.303   9.975  18.249  0.00  0.00    +0.000 C 
ATOM      8  O   UNL     1      -0.724   9.728  17.597  0.00  0.00    +0.000 OA
ATOM      9  N   UNL     1       0.745  11.371  18.394  0.00  0.00    +0.000 N 
ATOM     10  C   UNL     1       1.888  11.595  19.273  0.00  0.00    +0.000 C 
ATOM     11  C   UNL     1       1.222  11.945  20.584  0.00  0.00    +0.000 C 
ATOM     12  C   UNL     1      -0.220  11.603  20.216  0.00  0.00    +0.000 C 
ATOM     13  C   UNL     1      -0.407  12.209  18.895  0.00  0.00    +0.000 C 
ATOM     14  C   UNL     1      -0.540  13.739  19.385  0.00  0.00    +0.000 C 
ATOM     15  O   UNL     1      -1.407  13.875  20.690  0.00  0.00    +0.000 OA
ATOM     16  C   UNL     1      -1.061  13.454  21.991  0.00  0.00    +0.000 C 
ATOM     17  O   UNL     1      -0.066  13.834  22.596  0.00  0.00    +0.000 OA
ENDROOT
BRANCH   1  18
ATOM     18  C   UNL     1      -3.264  12.957  23.140  0.00  0.00    +0.000 C 
BRANCH  18  19
ATOM     19  C   UNL     1      -4.510  12.753  22.358  0.00  0.00    +0.000 C 
ATOM     20  O   UNL     1      -4.522  12.730  21.136  0.00  0.00    +0.000 OA
BRANCH  19  21
ATOM     21  O   UNL     1      -5.564  12.613  23.196  0.00  0.00    +0.000 OA
BRANCH  21  23
ATOM     22  C   UNL     1      -7.678  12.828  21.957  0.00  0.00    +0.000 C 
ATOM     23  C   UNL     1      -6.738  13.435  23.004  0.00  0.00    +0.000 C 
ATOM     24  C   UNL     1      -6.313  14.865  22.659  0.00  0.00    +0.000 C 
ATOM     25  C   UNL     1      -7.466  13.448  24.356  0.00  0.00    +0.000 C 
ENDBRANCH  21  23
ENDBRANCH  19  21
ENDBRANCH  18  19
ENDBRANCH   1  18
BRANCH   6  26
ATOM     26  C   UNL     1       2.337   8.367  18.745  0.00  0.00    +0.000 C 
BRANCH  26  27
ATOM     27  C   UNL     1       2.632   6.881  18.907  0.00  0.00    +0.000 C 
ATOM     28  O   UNL     1       3.126   6.429  19.923  0.00  0.00    +0.000 OA
ATOM     29  N   UNL     1       2.296   6.128  17.813  0.00  0.00    +0.000 N 
ATOM     30  H   UNL     1       1.915   6.563  16.983  0.00  0.00    +0.000 HD
BRANCH  29  31
ATOM     31  C   UNL     1       2.571   4.700  17.759  0.00  0.00    +0.000 C 
BRANCH  31  32
ATOM     32  C   UNL     1       4.018   4.370  17.390  0.00  0.00    +0.000 C 
BRANCH  32  33
ATOM     33  O   UNL     1       4.787   4.165  18.576  0.00  0.00    +0.000 OA
ATOM     34  H   UNL     1       5.026   5.056  18.886  0.00  0.00    +0.000 HD
ENDBRANCH  32  33
ENDBRANCH  31  32
ENDBRANCH  29  31
ENDBRANCH  26  27
ENDBRANCH   6  26
TORSDOF 9
ENDMDL
