MODEL 1
REMARK VINA RESULT:      -6.0      0.000      0.000
REMARK  Name = 
REMARK  3 active torsions:
REMARK  status: ('A' for Active; 'I' for Inactive)
REMARK    1  A    between atoms: C_1  and  C_2
REMARK    2  A    between atoms: C_2  and  C_4
REMARK    3  A    between atoms: C_5  and  C_6
REMARK                            x       y       z     vdW  Elec       q    Type
REMARK                         _______ _______ _______ _____ _____    ______ ____
ROOT
ATOM      1  C   UNL     1       4.049   4.581  17.150  0.00  0.00    +0.000 A 
ATOM      2  C   UNL     1       3.980   5.833  17.780  0.00  0.00    +0.000 A 
ATOM      3  C   UNL     1       3.023   6.084  18.763  0.00  0.00    +0.000 A 
ATOM      4  C   UNL     1       2.106   5.096  19.109  0.00  0.00    +0.000 A 
ATOM      5  C   UNL     1       2.135   3.868  18.449  0.00  0.00    +0.000 A 
ATOM      6 BR   UNL     1       0.877   2.533  18.909  0.00  0.00    +0.000 Br
ATOM      7  C   UNL     1       3.092   3.609  17.467  0.00  0.00    +0.000 A 
ENDROOT
BRANCH   1   9
ATOM      8  C   UNL     1       5.525   5.157  15.262  0.00  0.00    +0.000 C 
ATOM      9  C   UNL     1       5.103   4.267  16.173  0.00  0.00    +0.000 C 
BRANCH   8  11
ATOM     10  C   UNL     1       6.332   3.812  13.252  0.00  0.00    +0.000 C 
ATOM     11  C   UNL     1       6.634   4.826  14.326  0.00  0.00    +0.000 C 
ATOM     12  O   UNL     1       7.733   5.356  14.425  0.00  0.00    +0.000 OA
ENDBRANCH   8  11
ENDBRANCH   1   9
TORSDOF 2
ENDMDL
MODEL 2
REMARK VINA RESULT:      -6.0      3.613      5.549
REMARK  Name = 
REMARK  3 active torsions:
REMARK  status: ('A' for Active; 'I' for Inactive)
REMARK    1  A    between atoms: C_1  and  C_2
REMARK    2  A    between atoms: C_2  and  C_4
REMARK    3  A    between atoms: C_5  and  C_6
REMARK                            x       y       z     vdW  Elec       q    Type
REMARK                         _______ _______ _______ _____ _____    ______ ____
ROOT
ATOM      1  C   UNL     1       3.931   4.656  17.415  0.00  0.00    +0.000 A 
ATOM      2  C   UNL     1       4.034   6.041  17.617  0.00  0.00    +0.000 A 
ATOM      3  C   UNL     1       4.770   6.836  16.740  0.00  0.00    +0.000 A 
ATOM      4  C   UNL     1       5.435   6.254  15.664  0.00  0.00    +0.000 A 
ATOM      5  C   UNL     1       5.381   4.872  15.487  0.00  0.00    +0.000 A 
ATOM      6 BR   UNL     1       6.299   4.081  14.036  0.00  0.00    +0.000 Br
ATOM      7  C   UNL     1       4.644   4.071  16.361  0.00  0.00    +0.000 A 
ENDROOT
BRANCH   1   9
ATOM      8  C   UNL     1       1.754   3.796  18.185  0.00  0.00    +0.000 C 
ATOM      9  C   UNL     1       3.092   3.811  18.277  0.00  0.00    +0.000 C 
BRANCH   8  11
ATOM     10  C   UNL     1       1.060   3.063  20.526  0.00  0.00    +0.000 C 
ATOM     11  C   UNL     1       0.938   2.886  19.034  0.00  0.00    +0.000 C 
ATOM     12  O   UNL     1       0.203   2.041  18.541  0.00  0.00    +0.000 OA
ENDBRANCH   8  11
ENDBRANCH   1   9
TORSDOF 2
ENDMDL
MODEL 3
REMARK VINA RESULT:      -5.9      1.735      2.022
REMARK  Name = 
REMARK  3 active torsions:
REMARK  status: ('A' for Active; 'I' for Inactive)
REMARK    1  A    between atoms: C_1  and  C_2
REMARK    2  A    between atoms: C_2  and  C_4
REMARK    3  A    between atoms: C_5  and  C_6
REMARK                            x       y       z     vdW  Elec       q    Type
REMARK                         _______ _______ _______ _____ _____    ______ ____
ROOT
ATOM      1  C   UNL     1       3.844   3.951  18.143  0.00  0.00    +0.000 A 
ATOM      2  C   UNL     1       2.727   4.160  17.320  0.00  0.00    +0.000 A 
ATOM      3  C   UNL     1       1.434   4.006  17.820  0.00  0.00    +0.000 A 
ATOM      4  C   UNL     1       1.242   3.616  19.142  0.00  0.00    +0.000 A 
ATOM      5  C   UNL     1       2.346   3.356  19.951  0.00  0.00    +0.000 A 
ATOM      6 BR   UNL     1       2.082   2.810  21.742  0.00  0.00    +0.000 Br
ATOM      7  C   UNL     1       3.643   3.511  19.457  0.00  0.00    +0.000 A 
ENDROOT
BRANCH   1   9
ATOM      8  C   UNL     1       5.526   4.181  16.357  0.00  0.00    +0.000 C 
ATOM      9  C   UNL     1       5.212   4.189  17.661  0.00  0.00    +0.000 C 
BRANCH   8  11
ATOM     10  C   UNL     1       7.077   4.848  14.447  0.00  0.00    +0.000 C 
ATOM     11  C   UNL     1       6.909   4.483  15.900  0.00  0.00    +0.000 C 
ATOM     12  O   UNL     1       7.860   4.440  16.670  0.00  0.00    +0.000 OA
ENDBRANCH   8  11
ENDBRANCH   1   9
TORSDOF 2
ENDMDL
MODEL 4
REMARK VINA RESULT:      -5.9      3.672      5.603
REMARK  Name = 
REMARK  3 active torsions:
REMARK  status: ('A' for Active; 'I' for Inactive)
REMARK    1  A    between atoms: C_1  and  C_2
REMARK    2  A    between atoms: C_2  and  C_4
REMARK    3  A    between atoms: C_5  and  C_6
REMARK                            x       y       z     vdW  Elec       q    Type
REMARK                         _______ _______ _______ _____ _____    ______ ____
ROOT
ATOM      1  C   UNL     1       4.656   4.196  17.936  0.00  0.00    +0.000 A 
ATOM      2  C   UNL     1       5.803   4.588  18.644  0.00  0.00    +0.000 A 
ATOM      3  C   UNL     1       7.001   4.839  17.977  0.00  0.00    +0.000 A 
ATOM      4  C   UNL     1       7.076   4.676  16.597  0.00  0.00    +0.000 A 
ATOM      5  C   UNL     1       5.956   4.235  15.893  0.00  0.00    +0.000 A 
ATOM      6 BR   UNL     1       6.065   3.998  14.021  0.00  0.00    +0.000 Br
ATOM      7  C   UNL     1       4.752   3.985  16.555  0.00  0.00    +0.000 A 
ENDROOT
BRANCH   1   9
ATOM      8  C   UNL     1       2.412   3.196  18.122  0.00  0.00    +0.000 C 
ATOM      9  C   UNL     1       3.362   4.008  18.608  0.00  0.00    +0.000 C 
BRANCH   8  11
ATOM     10  C   UNL     1       0.947   3.777  20.126  0.00  0.00    +0.000 C 
ATOM     11  C   UNL     1       1.136   2.984  18.858  0.00  0.00    +0.000 C 
ATOM     12  O   UNL     1       0.283   2.207  18.449  0.00  0.00    +0.000 OA
ENDBRANCH   8  11
ENDBRANCH   1   9
TORSDOF 2
ENDMDL
MODEL 5
REMARK VINA RESULT:      -5.8      3.025      3.377
REMARK  Name = 
REMARK  3 active torsions:
REMARK  status: ('A' for Active; 'I' for Inactive)
REMARK    1  A    between atoms: C_1  and  C_2
REMARK    2  A    between atoms: C_2  and  C_4
REMARK    3  A    between atoms: C_5  and  C_6
REMARK                            x       y       z     vdW  Elec       q    Type
REMARK                         _______ _______ _______ _____ _____    ______ ____
ROOT
ATOM      1  C   UNL     1       3.792   4.603  18.507  0.00  0.00    +0.000 A 
ATOM      2  C   UNL     1       2.815   4.673  17.502  0.00  0.00    +0.000 A 
ATOM      3  C   UNL     1       1.521   4.205  17.731  0.00  0.00    +0.000 A 
ATOM      4  C   UNL     1       1.196   3.636  18.960  0.00  0.00    +0.000 A 
ATOM      5  C   UNL     1       2.175   3.515  19.944  0.00  0.00    +0.000 A 
ATOM      6 BR   UNL     1       1.735   2.727  21.606  0.00  0.00    +0.000 Br
ATOM      7  C   UNL     1       3.471   3.985  19.721  0.00  0.00    +0.000 A 
ENDROOT
BRANCH   1   9
ATOM      8  C   UNL     1       6.050   5.193  19.296  0.00  0.00    +0.000 C 
ATOM      9  C   UNL     1       5.136   5.167  18.315  0.00  0.00    +0.000 C 
BRANCH   8  11
ATOM     10  C   UNL     1       7.559   6.779  17.988  0.00  0.00    +0.000 C 
ATOM     11  C   UNL     1       7.421   5.719  19.052  0.00  0.00    +0.000 C 
ATOM     12  O   UNL     1       8.384   5.311  19.687  0.00  0.00    +0.000 OA
ENDBRANCH   8  11
ENDBRANCH   1   9
TORSDOF 2
ENDMDL
MODEL 6
REMARK VINA RESULT:      -5.8      3.757      5.777
REMARK  Name = 
REMARK  3 active torsions:
REMARK  status: ('A' for Active; 'I' for Inactive)
REMARK    1  A    between atoms: C_1  and  C_2
REMARK    2  A    between atoms: C_2  and  C_4
REMARK    3  A    between atoms: C_5  and  C_6
REMARK                            x       y       z     vdW  Elec       q    Type
REMARK                         _______ _______ _______ _____ _____    ______ ____
ROOT
ATOM      1  C   UNL     1       4.290   4.675  17.328  0.00  0.00    +0.000 A 
ATOM      2  C   UNL     1       4.703   3.822  16.292  0.00  0.00    +0.000 A 
ATOM      3  C   UNL     1       5.942   3.996  15.677  0.00  0.00    +0.000 A 
ATOM      4  C   UNL     1       6.773   5.042  16.071  0.00  0.00    +0.000 A 
ATOM      5  C   UNL     1       6.347   5.924  17.063  0.00  0.00    +0.000 A 
ATOM      6 BR   UNL     1       7.471   7.353  17.584  0.00  0.00    +0.000 Br
ATOM      7  C   UNL     1       5.109   5.753  17.684  0.00  0.00    +0.000 A 
ENDROOT
BRANCH   1   9
ATOM      8  C   UNL     1       2.400   3.271  18.058  0.00  0.00    +0.000 C 
ATOM      9  C   UNL     1       3.026   4.458  18.047  0.00  0.00    +0.000 C 
BRANCH   8  11
ATOM     10  C   UNL     1       1.001   3.897  20.095  0.00  0.00    +0.000 C 
ATOM     11  C   UNL     1       1.152   3.070  18.844  0.00  0.00    +0.000 C 
ATOM     12  O   UNL     1       0.293   2.276  18.486  0.00  0.00    +0.000 OA
ENDBRANCH   8  11
ENDBRANCH   1   9
TORSDOF 2
ENDMDL
MODEL 7
REMARK VINA RESULT:      -5.8      1.535      2.066
REMARK  Name = 
REMARK  3 active torsions:
REMARK  status: ('A' for Active; 'I' for Inactive)
REMARK    1  A    between atoms: C_1  and  C_2
REMARK    2  A    between atoms: C_2  and  C_4
REMARK    3  A    between atoms: C_5  and  C_6
REMARK                            x       y       z     vdW  Elec       q    Type
REMARK                         _______ _______ _______ _____ _____    ______ ____
ROOT
ATOM      1  C   UNL     1       4.004   4.236  17.008  0.00  0.00    +0.000 A 
ATOM      2  C   UNL     1       3.189   3.173  17.428  0.00  0.00    +0.000 A 
ATOM      3  C   UNL     1       2.108   3.398  18.280  0.00  0.00    +0.000 A 
ATOM      4  C   UNL     1       1.844   4.683  18.744  0.00  0.00    +0.000 A 
ATOM      5  C   UNL     1       2.681   5.735  18.373  0.00  0.00    +0.000 A 
ATOM      6 BR   UNL     1       2.330   7.477  19.019  0.00  0.00    +0.000 Br
ATOM      7  C   UNL     1       3.763   5.517  17.518  0.00  0.00    +0.000 A 
ENDROOT
BRANCH   1   9
ATOM      8  C   UNL     1       5.542   5.019  15.248  0.00  0.00    +0.000 C 
ATOM      9  C   UNL     1       5.096   4.035  16.043  0.00  0.00    +0.000 C 
BRANCH   8  11
ATOM     10  C   UNL     1       6.463   3.833  13.188  0.00  0.00    +0.000 C 
ATOM     11  C   UNL     1       6.687   4.797  14.325  0.00  0.00    +0.000 C 
ATOM     12  O   UNL     1       7.755   5.374  14.482  0.00  0.00    +0.000 OA
ENDBRANCH   8  11
ENDBRANCH   1   9
TORSDOF 2
ENDMDL
MODEL 8
REMARK VINA RESULT:      -5.8      3.672      5.591
REMARK  Name = 
REMARK  3 active torsions:
REMARK  status: ('A' for Active; 'I' for Inactive)
REMARK    1  A    between atoms: C_1  and  C_2
REMARK    2  A    between atoms: C_2  and  C_4
REMARK    3  A    between atoms: C_5  and  C_6
REMARK                            x       y       z     vdW  Elec       q    Type
REMARK                         _______ _______ _______ _____ _____    ______ ____
ROOT
ATOM      1  C   UNL     1       3.790   4.781  17.778  0.00  0.00    +0.000 A 
ATOM      2  C   UNL     1       3.863   6.179  17.876  0.00  0.00    +0.000 A 
ATOM      3  C   UNL     1       4.579   6.923  16.939  0.00  0.00    +0.000 A 
ATOM      4  C   UNL     1       5.253   6.277  15.907  0.00  0.00    +0.000 A 
ATOM      5  C   UNL     1       5.228   4.885  15.833  0.00  0.00    +0.000 A 
ATOM      6 BR   UNL     1       6.159   4.008  14.439  0.00  0.00    +0.000 Br
ATOM      7  C   UNL     1       4.511   4.135  16.766  0.00  0.00    +0.000 A 
ENDROOT
BRANCH   1   9
ATOM      8  C   UNL     1       3.278   3.857  20.004  0.00  0.00    +0.000 C 
ATOM      9  C   UNL     1       2.972   3.985  18.705  0.00  0.00    +0.000 C 
BRANCH   8  11
ATOM     10  C   UNL     1       0.933   3.028  20.567  0.00  0.00    +0.000 C 
ATOM     11  C   UNL     1       2.396   3.092  20.927  0.00  0.00    +0.000 C 
ATOM     12  O   UNL     1       2.841   2.540  21.925  0.00  0.00    +0.000 OA
ENDBRANCH   8  11
ENDBRANCH   1   9
TORSDOF 2
ENDMDL
MODEL 9
REMARK VINA RESULT:      -5.8      1.257      1.277
REMARK  Name = 
REMARK  3 active torsions:
REMARK  status: ('A' for Active; 'I' for Inactive)
REMARK    1  A    between atoms: C_1  and  C_2
REMARK    2  A    between atoms: C_2  and  C_4
REMARK    3  A    between atoms: C_5  and  C_6
REMARK                            x       y       z     vdW  Elec       q    Type
REMARK                         _______ _______ _______ _____ _____    ______ ____
ROOT
ATOM      1  C   UNL     1       3.963   4.867  18.020  0.00  0.00    +0.000 A 
ATOM      2  C   UNL     1       3.418   6.158  18.088  0.00  0.00    +0.000 A 
ATOM      3  C   UNL     1       2.554   6.514  19.123  0.00  0.00    +0.000 A 
ATOM      4  C   UNL     1       2.203   5.575  20.089  0.00  0.00    +0.000 A 
ATOM      5  C   UNL     1       2.699   4.275  19.999  0.00  0.00    +0.000 A 
ATOM      6 BR   UNL     1       2.208   2.997  21.302  0.00  0.00    +0.000 Br
ATOM      7  C   UNL     1       3.567   3.914  18.966  0.00  0.00    +0.000 A 
ENDROOT
BRANCH   1   9
ATOM      8  C   UNL     1       5.373   5.367  16.061  0.00  0.00    +0.000 C 
ATOM      9  C   UNL     1       4.941   4.497  16.986  0.00  0.00    +0.000 C 
BRANCH   8  11
ATOM     10  C   UNL     1       5.980   4.006  13.994  0.00  0.00    +0.000 C 
ATOM     11  C   UNL     1       6.407   4.976  15.065  0.00  0.00    +0.000 C 
ATOM     12  O   UNL     1       7.545   5.425  15.115  0.00  0.00    +0.000 OA
ENDBRANCH   8  11
ENDBRANCH   1   9
TORSDOF 2
ENDMDL
