MODEL 1
REMARK VINA RESULT:      -8.4      0.000      0.000
REMARK  Name = 
REMARK  6 active torsions:
REMARK  status: ('A' for Active; 'I' for Inactive)
REMARK    1  A    between atoms: C_1  and  C_2
REMARK    2  A    between atoms: C_3  and  C_4
REMARK    3  A    between atoms: C_8  and  C_9
REMARK    4  A    between atoms: C_17  and  C_18
REMARK    5  A    between atoms: C_25  and  O_26
REMARK    6  A    between atoms: O_26  and  C_27
REMARK                            x       y       z     vdW  Elec       q    Type
REMARK                         _______ _______ _______ _____ _____    ______ ____
ROOT
ATOM      1  C   UNL     1       0.347   9.846  21.249  0.00  0.00    +0.000 A 
ATOM      2  C   UNL     1      -0.185   9.470  22.501  0.00  0.00    +0.000 A 
ATOM      3  C   UNL     1      -0.982  10.329  23.243  0.00  0.00    +0.000 A 
ATOM      4  C   UNL     1      -1.226  11.598  22.750  0.00  0.00    +0.000 A 
ATOM      5  C   UNL     1      -0.627  12.105  21.601  0.00  0.00    +0.000 A 
ATOM      6  C   UNL     1       0.137  11.202  20.825  0.00  0.00    +0.000 A 
ATOM      7  C   UNL     1      -1.212  13.503  21.248  0.00  0.00    +0.000 C 
ATOM      8  N   UNL     1      -0.634  14.787  21.819  0.00  0.00    +0.000 NA
ATOM      9  C   UNL     1      -0.871  15.536  20.780  0.00  0.00    +0.000 C 
ATOM     10  C   UNL     1      -2.056  16.429  20.440  0.00  0.00    +0.000 C 
ATOM     11  C   UNL     1      -0.493  14.778  19.626  0.00  0.00    +0.000 C 
ATOM     12  N   UNL     1       0.275  15.406  18.654  0.00  0.00    +0.000 N 
ATOM     13  N   UNL     1      -1.105  13.650  19.725  0.00  0.00    +0.000 NA
ATOM     14  C   UNL     1      -2.622  13.428  22.098  0.00  0.00    +0.000 C 
ATOM     15  C   UNL     1      -3.075  14.755  22.820  0.00  0.00    +0.000 C 
ATOM     16  C   UNL     1      -4.346  14.655  23.637  0.00  0.00    +0.000 C 
ATOM     17  C   UNL     1      -5.473  14.215  22.718  0.00  0.00    +0.000 C 
ATOM     18  C   UNL     1      -5.142  12.835  22.135  0.00  0.00    +0.000 C 
ATOM     19  C   UNL     1      -3.822  12.826  21.328  0.00  0.00    +0.000 C 
ATOM     20  C   UNL     1      -2.215  12.535  23.319  0.00  0.00    +0.000 C 
ATOM     21  H   UNL     1       1.103  15.796  19.125  0.00  0.00    +0.000 HD
ATOM     22  H   UNL     1      -0.162  16.276  18.351  0.00  0.00    +0.000 HD
ENDROOT
BRANCH   1  27
ATOM     23  C   UNL     1       1.909   6.487  20.184  0.00  0.00    +0.000 A 
ATOM     24  C   UNL     1       2.466   6.900  18.985  0.00  0.00    +0.000 A 
ATOM     25  N   UNL     1       2.355   8.154  18.481  0.00  0.00    +0.000 NA
ATOM     26  C   UNL     1       1.659   9.061  19.223  0.00  0.00    +0.000 A 
ATOM     27  C   UNL     1       1.046   8.798  20.444  0.00  0.00    +0.000 A 
ATOM     28  C   UNL     1       1.179   7.459  20.900  0.00  0.00    +0.000 A 
BRANCH  23  31
ATOM     29  C   UNL     1       2.420   2.673  21.615  0.00  0.00    +0.000 C 
ATOM     30  C   UNL     1       2.251   4.036  21.110  0.00  0.00    +0.000 C 
ATOM     31  C   UNL     1       2.104   5.149  20.695  0.00  0.00    +0.000 C 
ENDBRANCH  23  31
ENDBRANCH   1  27
BRANCH  17  32
ATOM     32  O   UNL     1      -6.662  14.237  23.503  0.00  0.00    +0.000 OA
ATOM     33  C   UNL     1      -6.983  12.978  24.074  0.00  0.00    +0.000 C 
ENDBRANCH  17  32
TORSDOF 3
ENDMDL
MODEL 2
REMARK VINA RESULT:      -8.0      1.132      1.187
REMARK  Name = 
REMARK  6 active torsions:
REMARK  status: ('A' for Active; 'I' for Inactive)
REMARK    1  A    between atoms: C_1  and  C_2
REMARK    2  A    between atoms: C_3  and  C_4
REMARK    3  A    between atoms: C_8  and  C_9
REMARK    4  A    between atoms: C_17  and  C_18
REMARK    5  A    between atoms: C_25  and  O_26
REMARK    6  A    between atoms: O_26  and  C_27
REMARK                            x       y       z     vdW  Elec       q    Type
REMARK                         _______ _______ _______ _____ _____    ______ ____
ROOT
ATOM      1  C   UNL     1       0.667   9.827  20.764  0.00  0.00    +0.000 A 
ATOM      2  C   UNL     1       0.029   9.127  21.810  0.00  0.00    +0.000 A 
ATOM      3  C   UNL     1      -0.765   9.777  22.744  0.00  0.00    +0.000 A 
ATOM      4  C   UNL     1      -0.897  11.151  22.660  0.00  0.00    +0.000 A 
ATOM      5  C   UNL     1      -0.191  11.938  21.756  0.00  0.00    +0.000 A 
ATOM      6  C   UNL     1       0.570  11.259  20.774  0.00  0.00    +0.000 A 
ATOM      7  C   UNL     1      -0.665  13.417  21.829  0.00  0.00    +0.000 C 
ATOM      8  N   UNL     1      -0.051  14.414  22.798  0.00  0.00    +0.000 NA
ATOM      9  C   UNL     1      -0.170  15.463  22.034  0.00  0.00    +0.000 C 
ATOM     10  C   UNL     1      -1.273  16.508  21.934  0.00  0.00    +0.000 C 
ATOM     11  C   UNL     1       0.240  15.068  20.721  0.00  0.00    +0.000 C 
ATOM     12  N   UNL     1       1.109  15.902  20.029  0.00  0.00    +0.000 N 
ATOM     13  N   UNL     1      -0.444  14.017  20.434  0.00  0.00    +0.000 NA
ATOM     14  C   UNL     1      -2.132  13.197  22.546  0.00  0.00    +0.000 C 
ATOM     15  C   UNL     1      -2.553  14.269  23.624  0.00  0.00    +0.000 C 
ATOM     16  C   UNL     1      -3.881  14.022  24.308  0.00  0.00    +0.000 C 
ATOM     17  C   UNL     1      -4.966  13.977  23.246  0.00  0.00    +0.000 C 
ATOM     18  C   UNL     1      -4.680  12.821  22.278  0.00  0.00    +0.000 C 
ATOM     19  C   UNL     1      -3.310  12.957  21.572  0.00  0.00    +0.000 C 
ATOM     20  C   UNL     1      -1.865  11.942  23.446  0.00  0.00    +0.000 C 
ATOM     21  H   UNL     1       1.925  16.063  20.637  0.00  0.00    +0.000 HD
ATOM     22  H   UNL     1       0.748  16.855  19.993  0.00  0.00    +0.000 HD
ENDROOT
BRANCH   1  27
ATOM     23  C   UNL     1       2.574   6.988  18.984  0.00  0.00    +0.000 A 
ATOM     24  C   UNL     1       2.748   7.607  17.758  0.00  0.00    +0.000 A 
ATOM     25  N   UNL     1       2.282   8.843  17.450  0.00  0.00    +0.000 NA
ATOM     26  C   UNL     1       1.609   9.512  18.428  0.00  0.00    +0.000 A 
ATOM     27  C   UNL     1       1.355   9.025  19.707  0.00  0.00    +0.000 A 
ATOM     28  C   UNL     1       1.850   7.717  19.952  0.00  0.00    +0.000 A 
BRANCH  23  31
ATOM     29  C   UNL     1       4.135   3.279  19.795  0.00  0.00    +0.000 C 
ATOM     30  C   UNL     1       3.592   4.606  19.506  0.00  0.00    +0.000 C 
ATOM     31  C   UNL     1       3.139   5.690  19.271  0.00  0.00    +0.000 C 
ENDBRANCH  23  31
ENDBRANCH   1  27
BRANCH  17  32
ATOM     32  O   UNL     1      -6.203  13.849  23.943  0.00  0.00    +0.000 OA
ATOM     33  C   UNL     1      -6.792  12.566  23.814  0.00  0.00    +0.000 C 
ENDBRANCH  17  32
TORSDOF 3
ENDMDL
MODEL 3
REMARK VINA RESULT:      -8.0      3.283      5.591
REMARK  Name = 
REMARK  6 active torsions:
REMARK  status: ('A' for Active; 'I' for Inactive)
REMARK    1  A    between atoms: C_1  and  C_2
REMARK    2  A    between atoms: C_3  and  C_4
REMARK    3  A    between atoms: C_8  and  C_9
REMARK    4  A    between atoms: C_17  and  C_18
REMARK    5  A    between atoms: C_25  and  O_26
REMARK    6  A    between atoms: O_26  and  C_27
REMARK                            x       y       z     vdW  Elec       q    Type
REMARK                         _______ _______ _______ _____ _____    ______ ____
ROOT
ATOM      1  C   UNL     1       2.055   8.374  18.779  0.00  0.00    +0.000 A 
ATOM      2  C   UNL     1       2.295   9.139  17.619  0.00  0.00    +0.000 A 
ATOM      3  C   UNL     1       1.917  10.471  17.532  0.00  0.00    +0.000 A 
ATOM      4  C   UNL     1       1.255  11.043  18.603  0.00  0.00    +0.000 A 
ATOM      5  C   UNL     1       0.847  10.329  19.725  0.00  0.00    +0.000 A 
ATOM      6  C   UNL     1       1.288   8.988  19.826  0.00  0.00    +0.000 A 
ATOM      7  C   UNL     1       0.254  11.286  20.798  0.00  0.00    +0.000 C 
ATOM      8  N   UNL     1      -1.217  11.669  20.812  0.00  0.00    +0.000 NA
ATOM      9  C   UNL     1      -1.337  11.766  22.106  0.00  0.00    +0.000 C 
ATOM     10  C   UNL     1      -1.198  12.963  23.036  0.00  0.00    +0.000 C 
ATOM     11  C   UNL     1      -0.665  10.636  22.671  0.00  0.00    +0.000 C 
ATOM     12  N   UNL     1      -1.315   9.920  23.668  0.00  0.00    +0.000 N 
ATOM     13  N   UNL     1       0.517  10.631  22.161  0.00  0.00    +0.000 NA
ATOM     14  C   UNL     1       0.909  12.708  20.285  0.00  0.00    +0.000 C 
ATOM     15  C   UNL     1      -0.019  13.980  20.375  0.00  0.00    +0.000 C 
ATOM     16  C   UNL     1       0.583  15.267  19.853  0.00  0.00    +0.000 C 
ATOM     17  C   UNL     1       1.850  15.558  20.640  0.00  0.00    +0.000 C 
ATOM     18  C   UNL     1       2.851  14.415  20.426  0.00  0.00    +0.000 C 
ATOM     19  C   UNL     1       2.299  13.042  20.879  0.00  0.00    +0.000 C 
ATOM     20  C   UNL     1       0.984  12.488  18.736  0.00  0.00    +0.000 C 
ATOM     21  H   UNL     1      -2.238   9.653  23.298  0.00  0.00    +0.000 HD
ATOM     22  H   UNL     1      -1.618  10.538  24.421  0.00  0.00    +0.000 HD
ENDROOT
BRANCH   1  27
ATOM     23  C   UNL     1       3.993   5.174  17.845  0.00  0.00    +0.000 A 
ATOM     24  C   UNL     1       3.641   4.404  18.941  0.00  0.00    +0.000 A 
ATOM     25  N   UNL     1       2.861   4.836  19.963  0.00  0.00    +0.000 NA
ATOM     26  C   UNL     1       2.388   6.112  19.884  0.00  0.00    +0.000 A 
ATOM     27  C   UNL     1       2.651   7.004  18.848  0.00  0.00    +0.000 A 
ATOM     28  C   UNL     1       3.495   6.495  17.826  0.00  0.00    +0.000 A 
BRANCH  23  31
ATOM     29  C   UNL     1       6.224   3.695  14.732  0.00  0.00    +0.000 C 
ATOM     30  C   UNL     1       5.436   4.214  15.851  0.00  0.00    +0.000 C 
ATOM     31  C   UNL     1       4.786   4.643  16.760  0.00  0.00    +0.000 C 
ENDBRANCH  23  31
ENDBRANCH   1  27
BRANCH  17  32
ATOM     32  O   UNL     1       2.320  16.825  20.188  0.00  0.00    +0.000 OA
ATOM     33  C   UNL     1       2.518  16.885  18.785  0.00  0.00    +0.000 C 
ENDBRANCH  17  32
TORSDOF 3
ENDMDL
MODEL 4
REMARK VINA RESULT:      -7.9      2.163      3.197
REMARK  Name = 
REMARK  6 active torsions:
REMARK  status: ('A' for Active; 'I' for Inactive)
REMARK    1  A    between atoms: C_1  and  C_2
REMARK    2  A    between atoms: C_3  and  C_4
REMARK    3  A    between atoms: C_8  and  C_9
REMARK    4  A    between atoms: C_17  and  C_18
REMARK    5  A    between atoms: C_25  and  O_26
REMARK    6  A    between atoms: O_26  and  C_27
REMARK                            x       y       z     vdW  Elec       q    Type
REMARK                         _______ _______ _______ _____ _____    ______ ____
ROOT
ATOM      1  C   UNL     1       1.243   8.127  20.812  0.00  0.00    +0.000 A 
ATOM      2  C   UNL     1       0.394   8.044  21.935  0.00  0.00    +0.000 A 
ATOM      3  C   UNL     1      -0.280   9.153  22.425  0.00  0.00    +0.000 A 
ATOM      4  C   UNL     1      -0.079  10.375  21.809  0.00  0.00    +0.000 A 
ATOM      5  C   UNL     1       0.847  10.581  20.792  0.00  0.00    +0.000 A 
ATOM      6  C   UNL     1       1.486   9.432  20.265  0.00  0.00    +0.000 A 
ATOM      7  C   UNL     1       0.732  12.026  20.229  0.00  0.00    +0.000 C 
ATOM      8  N   UNL     1       1.503  13.190  20.830  0.00  0.00    +0.000 NA
ATOM      9  C   UNL     1       1.681  13.845  19.717  0.00  0.00    +0.000 C 
ATOM     10  C   UNL     1       0.863  14.952  19.067  0.00  0.00    +0.000 C 
ATOM     11  C   UNL     1       2.067  12.885  18.728  0.00  0.00    +0.000 C 
ATOM     12  N   UNL     1       3.149  13.187  17.912  0.00  0.00    +0.000 N 
ATOM     13  N   UNL     1       1.173  11.960  18.761  0.00  0.00    +0.000 NA
ATOM     14  C   UNL     1      -0.787  12.398  20.748  0.00  0.00    +0.000 C 
ATOM     15  C   UNL     1      -1.009  13.871  21.264  0.00  0.00    +0.000 C 
ATOM     16  C   UNL     1      -2.398  14.181  21.783  0.00  0.00    +0.000 C 
ATOM     17  C   UNL     1      -3.396  13.922  20.667  0.00  0.00    +0.000 C 
ATOM     18  C   UNL     1      -3.330  12.443  20.263  0.00  0.00    +0.000 C 
ATOM     19  C   UNL     1      -1.926  12.018  19.771  0.00  0.00    +0.000 C 
ATOM     20  C   UNL     1      -0.880  11.585  22.084  0.00  0.00    +0.000 C 
ATOM     21  H   UNL     1       3.941  13.418  18.529  0.00  0.00    +0.000 HD
ATOM     22  H   UNL     1       3.026  14.096  17.464  0.00  0.00    +0.000 HD
ENDROOT
BRANCH   1  27
ATOM     23  C   UNL     1       3.146   5.632  18.572  0.00  0.00    +0.000 A 
ATOM     24  C   UNL     1       2.681   4.460  19.144  0.00  0.00    +0.000 A 
ATOM     25  N   UNL     1       1.834   4.407  20.203  0.00  0.00    +0.000 NA
ATOM     26  C   UNL     1       1.411   5.596  20.717  0.00  0.00    +0.000 A 
ATOM     27  C   UNL     1       1.787   6.852  20.251  0.00  0.00    +0.000 A 
ATOM     28  C   UNL     1       2.694   6.834  19.159  0.00  0.00    +0.000 A 
BRANCH  23  31
ATOM     29  C   UNL     1       5.583   5.567  15.269  0.00  0.00    +0.000 C 
ATOM     30  C   UNL     1       4.715   5.604  16.447  0.00  0.00    +0.000 C 
ATOM     31  C   UNL     1       4.007   5.626  17.411  0.00  0.00    +0.000 C 
ENDBRANCH  23  31
ENDBRANCH   1  27
BRANCH  17  32
ATOM     32  O   UNL     1      -4.668  14.325  21.166  0.00  0.00    +0.000 OA
ATOM     33  C   UNL     1      -5.484  13.238  21.573  0.00  0.00    +0.000 C 
ENDBRANCH  17  32
TORSDOF 3
ENDMDL
MODEL 5
REMARK VINA RESULT:      -7.3      3.118      5.348
REMARK  Name = 
REMARK  6 active torsions:
REMARK  status: ('A' for Active; 'I' for Inactive)
REMARK    1  A    between atoms: C_1  and  C_2
REMARK    2  A    between atoms: C_3  and  C_4
REMARK    3  A    between atoms: C_8  and  C_9
REMARK    4  A    between atoms: C_17  and  C_18
REMARK    5  A    between atoms: C_25  and  O_26
REMARK    6  A    between atoms: O_26  and  C_27
REMARK                            x       y       z     vdW  Elec       q    Type
REMARK                         _______ _______ _______ _____ _____    ______ ____
ROOT
ATOM      1  C   UNL     1       1.806   8.406  19.219  0.00  0.00    +0.000 A 
ATOM      2  C   UNL     1       2.083   8.999  17.970  0.00  0.00    +0.000 A 
ATOM      3  C   UNL     1       1.694  10.298  17.676  0.00  0.00    +0.000 A 
ATOM      4  C   UNL     1       0.984  11.008  18.627  0.00  0.00    +0.000 A 
ATOM      5  C   UNL     1       0.540  10.457  19.825  0.00  0.00    +0.000 A 
ATOM      6  C   UNL     1       0.992   9.152  20.137  0.00  0.00    +0.000 A 
ATOM      7  C   UNL     1      -0.106  11.549  20.725  0.00  0.00    +0.000 C 
ATOM      8  N   UNL     1      -1.581  11.905  20.628  0.00  0.00    +0.000 NA
ATOM      9  C   UNL     1      -1.753  12.186  21.889  0.00  0.00    +0.000 C 
ATOM     10  C   UNL     1      -1.664  13.508  22.640  0.00  0.00    +0.000 C 
ATOM     11  C   UNL     1      -1.091  11.161  22.637  0.00  0.00    +0.000 C 
ATOM     12  N   UNL     1      -1.771  10.587  23.703  0.00  0.00    +0.000 N 
ATOM     13  N   UNL     1       0.110  11.103  22.177  0.00  0.00    +0.000 NA
ATOM     14  C   UNL     1       0.553  12.893  20.036  0.00  0.00    +0.000 C 
ATOM     15  C   UNL     1      -0.393  14.148  19.905  0.00  0.00    +0.000 C 
ATOM     16  C   UNL     1       0.214  15.357  19.224  0.00  0.00    +0.000 C 
ATOM     17  C   UNL     1       1.446  15.780  20.007  0.00  0.00    +0.000 C 
ATOM     18  C   UNL     1       2.468  14.635  19.999  0.00  0.00    +0.000 C 
ATOM     19  C   UNL     1       1.913  13.333  20.626  0.00  0.00    +0.000 C 
ATOM     20  C   UNL     1       0.690  12.452  18.538  0.00  0.00    +0.000 C 
ATOM     21  H   UNL     1      -2.676  10.253  23.342  0.00  0.00    +0.000 HD
ATOM     22  H   UNL     1      -2.110  11.302  24.346  0.00  0.00    +0.000 HD
ENDROOT
BRANCH   1  27
ATOM     23  C   UNL     1       4.231   5.409  19.204  0.00  0.00    +0.000 A 
ATOM     24  C   UNL     1       3.466   4.533  19.956  0.00  0.00    +0.000 A 
ATOM     25  N   UNL     1       2.255   4.836  20.488  0.00  0.00    +0.000 NA
ATOM     26  C   UNL     1       1.767   6.085  20.246  0.00  0.00    +0.000 A 
ATOM     27  C   UNL     1       2.415   7.072  19.509  0.00  0.00    +0.000 A 
ATOM     28  C   UNL     1       3.688   6.697  19.003  0.00  0.00    +0.000 A 
BRANCH  23  31
ATOM     29  C   UNL     1       7.804   4.315  17.502  0.00  0.00    +0.000 C 
ATOM     30  C   UNL     1       6.533   4.697  18.120  0.00  0.00    +0.000 C 
ATOM     31  C   UNL     1       5.491   5.013  18.618  0.00  0.00    +0.000 C 
ENDBRANCH  23  31
ENDBRANCH   1  27
BRANCH  17  32
ATOM     32  O   UNL     1       1.919  16.976  19.393  0.00  0.00    +0.000 OA
ATOM     33  C   UNL     1       2.619  16.748  18.181  0.00  0.00    +0.000 C 
ENDBRANCH  17  32
TORSDOF 3
ENDMDL
MODEL 6
REMARK VINA RESULT:      -7.0      4.418      6.838
REMARK  Name = 
REMARK  6 active torsions:
REMARK  status: ('A' for Active; 'I' for Inactive)
REMARK    1  A    between atoms: C_1  and  C_2
REMARK    2  A    between atoms: C_3  and  C_4
REMARK    3  A    between atoms: C_8  and  C_9
REMARK    4  A    between atoms: C_17  and  C_18
REMARK    5  A    between atoms: C_25  and  O_26
REMARK    6  A    between atoms: O_26  and  C_27
REMARK                            x       y       z     vdW  Elec       q    Type
REMARK                         _______ _______ _______ _____ _____    ______ ____
ROOT
ATOM      1  C   UNL     1       3.334  15.645  18.869  0.00  0.00    +0.000 A 
ATOM      2  C   UNL     1       2.536  16.751  19.228  0.00  0.00    +0.000 A 
ATOM      3  C   UNL     1       1.201  16.605  19.578  0.00  0.00    +0.000 A 
ATOM      4  C   UNL     1       0.640  15.342  19.534  0.00  0.00    +0.000 A 
ATOM      5  C   UNL     1       1.306  14.220  19.053  0.00  0.00    +0.000 A 
ATOM      6  C   UNL     1       2.682  14.372  18.754  0.00  0.00    +0.000 A 
ATOM      7  C   UNL     1       0.449  12.939  19.264  0.00  0.00    +0.000 C 
ATOM      8  N   UNL     1      -0.567  12.471  18.236  0.00  0.00    +0.000 NA
ATOM      9  C   UNL     1      -0.419  11.194  18.446  0.00  0.00    +0.000 C 
ATOM     10  C   UNL     1      -1.168  10.237  19.363  0.00  0.00    +0.000 C 
ATOM     11  C   UNL     1       0.988  10.950  18.540  0.00  0.00    +0.000 C 
ATOM     12  N   UNL     1       1.515   9.878  17.832  0.00  0.00    +0.000 N 
ATOM     13  N   UNL     1       1.435  11.774  19.422  0.00  0.00    +0.000 NA
ATOM     14  C   UNL     1      -0.570  13.487  20.438  0.00  0.00    +0.000 C 
ATOM     15  C   UNL     1      -2.073  13.020  20.333  0.00  0.00    +0.000 C 
ATOM     16  C   UNL     1      -3.006  13.573  21.390  0.00  0.00    +0.000 C 
ATOM     17  C   UNL     1      -2.482  13.158  22.755  0.00  0.00    +0.000 C 
ATOM     18  C   UNL     1      -1.082  13.751  22.962  0.00  0.00    +0.000 C 
ATOM     19  C   UNL     1      -0.069  13.287  21.888  0.00  0.00    +0.000 C 
ATOM     20  C   UNL     1      -0.693  15.006  20.075  0.00  0.00    +0.000 C 
ATOM     21  H   UNL     1       1.227   9.991  16.850  0.00  0.00    +0.000 HD
ATOM     22  H   UNL     1       1.012   9.016  18.047  0.00  0.00    +0.000 HD
ENDROOT
BRANCH   1  27
ATOM     23  C   UNL     1       7.095  15.010  18.307  0.00  0.00    +0.000 A 
ATOM     24  C   UNL     1       7.539  16.312  18.459  0.00  0.00    +0.000 A 
ATOM     25  N   UNL     1       6.731  17.375  18.697  0.00  0.00    +0.000 NA
ATOM     26  C   UNL     1       5.395  17.126  18.804  0.00  0.00    +0.000 A 
ATOM     27  C   UNL     1       4.799  15.874  18.678  0.00  0.00    +0.000 A 
ATOM     28  C   UNL     1       5.701  14.812  18.405  0.00  0.00    +0.000 A 
BRANCH  23  31
ATOM     29  C   UNL     1       9.689  11.871  17.785  0.00  0.00    +0.000 C 
ATOM     30  C   UNL     1       8.765  12.992  17.957  0.00  0.00    +0.000 C 
ATOM     31  C   UNL     1       8.010  13.909  18.106  0.00  0.00    +0.000 C 
ENDBRANCH  23  31
ENDBRANCH   1  27
BRANCH  17  32
ATOM     32  O   UNL     1      -3.443  13.608  23.706  0.00  0.00    +0.000 OA
ATOM     33  C   UNL     1      -4.080  12.552  24.407  0.00  0.00    +0.000 C 
ENDBRANCH  17  32
TORSDOF 3
ENDMDL
MODEL 7
REMARK VINA RESULT:      -7.0      5.486     10.979
REMARK  Name = 
REMARK  6 active torsions:
REMARK  status: ('A' for Active; 'I' for Inactive)
REMARK    1  A    between atoms: C_1  and  C_2
REMARK    2  A    between atoms: C_3  and  C_4
REMARK    3  A    between atoms: C_8  and  C_9
REMARK    4  A    between atoms: C_17  and  C_18
REMARK    5  A    between atoms: C_25  and  O_26
REMARK    6  A    between atoms: O_26  and  C_27
REMARK                            x       y       z     vdW  Elec       q    Type
REMARK                         _______ _______ _______ _____ _____    ______ ____
ROOT
ATOM      1  C   UNL     1       0.896   9.003  18.113  0.00  0.00    +0.000 A 
ATOM      2  C   UNL     1       2.033   9.780  17.808  0.00  0.00    +0.000 A 
ATOM      3  C   UNL     1       3.308   9.234  17.798  0.00  0.00    +0.000 A 
ATOM      4  C   UNL     1       3.461   7.901  18.132  0.00  0.00    +0.000 A 
ATOM      5  C   UNL     1       2.419   7.098  18.587  0.00  0.00    +0.000 A 
ATOM      6  C   UNL     1       1.117   7.650  18.539  0.00  0.00    +0.000 A 
ATOM      7  C   UNL     1       2.891   5.624  18.747  0.00  0.00    +0.000 C 
ATOM      8  N   UNL     1       3.519   5.114  20.033  0.00  0.00    +0.000 NA
ATOM      9  C   UNL     1       3.047   3.901  19.962  0.00  0.00    +0.000 C 
ATOM     10  C   UNL     1       3.643   2.629  19.374  0.00  0.00    +0.000 C 
ATOM     11  C   UNL     1       1.673   4.012  19.577  0.00  0.00    +0.000 C 
ATOM     12  N   UNL     1       0.735   3.264  20.277  0.00  0.00    +0.000 N 
ATOM     13  N   UNL     1       1.657   4.742  18.517  0.00  0.00    +0.000 NA
ATOM     14  C   UNL     1       4.225   5.661  17.780  0.00  0.00    +0.000 C 
ATOM     15  C   UNL     1       5.481   4.854  18.288  0.00  0.00    +0.000 C 
ATOM     16  C   UNL     1       6.713   4.940  17.412  0.00  0.00    +0.000 C 
ATOM     17  C   UNL     1       6.355   4.424  16.029  0.00  0.00    +0.000 C 
ATOM     18  C   UNL     1       5.252   5.306  15.429  0.00  0.00    +0.000 C 
ATOM     19  C   UNL     1       3.967   5.327  16.291  0.00  0.00    +0.000 C 
ATOM     20  C   UNL     1       4.714   7.139  17.962  0.00  0.00    +0.000 C 
ATOM     21  H   UNL     1       0.856   3.482  21.276  0.00  0.00    +0.000 HD
ATOM     22  H   UNL     1       0.997   2.278  20.296  0.00  0.00    +0.000 HD
ENDROOT
BRANCH   1  27
ATOM     23  C   UNL     1      -2.415  10.160  16.511  0.00  0.00    +0.000 A 
ATOM     24  C   UNL     1      -2.889  10.921  17.567  0.00  0.00    +0.000 A 
ATOM     25  N   UNL     1      -2.249  11.068  18.754  0.00  0.00    +0.000 NA
ATOM     26  C   UNL     1      -1.054  10.428  18.896  0.00  0.00    +0.000 A 
ATOM     27  C   UNL     1      -0.448   9.632  17.929  0.00  0.00    +0.000 A 
ATOM     28  C   UNL     1      -1.184   9.500  16.722  0.00  0.00    +0.000 A 
BRANCH  23  31
ATOM     29  C   UNL     1      -4.367   9.918  12.908  0.00  0.00    +0.000 C 
ATOM     30  C   UNL     1      -3.683  10.008  14.199  0.00  0.00    +0.000 C 
ATOM     31  C   UNL     1      -3.116  10.082  15.250  0.00  0.00    +0.000 C 
ENDBRANCH  23  31
ENDBRANCH   1  27
BRANCH  17  32
ATOM     32  O   UNL     1       7.564   4.426  15.275  0.00  0.00    +0.000 OA
ATOM     33  C   UNL     1       7.385   4.810  13.922  0.00  0.00    +0.000 C 
ENDBRANCH  17  32
TORSDOF 3
ENDMDL
