MODEL 1
REMARK VINA RESULT:      -7.2      0.000      0.000
REMARK  Name = 
REMARK  7 active torsions:
REMARK  status: ('A' for Active; 'I' for Inactive)
REMARK    1  A    between atoms: C_1  and  O_2
REMARK    2  A    between atoms: O_2  and  C_3
REMARK    3  A    between atoms: C_5  and  O_6
REMARK    4  A    between atoms: O_6  and  C_7
REMARK    5  A    between atoms: C_13  and  N_14
REMARK    6  A    between atoms: C_15  and  N_16
REMARK    7  A    between atoms: N_29  and  C_30
REMARK                            x       y       z     vdW  Elec       q    Type
REMARK                         _______ _______ _______ _____ _____    ______ ____
ROOT
ATOM      1  C   UNL     1       2.604   5.503  20.284  0.00  0.00    +0.000 A 
ATOM      2  C   UNL     1       3.258   5.800  19.096  0.00  0.00    +0.000 A 
ATOM      3  C   UNL     1       3.014   7.003  18.439  0.00  0.00    +0.000 A 
ATOM      4  C   UNL     1       2.094   7.926  18.995  0.00  0.00    +0.000 A 
ATOM      5  C   UNL     1       1.778   9.203  18.310  0.00  0.00    +0.000 A 
ATOM      6  O   UNL     1       2.332   9.544  17.252  0.00  0.00    +0.000 OA
ATOM      7  C   UNL     1       0.790  10.109  18.890  0.00  0.00    +0.000 A 
ATOM      8  C   UNL     1       0.472  11.282  18.181  0.00  0.00    +0.000 A 
ATOM      9  C   UNL     1      -0.392  12.230  18.711  0.00  0.00    +0.000 A 
ATOM     10  C   UNL     1      -1.035  11.985  19.943  0.00  0.00    +0.000 A 
ATOM     11  C   UNL     1      -0.707  10.784  20.625  0.00  0.00    +0.000 A 
ATOM     12  C   UNL     1       0.193   9.821  20.126  0.00  0.00    +0.000 A 
ATOM     13  N   UNL     1       0.514   8.605  20.766  0.00  0.00    +0.000 N 
ATOM     14  C   UNL     1      -0.145   8.221  22.020  0.00  0.00    +0.000 C 
ATOM     15  C   UNL     1       1.427   7.658  20.214  0.00  0.00    +0.000 A 
ATOM     16  C   UNL     1       1.708   6.425  20.835  0.00  0.00    +0.000 A 
ENDROOT
BRANCH  10  17
ATOM     17  N   UNL     1      -1.942  12.879  20.492  0.00  0.00    +0.000 N 
ATOM     18  C   UNL     1      -3.379  12.855  20.183  0.00  0.00    +0.000 C 
ATOM     19  C   UNL     1      -4.205  12.735  21.471  0.00  0.00    +0.000 C 
ATOM     20  N   UNL     1      -3.813  13.763  22.431  0.00  0.00    +0.000 N 
ATOM     21  C   UNL     1      -4.695  14.644  22.949  0.00  0.00    +0.000 A 
ATOM     22  N   UNL     1      -4.372  15.863  23.333  0.00  0.00    +0.000 NA
ATOM     23  C   UNL     1      -5.469  16.513  23.854  0.00  0.00    +0.000 A 
ATOM     24  C   UNL     1      -6.623  15.772  23.923  0.00  0.00    +0.000 A 
ATOM     25  S   UNL     1      -6.358  14.237  23.231  0.00  0.00    +0.000 S 
ATOM     26  C   UNL     1      -2.378  13.920  22.704  0.00  0.00    +0.000 C 
ATOM     27  C   UNL     1      -1.541  13.956  21.410  0.00  0.00    +0.000 C 
ENDBRANCH  10  17
BRANCH   9  28
ATOM     28  N   UNL     1      -0.695  13.354  17.916  0.00  0.00    +0.000 N 
ATOM     29  H   UNL     1      -1.662  13.620  17.908  0.00  0.00    +0.000 HD
ATOM     30  H   UNL     1      -0.343  13.204  16.977  0.00  0.00    +0.000 HD
ENDBRANCH   9  28
BRANCH   1  32
ATOM     31  C   UNL     1       1.569   3.525  21.063  0.00  0.00    +0.000 C 
ATOM     32  O   UNL     1       2.744   4.329  20.976  0.00  0.00    +0.000 OA
ENDBRANCH   1  32
BRANCH   3  33
ATOM     33  O   UNL     1       3.620   7.332  17.253  0.00  0.00    +0.000 OA
ATOM     34  C   UNL     1       4.720   6.562  16.795  0.00  0.00    +0.000 C 
ENDBRANCH   3  33
TORSDOF 4
ENDMDL
MODEL 2
REMARK VINA RESULT:      -7.2      3.711      5.246
REMARK  Name = 
REMARK  7 active torsions:
REMARK  status: ('A' for Active; 'I' for Inactive)
REMARK    1  A    between atoms: C_1  and  O_2
REMARK    2  A    between atoms: O_2  and  C_3
REMARK    3  A    between atoms: C_5  and  O_6
REMARK    4  A    between atoms: O_6  and  C_7
REMARK    5  A    between atoms: C_13  and  N_14
REMARK    6  A    between atoms: C_15  and  N_16
REMARK    7  A    between atoms: N_29  and  C_30
REMARK                            x       y       z     vdW  Elec       q    Type
REMARK                         _______ _______ _______ _____ _____    ______ ____
ROOT
ATOM      1  C   UNL     1       4.623   4.012  17.123  0.00  0.00    +0.000 A 
ATOM      2  C   UNL     1       4.100   3.176  18.102  0.00  0.00    +0.000 A 
ATOM      3  C   UNL     1       3.245   3.682  19.077  0.00  0.00    +0.000 A 
ATOM      4  C   UNL     1       2.910   5.059  19.062  0.00  0.00    +0.000 A 
ATOM      5  C   UNL     1       2.032   5.646  20.103  0.00  0.00    +0.000 A 
ATOM      6  O   UNL     1       1.515   4.961  21.001  0.00  0.00    +0.000 OA
ATOM      7  C   UNL     1       1.744   7.078  20.082  0.00  0.00    +0.000 A 
ATOM      8  C   UNL     1       0.957   7.610  21.120  0.00  0.00    +0.000 A 
ATOM      9  C   UNL     1       0.572   8.943  21.118  0.00  0.00    +0.000 A 
ATOM     10  C   UNL     1       1.042   9.810  20.110  0.00  0.00    +0.000 A 
ATOM     11  C   UNL     1       1.850   9.248  19.087  0.00  0.00    +0.000 A 
ATOM     12  C   UNL     1       2.227   7.890  19.045  0.00  0.00    +0.000 A 
ATOM     13  N   UNL     1       3.054   7.310  18.060  0.00  0.00    +0.000 N 
ATOM     14  C   UNL     1       3.649   8.134  17.001  0.00  0.00    +0.000 C 
ATOM     15  C   UNL     1       3.413   5.929  18.066  0.00  0.00    +0.000 A 
ATOM     16  C   UNL     1       4.276   5.366  17.106  0.00  0.00    +0.000 A 
ENDROOT
BRANCH  10  17
ATOM     17  N   UNL     1       0.725  11.160  20.090  0.00  0.00    +0.000 N 
ATOM     18  C   UNL     1       1.548  12.187  20.745  0.00  0.00    +0.000 C 
ATOM     19  C   UNL     1       1.960  13.270  19.738  0.00  0.00    +0.000 C 
ATOM     20  N   UNL     1       0.790  13.792  19.037  0.00  0.00    +0.000 N 
ATOM     21  C   UNL     1       0.474  15.104  19.036  0.00  0.00    +0.000 A 
ATOM     22  N   UNL     1      -0.760  15.559  18.939  0.00  0.00    +0.000 NA
ATOM     23  C   UNL     1      -0.769  16.937  18.926  0.00  0.00    +0.000 A 
ATOM     24  C   UNL     1       0.465  17.540  18.957  0.00  0.00    +0.000 A 
ATOM     25  S   UNL     1       1.679  16.352  19.096  0.00  0.00    +0.000 S 
ATOM     26  C   UNL     1      -0.139  12.816  18.453  0.00  0.00    +0.000 C 
ATOM     27  C   UNL     1      -0.486  11.684  19.440  0.00  0.00    +0.000 C 
ENDBRANCH  10  17
BRANCH   9  28
ATOM     28  N   UNL     1      -0.176   9.408  22.219  0.00  0.00    +0.000 N 
ATOM     29  H   UNL     1      -0.926  10.033  21.990  0.00  0.00    +0.000 HD
ATOM     30  H   UNL     1       0.452   9.817  22.902  0.00  0.00    +0.000 HD
ENDBRANCH   9  28
BRANCH   1  32
ATOM     31  C   UNL     1       6.700   4.389  16.058  0.00  0.00    +0.000 C 
ATOM     32  O   UNL     1       5.506   3.615  16.153  0.00  0.00    +0.000 OA
ENDBRANCH   1  32
BRANCH   3  33
ATOM     33  O   UNL     1       2.721   2.901  20.075  0.00  0.00    +0.000 OA
ATOM     34  C   UNL     1       1.827   1.851  19.742  0.00  0.00    +0.000 C 
ENDBRANCH   3  33
TORSDOF 4
ENDMDL
MODEL 3
REMARK VINA RESULT:      -7.1      1.900      3.546
REMARK  Name = 
REMARK  7 active torsions:
REMARK  status: ('A' for Active; 'I' for Inactive)
REMARK    1  A    between atoms: C_1  and  O_2
REMARK    2  A    between atoms: O_2  and  C_3
REMARK    3  A    between atoms: C_5  and  O_6
REMARK    4  A    between atoms: O_6  and  C_7
REMARK    5  A    between atoms: C_13  and  N_14
REMARK    6  A    between atoms: C_15  and  N_16
REMARK    7  A    between atoms: N_29  and  C_30
REMARK                            x       y       z     vdW  Elec       q    Type
REMARK                         _______ _______ _______ _____ _____    ______ ____
ROOT
ATOM      1  C   UNL     1       4.457   5.918  16.973  0.00  0.00    +0.000 A 
ATOM      2  C   UNL     1       4.263   4.887  17.882  0.00  0.00    +0.000 A 
ATOM      3  C   UNL     1       3.432   5.067  18.986  0.00  0.00    +0.000 A 
ATOM      4  C   UNL     1       2.783   6.313  19.171  0.00  0.00    +0.000 A 
ATOM      5  C   UNL     1       1.919   6.560  20.351  0.00  0.00    +0.000 A 
ATOM      6  O   UNL     1       1.686   5.683  21.200  0.00  0.00    +0.000 OA
ATOM      7  C   UNL     1       1.302   7.871  20.533  0.00  0.00    +0.000 A 
ATOM      8  C   UNL     1       0.538   8.087  21.695  0.00  0.00    +0.000 A 
ATOM      9  C   UNL     1      -0.146   9.277  21.893  0.00  0.00    +0.000 A 
ATOM     10  C   UNL     1      -0.014  10.329  20.962  0.00  0.00    +0.000 A 
ATOM     11  C   UNL     1       0.779  10.087  19.810  0.00  0.00    +0.000 A 
ATOM     12  C   UNL     1       1.457   8.875  19.567  0.00  0.00    +0.000 A 
ATOM     13  N   UNL     1       2.276   8.617  18.447  0.00  0.00    +0.000 N 
ATOM     14  C   UNL     1       2.533   9.663  17.450  0.00  0.00    +0.000 C 
ATOM     15  C   UNL     1       2.949   7.375  18.250  0.00  0.00    +0.000 A 
ATOM     16  C   UNL     1       3.802   7.140  17.155  0.00  0.00    +0.000 A 
ENDROOT
BRANCH  10  17
ATOM     17  N   UNL     1      -0.640  11.554  21.139  0.00  0.00    +0.000 N 
ATOM     18  C   UNL     1      -1.944  11.882  20.544  0.00  0.00    +0.000 C 
ATOM     19  C   UNL     1      -2.936  12.320  21.630  0.00  0.00    +0.000 C 
ATOM     20  N   UNL     1      -2.365  13.383  22.451  0.00  0.00    +0.000 N 
ATOM     21  C   UNL     1      -2.967  14.581  22.606  0.00  0.00    +0.000 A 
ATOM     22  N   UNL     1      -2.315  15.706  22.824  0.00  0.00    +0.000 NA
ATOM     23  C   UNL     1      -3.195  16.754  22.978  0.00  0.00    +0.000 A 
ATOM     24  C   UNL     1      -4.528  16.424  22.935  0.00  0.00    +0.000 A 
ATOM     25  S   UNL     1      -4.693  14.761  22.600  0.00  0.00    +0.000 S 
ATOM     26  C   UNL     1      -1.014  13.170  22.987  0.00  0.00    +0.000 C 
ATOM     27  C   UNL     1      -0.038  12.651  21.913  0.00  0.00    +0.000 C 
ENDBRANCH  10  17
BRANCH   9  28
ATOM     28  N   UNL     1      -0.850   9.432  23.106  0.00  0.00    +0.000 N 
ATOM     29  H   UNL     1      -1.848   9.457  23.018  0.00  0.00    +0.000 HD
ATOM     30  H   UNL     1      -0.499  10.249  23.594  0.00  0.00    +0.000 HD
ENDBRANCH   9  28
BRANCH   1  32
ATOM     31  C   UNL     1       6.579   5.295  16.136  0.00  0.00    +0.000 C 
ATOM     32  O   UNL     1       5.290   5.850  15.886  0.00  0.00    +0.000 OA
ENDBRANCH   1  32
BRANCH   3  33
ATOM     33  O   UNL     1       3.226   4.086  19.922  0.00  0.00    +0.000 OA
ATOM     34  C   UNL     1       4.013   2.907  19.880  0.00  0.00    +0.000 C 
ENDBRANCH   3  33
TORSDOF 4
ENDMDL
MODEL 4
REMARK VINA RESULT:      -7.1      2.516      4.426
REMARK  Name = 
REMARK  7 active torsions:
REMARK  status: ('A' for Active; 'I' for Inactive)
REMARK    1  A    between atoms: C_1  and  O_2
REMARK    2  A    between atoms: O_2  and  C_3
REMARK    3  A    between atoms: C_5  and  O_6
REMARK    4  A    between atoms: O_6  and  C_7
REMARK    5  A    between atoms: C_13  and  N_14
REMARK    6  A    between atoms: C_15  and  N_16
REMARK    7  A    between atoms: N_29  and  C_30
REMARK                            x       y       z     vdW  Elec       q    Type
REMARK                         _______ _______ _______ _____ _____    ______ ____
ROOT
ATOM      1  C   UNL     1       4.930   4.116  17.076  0.00  0.00    +0.000 A 
ATOM      2  C   UNL     1       4.569   3.264  18.111  0.00  0.00    +0.000 A 
ATOM      3  C   UNL     1       3.717   3.703  19.122  0.00  0.00    +0.000 A 
ATOM      4  C   UNL     1       3.219   5.029  19.083  0.00  0.00    +0.000 A 
ATOM      5  C   UNL     1       2.338   5.550  20.156  0.00  0.00    +0.000 A 
ATOM      6  O   UNL     1       1.961   4.845  21.107  0.00  0.00    +0.000 OA
ATOM      7  C   UNL     1       1.879   6.936  20.107  0.00  0.00    +0.000 A 
ATOM      8  C   UNL     1       1.096   7.412  21.174  0.00  0.00    +0.000 A 
ATOM      9  C   UNL     1       0.554   8.689  21.153  0.00  0.00    +0.000 A 
ATOM     10  C   UNL     1       0.858   9.565  20.090  0.00  0.00    +0.000 A 
ATOM     11  C   UNL     1       1.666   9.061  19.037  0.00  0.00    +0.000 A 
ATOM     12  C   UNL     1       2.200   7.757  19.016  0.00  0.00    +0.000 A 
ATOM     13  N   UNL     1       3.032   7.240  18.000  0.00  0.00    +0.000 N 
ATOM     14  C   UNL     1       3.462   8.086  16.881  0.00  0.00    +0.000 C 
ATOM     15  C   UNL     1       3.555   5.913  18.029  0.00  0.00    +0.000 A 
ATOM     16  C   UNL     1       4.422   5.418  17.036  0.00  0.00    +0.000 A 
ENDROOT
BRANCH  10  17
ATOM     17  N   UNL     1       0.380  10.866  20.046  0.00  0.00    +0.000 N 
ATOM     18  C   UNL     1      -0.932  11.221  19.485  0.00  0.00    +0.000 C 
ATOM     19  C   UNL     1      -1.772  11.984  20.518  0.00  0.00    +0.000 C 
ATOM     20  N   UNL     1      -1.022  13.115  21.057  0.00  0.00    +0.000 N 
ATOM     21  C   UNL     1      -1.481  14.383  20.996  0.00  0.00    +0.000 A 
ATOM     22  N   UNL     1      -0.700  15.442  20.928  0.00  0.00    +0.000 NA
ATOM     23  C   UNL     1      -1.449  16.598  20.917  0.00  0.00    +0.000 A 
ATOM     24  C   UNL     1      -2.807  16.427  21.034  0.00  0.00    +0.000 A 
ATOM     25  S   UNL     1      -3.173  14.763  21.069  0.00  0.00    +0.000 S 
ATOM     26  C   UNL     1       0.343  12.855  21.534  0.00  0.00    +0.000 C 
ATOM     27  C   UNL     1       1.159  12.016  20.529  0.00  0.00    +0.000 C 
ENDBRANCH  10  17
BRANCH   9  28
ATOM     28  N   UNL     1      -0.179   9.106  22.283  0.00  0.00    +0.000 N 
ATOM     29  H   UNL     1      -0.305  10.097  22.366  0.00  0.00    +0.000 HD
ATOM     30  H   UNL     1       0.242   8.714  23.118  0.00  0.00    +0.000 HD
ENDBRANCH   9  28
BRANCH   1  32
ATOM     31  C   UNL     1       6.744   4.795  15.721  0.00  0.00    +0.000 C 
ATOM     32  O   UNL     1       5.796   3.788  16.066  0.00  0.00    +0.000 OA
ENDBRANCH   1  32
BRANCH   3  33
ATOM     33  O   UNL     1       3.350   2.907  20.175  0.00  0.00    +0.000 OA
ATOM     34  C   UNL     1       4.312   2.053  20.773  0.00  0.00    +0.000 C 
ENDBRANCH   3  33
TORSDOF 4
ENDMDL
MODEL 5
REMARK VINA RESULT:      -7.1      2.032      3.183
REMARK  Name = 
REMARK  7 active torsions:
REMARK  status: ('A' for Active; 'I' for Inactive)
REMARK    1  A    between atoms: C_1  and  O_2
REMARK    2  A    between atoms: O_2  and  C_3
REMARK    3  A    between atoms: C_5  and  O_6
REMARK    4  A    between atoms: O_6  and  C_7
REMARK    5  A    between atoms: C_13  and  N_14
REMARK    6  A    between atoms: C_15  and  N_16
REMARK    7  A    between atoms: N_29  and  C_30
REMARK                            x       y       z     vdW  Elec       q    Type
REMARK                         _______ _______ _______ _____ _____    ______ ____
ROOT
ATOM      1  C   UNL     1       4.079   3.267  18.531  0.00  0.00    +0.000 A 
ATOM      2  C   UNL     1       4.732   3.762  17.410  0.00  0.00    +0.000 A 
ATOM      3  C   UNL     1       4.566   5.090  17.026  0.00  0.00    +0.000 A 
ATOM      4  C   UNL     1       3.726   5.935  17.792  0.00  0.00    +0.000 A 
ATOM      5  C   UNL     1       3.492   7.346  17.399  0.00  0.00    +0.000 A 
ATOM      6  O   UNL     1       4.052   7.864  16.418  0.00  0.00    +0.000 OA
ATOM      7  C   UNL     1       2.584   8.176  18.187  0.00  0.00    +0.000 A 
ATOM      8  C   UNL     1       2.341   9.490  17.748  0.00  0.00    +0.000 A 
ATOM      9  C   UNL     1       1.557  10.361  18.492  0.00  0.00    +0.000 A 
ATOM     10  C   UNL     1       0.919   9.907  19.666  0.00  0.00    +0.000 A 
ATOM     11  C   UNL     1       1.170   8.570  20.071  0.00  0.00    +0.000 A 
ATOM     12  C   UNL     1       1.989   7.675  19.354  0.00  0.00    +0.000 A 
ATOM     13  N   UNL     1       2.230   6.332  19.715  0.00  0.00    +0.000 N 
ATOM     14  C   UNL     1       1.566   5.740  20.882  0.00  0.00    +0.000 C 
ATOM     15  C   UNL     1       3.062   5.462  18.949  0.00  0.00    +0.000 A 
ATOM     16  C   UNL     1       3.262   4.111  19.290  0.00  0.00    +0.000 A 
ENDROOT
BRANCH  10  17
ATOM     17  N   UNL     1       0.090  10.725  20.418  0.00  0.00    +0.000 N 
ATOM     18  C   UNL     1       0.541  11.434  21.624  0.00  0.00    +0.000 C 
ATOM     19  C   UNL     1       0.280  12.941  21.493  0.00  0.00    +0.000 C 
ATOM     20  N   UNL     1      -1.112  13.193  21.132  0.00  0.00    +0.000 N 
ATOM     21  C   UNL     1      -1.922  13.975  21.876  0.00  0.00    +0.000 A 
ATOM     22  N   UNL     1      -3.228  13.810  21.954  0.00  0.00    +0.000 NA
ATOM     23  C   UNL     1      -3.791  14.778  22.756  0.00  0.00    +0.000 A 
ATOM     24  C   UNL     1      -2.923  15.722  23.249  0.00  0.00    +0.000 A 
ATOM     25  S   UNL     1      -1.332  15.340  22.771  0.00  0.00    +0.000 S 
ATOM     26  C   UNL     1      -1.665  12.434  20.002  0.00  0.00    +0.000 C 
ATOM     27  C   UNL     1      -1.330  10.932  20.094  0.00  0.00    +0.000 C 
ENDBRANCH  10  17
BRANCH   9  28
ATOM     28  N   UNL     1       1.324  11.646  17.959  0.00  0.00    +0.000 N 
ATOM     29  H   UNL     1       1.570  11.757  16.994  0.00  0.00    +0.000 HD
ATOM     30  H   UNL     1       1.783  12.338  18.542  0.00  0.00    +0.000 HD
ENDBRANCH   9  28
BRANCH   1  32
ATOM     31  C   UNL     1       4.527   1.786  20.319  0.00  0.00    +0.000 C 
ATOM     32  O   UNL     1       4.144   1.966  18.957  0.00  0.00    +0.000 OA
ENDBRANCH   1  32
BRANCH   3  33
ATOM     33  O   UNL     1       5.174   5.619  15.916  0.00  0.00    +0.000 OA
ATOM     34  C   UNL     1       5.490   4.770  14.824  0.00  0.00    +0.000 C 
ENDBRANCH   3  33
TORSDOF 4
ENDMDL
MODEL 6
REMARK VINA RESULT:      -7.0      1.058      1.118
REMARK  Name = 
REMARK  7 active torsions:
REMARK  status: ('A' for Active; 'I' for Inactive)
REMARK    1  A    between atoms: C_1  and  O_2
REMARK    2  A    between atoms: O_2  and  C_3
REMARK    3  A    between atoms: C_5  and  O_6
REMARK    4  A    between atoms: O_6  and  C_7
REMARK    5  A    between atoms: C_13  and  N_14
REMARK    6  A    between atoms: C_15  and  N_16
REMARK    7  A    between atoms: N_29  and  C_30
REMARK                            x       y       z     vdW  Elec       q    Type
REMARK                         _______ _______ _______ _____ _____    ______ ____
ROOT
ATOM      1  C   UNL     1       2.762   4.738  19.989  0.00  0.00    +0.000 A 
ATOM      2  C   UNL     1       3.401   4.992  18.783  0.00  0.00    +0.000 A 
ATOM      3  C   UNL     1       3.289   6.239  18.174  0.00  0.00    +0.000 A 
ATOM      4  C   UNL     1       2.519   7.251  18.799  0.00  0.00    +0.000 A 
ATOM      5  C   UNL     1       2.344   8.582  18.169  0.00  0.00    +0.000 A 
ATOM      6  O   UNL     1       2.895   8.888  17.098  0.00  0.00    +0.000 OA
ATOM      7  C   UNL     1       1.506   9.586  18.820  0.00  0.00    +0.000 A 
ATOM      8  C   UNL     1       1.314  10.815  18.162  0.00  0.00    +0.000 A 
ATOM      9  C   UNL     1       0.602  11.845  18.759  0.00  0.00    +0.000 A 
ATOM     10  C   UNL     1      -0.018  11.640  20.010  0.00  0.00    +0.000 A 
ATOM     11  C   UNL     1       0.179  10.383  20.640  0.00  0.00    +0.000 A 
ATOM     12  C   UNL     1       0.926   9.331  20.071  0.00  0.00    +0.000 A 
ATOM     13  N   UNL     1       1.112   8.062  20.658  0.00  0.00    +0.000 N 
ATOM     14  C   UNL     1       0.460   7.721  21.928  0.00  0.00    +0.000 C 
ATOM     15  C   UNL     1       1.873   7.026  20.038  0.00  0.00    +0.000 A 
ATOM     16  C   UNL     1       2.016   5.746  20.607  0.00  0.00    +0.000 A 
ENDROOT
BRANCH  10  17
ATOM     17  N   UNL     1      -0.779  12.622  20.626  0.00  0.00    +0.000 N 
ATOM     18  C   UNL     1      -2.207  12.825  20.344  0.00  0.00    +0.000 C 
ATOM     19  C   UNL     1      -3.028  12.751  21.639  0.00  0.00    +0.000 C 
ATOM     20  N   UNL     1      -2.480  13.653  22.648  0.00  0.00    +0.000 N 
ATOM     21  C   UNL     1      -3.218  14.620  23.232  0.00  0.00    +0.000 A 
ATOM     22  N   UNL     1      -2.717  15.755  23.678  0.00  0.00    +0.000 NA
ATOM     23  C   UNL     1      -3.702  16.525  24.256  0.00  0.00    +0.000 A 
ATOM     24  C   UNL     1      -4.951  15.956  24.305  0.00  0.00    +0.000 A 
ATOM     25  S   UNL     1      -4.920  14.442  23.522  0.00  0.00    +0.000 S 
ATOM     26  C   UNL     1      -1.035  13.583  22.902  0.00  0.00    +0.000 C 
ATOM     27  C   UNL     1      -0.216  13.574  21.596  0.00  0.00    +0.000 C 
ENDBRANCH  10  17
BRANCH   9  28
ATOM     28  N   UNL     1       0.415  13.027  18.014  0.00  0.00    +0.000 N 
ATOM     29  H   UNL     1       0.587  12.941  17.030  0.00  0.00    +0.000 HD
ATOM     30  H   UNL     1       0.968  13.772  18.424  0.00  0.00    +0.000 HD
ENDBRANCH   9  28
BRANCH   1  32
ATOM     31  C   UNL     1       1.627   3.249  21.433  0.00  0.00    +0.000 C 
ATOM     32  O   UNL     1       2.776   3.531  20.637  0.00  0.00    +0.000 OA
ENDBRANCH   1  32
BRANCH   3  33
ATOM     33  O   UNL     1       3.884   6.530  16.973  0.00  0.00    +0.000 OA
ATOM     34  C   UNL     1       5.073   5.851  16.601  0.00  0.00    +0.000 C 
ENDBRANCH   3  33
TORSDOF 4
ENDMDL
MODEL 7
REMARK VINA RESULT:      -6.9      2.382      4.000
REMARK  Name = 
REMARK  7 active torsions:
REMARK  status: ('A' for Active; 'I' for Inactive)
REMARK    1  A    between atoms: C_1  and  O_2
REMARK    2  A    between atoms: O_2  and  C_3
REMARK    3  A    between atoms: C_5  and  O_6
REMARK    4  A    between atoms: O_6  and  C_7
REMARK    5  A    between atoms: C_13  and  N_14
REMARK    6  A    between atoms: C_15  and  N_16
REMARK    7  A    between atoms: N_29  and  C_30
REMARK                            x       y       z     vdW  Elec       q    Type
REMARK                         _______ _______ _______ _____ _____    ______ ____
ROOT
ATOM      1  C   UNL     1       4.585   6.159  16.882  0.00  0.00    +0.000 A 
ATOM      2  C   UNL     1       4.465   5.091  17.761  0.00  0.00    +0.000 A 
ATOM      3  C   UNL     1       3.636   5.185  18.876  0.00  0.00    +0.000 A 
ATOM      4  C   UNL     1       2.911   6.380  19.104  0.00  0.00    +0.000 A 
ATOM      5  C   UNL     1       2.045   6.536  20.298  0.00  0.00    +0.000 A 
ATOM      6  O   UNL     1       1.876   5.621  21.121  0.00  0.00    +0.000 OA
ATOM      7  C   UNL     1       1.348   7.800  20.525  0.00  0.00    +0.000 A 
ATOM      8  C   UNL     1       0.583   7.931  21.699  0.00  0.00    +0.000 A 
ATOM      9  C   UNL     1      -0.174   9.069  21.939  0.00  0.00    +0.000 A 
ATOM     10  C   UNL     1      -0.117  10.155  21.040  0.00  0.00    +0.000 A 
ATOM     11  C   UNL     1       0.678   9.998  19.874  0.00  0.00    +0.000 A 
ATOM     12  C   UNL     1       1.429   8.840  19.588  0.00  0.00    +0.000 A 
ATOM     13  N   UNL     1       2.252   8.669  18.455  0.00  0.00    +0.000 N 
ATOM     14  C   UNL     1       2.433   9.758  17.489  0.00  0.00    +0.000 C 
ATOM     15  C   UNL     1       3.000   7.478  18.215  0.00  0.00    +0.000 A 
ATOM     16  C   UNL     1       3.855   7.331  17.106  0.00  0.00    +0.000 A 
ENDROOT
BRANCH  10  17
ATOM     17  N   UNL     1      -0.818  11.331  21.259  0.00  0.00    +0.000 N 
ATOM     18  C   UNL     1      -0.649  12.152  22.467  0.00  0.00    +0.000 C 
ATOM     19  C   UNL     1      -0.275  13.593  22.091  0.00  0.00    +0.000 C 
ATOM     20  N   UNL     1      -1.223  14.135  21.122  0.00  0.00    +0.000 N 
ATOM     21  C   UNL     1      -1.918  15.270  21.346  0.00  0.00    +0.000 A 
ATOM     22  N   UNL     1      -3.114  15.507  20.846  0.00  0.00    +0.000 NA
ATOM     23  C   UNL     1      -3.554  16.760  21.215  0.00  0.00    +0.000 A 
ATOM     24  C   UNL     1      -2.669  17.508  21.953  0.00  0.00    +0.000 A 
ATOM     25  S   UNL     1      -1.273  16.585  22.277  0.00  0.00    +0.000 S 
ATOM     26  C   UNL     1      -1.526  13.314  19.942  0.00  0.00    +0.000 C 
ATOM     27  C   UNL     1      -1.821  11.848  20.315  0.00  0.00    +0.000 C 
ENDBRANCH  10  17
BRANCH   9  28
ATOM     28  N   UNL     1      -0.873   9.142  23.161  0.00  0.00    +0.000 N 
ATOM     29  H   UNL     1      -1.155  10.065  23.435  0.00  0.00    +0.000 HD
ATOM     30  H   UNL     1      -0.327   8.690  23.887  0.00  0.00    +0.000 HD
ENDBRANCH   9  28
BRANCH   1  32
ATOM     31  C   UNL     1       6.542   5.313  15.859  0.00  0.00    +0.000 C 
ATOM     32  O   UNL     1       5.409   6.177  15.787  0.00  0.00    +0.000 OA
ENDBRANCH   1  32
BRANCH   3  33
ATOM     33  O   UNL     1       3.502   4.165  19.783  0.00  0.00    +0.000 OA
ATOM     34  C   UNL     1       4.274   2.986  19.625  0.00  0.00    +0.000 C 
ENDBRANCH   3  33
TORSDOF 4
ENDMDL
MODEL 8
REMARK VINA RESULT:      -6.9      2.811      4.550
REMARK  Name = 
REMARK  7 active torsions:
REMARK  status: ('A' for Active; 'I' for Inactive)
REMARK    1  A    between atoms: C_1  and  O_2
REMARK    2  A    between atoms: O_2  and  C_3
REMARK    3  A    between atoms: C_5  and  O_6
REMARK    4  A    between atoms: O_6  and  C_7
REMARK    5  A    between atoms: C_13  and  N_14
REMARK    6  A    between atoms: C_15  and  N_16
REMARK    7  A    between atoms: N_29  and  C_30
REMARK                            x       y       z     vdW  Elec       q    Type
REMARK                         _______ _______ _______ _____ _____    ______ ____
ROOT
ATOM      1  C   UNL     1       4.417   4.668  17.095  0.00  0.00    +0.000 A 
ATOM      2  C   UNL     1       4.041   3.716  18.033  0.00  0.00    +0.000 A 
ATOM      3  C   UNL     1       3.218   4.064  19.101  0.00  0.00    +0.000 A 
ATOM      4  C   UNL     1       2.764   5.401  19.222  0.00  0.00    +0.000 A 
ATOM      5  C   UNL     1       1.916   5.824  20.362  0.00  0.00    +0.000 A 
ATOM      6  O   UNL     1       1.528   5.028  21.233  0.00  0.00    +0.000 OA
ATOM      7  C   UNL     1       1.504   7.220  20.478  0.00  0.00    +0.000 A 
ATOM      8  C   UNL     1       0.751   7.596  21.606  0.00  0.00    +0.000 A 
ATOM      9  C   UNL     1       0.252   8.884  21.739  0.00  0.00    +0.000 A 
ATOM     10  C   UNL     1       0.571   9.866  20.777  0.00  0.00    +0.000 A 
ATOM     11  C   UNL     1       1.348   9.460  19.661  0.00  0.00    +0.000 A 
ATOM     12  C   UNL     1       1.838   8.150  19.482  0.00  0.00    +0.000 A 
ATOM     13  N   UNL     1       2.638   7.725  18.401  0.00  0.00    +0.000 N 
ATOM     14  C   UNL     1       3.081   8.679  17.377  0.00  0.00    +0.000 C 
ATOM     15  C   UNL     1       3.116   6.388  18.270  0.00  0.00    +0.000 A 
ATOM     16  C   UNL     1       3.953   5.982  17.212  0.00  0.00    +0.000 A 
ENDROOT
BRANCH  10  17
ATOM     17  N   UNL     1       0.136  11.178  20.890  0.00  0.00    +0.000 N 
ATOM     18  C   UNL     1       1.053  12.327  20.919  0.00  0.00    +0.000 C 
ATOM     19  C   UNL     1       0.693  13.331  19.816  0.00  0.00    +0.000 C 
ATOM     20  N   UNL     1      -0.721  13.687  19.886  0.00  0.00    +0.000 N 
ATOM     21  C   UNL     1      -1.140  14.964  20.014  0.00  0.00    +0.000 A 
ATOM     22  N   UNL     1      -2.259  15.309  20.620  0.00  0.00    +0.000 NA
ATOM     23  C   UNL     1      -2.441  16.674  20.561  0.00  0.00    +0.000 A 
ATOM     24  C   UNL     1      -1.488  17.371  19.860  0.00  0.00    +0.000 A 
ATOM     25  S   UNL     1      -0.271  16.301  19.330  0.00  0.00    +0.000 S 
ATOM     26  C   UNL     1      -1.691  12.588  19.973  0.00  0.00    +0.000 C 
ATOM     27  C   UNL     1      -1.284  11.537  21.025  0.00  0.00    +0.000 C 
ENDBRANCH  10  17
BRANCH   9  28
ATOM     28  N   UNL     1      -0.452   9.193  22.921  0.00  0.00    +0.000 N 
ATOM     29  H   UNL     1      -1.121   8.504  23.209  0.00  0.00    +0.000 HD
ATOM     30  H   UNL     1      -0.878  10.109  22.828  0.00  0.00    +0.000 HD
ENDBRANCH   9  28
BRANCH   1  32
ATOM     31  C   UNL     1       6.648   4.407  16.357  0.00  0.00    +0.000 C 
ATOM     32  O   UNL     1       5.258   4.430  16.040  0.00  0.00    +0.000 OA
ENDBRANCH   1  32
BRANCH   3  33
ATOM     33  O   UNL     1       2.838   3.165  20.064  0.00  0.00    +0.000 OA
ATOM     34  C   UNL     1       1.970   2.098  19.717  0.00  0.00    +0.000 C 
ENDBRANCH   3  33
TORSDOF 4
ENDMDL
MODEL 9
REMARK VINA RESULT:      -6.9      1.723      2.383
REMARK  Name = 
REMARK  7 active torsions:
REMARK  status: ('A' for Active; 'I' for Inactive)
REMARK    1  A    between atoms: C_1  and  O_2
REMARK    2  A    between atoms: O_2  and  C_3
REMARK    3  A    between atoms: C_5  and  O_6
REMARK    4  A    between atoms: O_6  and  C_7
REMARK    5  A    between atoms: C_13  and  N_14
REMARK    6  A    between atoms: C_15  and  N_16
REMARK    7  A    between atoms: N_29  and  C_30
REMARK                            x       y       z     vdW  Elec       q    Type
REMARK                         _______ _______ _______ _____ _____    ______ ____
ROOT
ATOM      1  C   UNL     1       3.543   3.693  19.041  0.00  0.00    +0.000 A 
ATOM      2  C   UNL     1       4.226   4.091  17.899  0.00  0.00    +0.000 A 
ATOM      3  C   UNL     1       4.132   5.402  17.441  0.00  0.00    +0.000 A 
ATOM      4  C   UNL     1       3.335   6.332  18.154  0.00  0.00    +0.000 A 
ATOM      5  C   UNL     1       3.178   7.729  17.683  0.00  0.00    +0.000 A 
ATOM      6  O   UNL     1       3.768   8.162  16.678  0.00  0.00    +0.000 OA
ATOM      7  C   UNL     1       2.312   8.648  18.418  0.00  0.00    +0.000 A 
ATOM      8  C   UNL     1       2.141   9.947  17.906  0.00  0.00    +0.000 A 
ATOM      9  C   UNL     1       1.402  10.898  18.596  0.00  0.00    +0.000 A 
ATOM     10  C   UNL     1       0.737  10.544  19.788  0.00  0.00    +0.000 A 
ATOM     11  C   UNL     1       0.915   9.220  20.269  0.00  0.00    +0.000 A 
ATOM     12  C   UNL     1       1.687   8.244  19.607  0.00  0.00    +0.000 A 
ATOM     13  N   UNL     1       1.856   6.913  20.043  0.00  0.00    +0.000 N 
ATOM     14  C   UNL     1       1.158   6.421  21.236  0.00  0.00    +0.000 C 
ATOM     15  C   UNL     1       2.643   5.959  19.331  0.00  0.00    +0.000 A 
ATOM     16  C   UNL     1       2.770   4.620  19.747  0.00  0.00    +0.000 A 
ENDROOT
BRANCH  10  17
ATOM     17  N   UNL     1      -0.051  11.445  20.489  0.00  0.00    +0.000 N 
ATOM     18  C   UNL     1      -1.178  12.167  19.881  0.00  0.00    +0.000 C 
ATOM     19  C   UNL     1      -2.468  11.919  20.676  0.00  0.00    +0.000 C 
ATOM     20  N   UNL     1      -2.262  12.207  22.093  0.00  0.00    +0.000 N 
ATOM     21  C   UNL     1      -3.019  13.098  22.767  0.00  0.00    +0.000 A 
ATOM     22  N   UNL     1      -2.583  13.798  23.796  0.00  0.00    +0.000 NA
ATOM     23  C   UNL     1      -3.587  14.594  24.302  0.00  0.00    +0.000 A 
ATOM     24  C   UNL     1      -4.813  14.462  23.695  0.00  0.00    +0.000 A 
ATOM     25  S   UNL     1      -4.690  13.374  22.389  0.00  0.00    +0.000 S 
ATOM     26  C   UNL     1      -1.088  11.607  22.740  0.00  0.00    +0.000 C 
ATOM     27  C   UNL     1       0.192  11.785  21.899  0.00  0.00    +0.000 C 
ENDBRANCH  10  17
BRANCH   9  28
ATOM     28  N   UNL     1       1.239  12.161  17.992  0.00  0.00    +0.000 N 
ATOM     29  H   UNL     1       2.091  12.623  17.733  0.00  0.00    +0.000 HD
ATOM     30  H   UNL     1       0.666  12.747  18.591  0.00  0.00    +0.000 HD
ENDBRANCH   9  28
BRANCH   1  32
ATOM     31  C   UNL     1       3.668   1.380  18.569  0.00  0.00    +0.000 C 
ATOM     32  O   UNL     1       3.538   2.417  19.539  0.00  0.00    +0.000 OA
ENDBRANCH   1  32
BRANCH   3  33
ATOM     33  O   UNL     1       4.771   5.836  16.307  0.00  0.00    +0.000 OA
ATOM     34  C   UNL     1       5.408   4.891  15.462  0.00  0.00    +0.000 C 
ENDBRANCH   3  33
TORSDOF 4
ENDMDL
