MODEL 1
REMARK VINA RESULT:      -7.5      0.000      0.000
REMARK  Name = 
REMARK  5 active torsions:
REMARK  status: ('A' for Active; 'I' for Inactive)
REMARK    1  A    between atoms: C_1  and  C_2
REMARK    2  A    between atoms: C_4  and  C_5
REMARK    3  A    between atoms: C_9  and  C_10
REMARK    4  A    between atoms: N_12  and  C_13
REMARK    5  A    between atoms: C_13  and  C_14
REMARK                            x       y       z     vdW  Elec       q    Type
REMARK                         _______ _______ _______ _____ _____    ______ ____
ROOT
ATOM      1  C   UNL     1       1.350   9.217  18.625  0.00  0.00    +0.000 C 
ATOM      2  O   UNL     1       1.808   9.305  17.491  0.00  0.00    +0.000 OA
ATOM      3  N   UNL     1       1.814   8.323  19.560  0.00  0.00    +0.000 N 
ATOM      4  H   UNL     1       1.369   8.325  20.476  0.00  0.00    +0.000 HD
ENDROOT
BRANCH   1  13
ATOM      5  C   UNL     1      -3.139  10.017  15.541  0.00  0.00    +0.000 C 
ATOM      6  C   UNL     1      -2.575  10.436  16.875  0.00  0.00    +0.000 A 
ATOM      7  C   UNL     1      -3.406  11.355  17.713  0.00  0.00    +0.000 A 
ATOM      8  C   UNL     1      -2.891  11.719  18.900  0.00  0.00    +0.000 A 
ATOM      9  C   UNL     1      -3.610  12.633  19.845  0.00  0.00    +0.000 C 
ATOM     10  N   UNL     1      -1.631  11.229  19.276  0.00  0.00    +0.000 N 
ATOM     11  N   UNL     1      -0.943  11.479  20.420  0.00  0.00    +0.000 NA
ATOM     12  C   UNL     1       0.185  10.780  20.290  0.00  0.00    +0.000 A 
ATOM     13  C   UNL     1       0.265  10.067  19.078  0.00  0.00    +0.000 A 
ATOM     14  C   UNL     1      -0.918  10.369  18.429  0.00  0.00    +0.000 A 
ATOM     15  N   UNL     1      -1.405   9.974  17.209  0.00  0.00    +0.000 NA
ENDBRANCH   1  13
BRANCH   3  16
ATOM     16  C   UNL     1       2.853   7.361  19.290  0.00  0.00    +0.000 C 
BRANCH  16  17
ATOM     17  C   UNL     1       2.306   5.957  19.192  0.00  0.00    +0.000 A 
ATOM     18  C   UNL     1       1.783   5.307  20.320  0.00  0.00    +0.000 A 
ATOM     19  C   UNL     1       1.239   4.024  20.211  0.00  0.00    +0.000 A 
ATOM     20  C   UNL     1       1.216   3.383  18.974  0.00  0.00    +0.000 A 
ATOM     21 CL   UNL     1       0.538   1.807  18.839  0.00  0.00    +0.000 Cl
ATOM     22  C   UNL     1       1.732   4.014  17.845  0.00  0.00    +0.000 A 
ATOM     23  C   UNL     1       2.272   5.297  17.953  0.00  0.00    +0.000 A 
ENDBRANCH  16  17
ENDBRANCH   3  16
TORSDOF 3
ENDMDL
MODEL 2
REMARK VINA RESULT:      -7.5      0.077      1.033
REMARK  Name = 
REMARK  5 active torsions:
REMARK  status: ('A' for Active; 'I' for Inactive)
REMARK    1  A    between atoms: C_1  and  C_2
REMARK    2  A    between atoms: C_4  and  C_5
REMARK    3  A    between atoms: C_9  and  C_10
REMARK    4  A    between atoms: N_12  and  C_13
REMARK    5  A    between atoms: C_13  and  C_14
REMARK                            x       y       z     vdW  Elec       q    Type
REMARK                         _______ _______ _______ _____ _____    ______ ____
ROOT
ATOM      1  C   UNL     1       1.343   9.288  18.657  0.00  0.00    +0.000 C 
ATOM      2  O   UNL     1       1.862   9.423  17.554  0.00  0.00    +0.000 OA
ATOM      3  N   UNL     1       1.746   8.344  19.571  0.00  0.00    +0.000 N 
ATOM      4  H   UNL     1       1.251   8.310  20.460  0.00  0.00    +0.000 HD
ENDROOT
BRANCH   1  13
ATOM      5  C   UNL     1      -3.130  10.002  15.528  0.00  0.00    +0.000 C 
ATOM      6  C   UNL     1      -2.581  10.443  16.862  0.00  0.00    +0.000 A 
ATOM      7  C   UNL     1      -3.429  11.363  17.683  0.00  0.00    +0.000 A 
ATOM      8  C   UNL     1      -2.927  11.747  18.869  0.00  0.00    +0.000 A 
ATOM      9  C   UNL     1      -3.664  12.663  19.797  0.00  0.00    +0.000 C 
ATOM     10  N   UNL     1      -1.665  11.275  19.260  0.00  0.00    +0.000 N 
ATOM     11  N   UNL     1      -0.989  11.546  20.406  0.00  0.00    +0.000 NA
ATOM     12  C   UNL     1       0.148  10.858  20.294  0.00  0.00    +0.000 A 
ATOM     13  C   UNL     1       0.245  10.131  19.091  0.00  0.00    +0.000 A 
ATOM     14  C   UNL     1      -0.936  10.413  18.429  0.00  0.00    +0.000 A 
ATOM     15  N   UNL     1      -1.409   9.998  17.211  0.00  0.00    +0.000 NA
ENDBRANCH   1  13
BRANCH   3  16
ATOM     16  C   UNL     1       2.786   7.382  19.311  0.00  0.00    +0.000 C 
BRANCH  16  17
ATOM     17  C   UNL     1       2.235   5.982  19.178  0.00  0.00    +0.000 A 
ATOM     18  C   UNL     1       2.227   5.325  17.938  0.00  0.00    +0.000 A 
ATOM     19  C   UNL     1       1.755   4.014  17.832  0.00  0.00    +0.000 A 
ATOM     20  C   UNL     1       1.286   3.352  18.966  0.00  0.00    +0.000 A 
ATOM     21 CL   UNL     1       0.712   1.735  18.837  0.00  0.00    +0.000 Cl
ATOM     22  C   UNL     1       1.285   3.991  20.203  0.00  0.00    +0.000 A 
ATOM     23  C   UNL     1       1.760   5.300  20.309  0.00  0.00    +0.000 A 
ENDBRANCH  16  17
ENDBRANCH   3  16
TORSDOF 3
ENDMDL
MODEL 3
REMARK VINA RESULT:      -7.4      3.048      7.705
REMARK  Name = 
REMARK  5 active torsions:
REMARK  status: ('A' for Active; 'I' for Inactive)
REMARK    1  A    between atoms: C_1  and  C_2
REMARK    2  A    between atoms: C_4  and  C_5
REMARK    3  A    between atoms: C_9  and  C_10
REMARK    4  A    between atoms: N_12  and  C_13
REMARK    5  A    between atoms: C_13  and  C_14
REMARK                            x       y       z     vdW  Elec       q    Type
REMARK                         _______ _______ _______ _____ _____    ______ ____
ROOT
ATOM      1  C   UNL     1       1.649   8.172  20.019  0.00  0.00    +0.000 C 
ATOM      2  O   UNL     1       1.443   8.058  21.223  0.00  0.00    +0.000 OA
ATOM      3  N   UNL     1       1.252   9.263  19.284  0.00  0.00    +0.000 N 
ATOM      4  H   UNL     1       1.469   9.265  18.290  0.00  0.00    +0.000 HD
ENDROOT
BRANCH   1  13
ATOM      5  C   UNL     1       1.637   2.913  21.649  0.00  0.00    +0.000 C 
ATOM      6  C   UNL     1       2.190   3.768  20.536  0.00  0.00    +0.000 A 
ATOM      7  C   UNL     1       3.007   3.082  19.487  0.00  0.00    +0.000 A 
ATOM      8  C   UNL     1       3.493   3.856  18.501  0.00  0.00    +0.000 A 
ATOM      9  C   UNL     1       4.325   3.309  17.382  0.00  0.00    +0.000 C 
ATOM     10  N   UNL     1       3.214   5.232  18.513  0.00  0.00    +0.000 N 
ATOM     11  N   UNL     1       3.612   6.174  17.620  0.00  0.00    +0.000 NA
ATOM     12  C   UNL     1       3.086   7.311  18.078  0.00  0.00    +0.000 A 
ATOM     13  C   UNL     1       2.344   7.146  19.264  0.00  0.00    +0.000 A 
ATOM     14  C   UNL     1       2.438   5.793  19.537  0.00  0.00    +0.000 A 
ATOM     15  N   UNL     1       1.924   5.042  20.562  0.00  0.00    +0.000 NA
ENDBRANCH   1  13
BRANCH   3  16
ATOM     16  C   UNL     1       0.507  10.364  19.840  0.00  0.00    +0.000 C 
BRANCH  16  17
ATOM     17  C   UNL     1      -0.731  10.669  19.032  0.00  0.00    +0.000 A 
ATOM     18  C   UNL     1      -0.972  10.020  17.812  0.00  0.00    +0.000 A 
ATOM     19  C   UNL     1      -2.142  10.277  17.091  0.00  0.00    +0.000 A 
ATOM     20  C   UNL     1      -3.077  11.184  17.586  0.00  0.00    +0.000 A 
ATOM     21 CL   UNL     1      -4.522  11.493  16.703  0.00  0.00    +0.000 Cl
ATOM     22  C   UNL     1      -2.852  11.837  18.794  0.00  0.00    +0.000 A 
ATOM     23  C   UNL     1      -1.684  11.578  19.516  0.00  0.00    +0.000 A 
ENDBRANCH  16  17
ENDBRANCH   3  16
TORSDOF 3
ENDMDL
MODEL 4
REMARK VINA RESULT:      -7.4      3.088      7.504
REMARK  Name = 
REMARK  5 active torsions:
REMARK  status: ('A' for Active; 'I' for Inactive)
REMARK    1  A    between atoms: C_1  and  C_2
REMARK    2  A    between atoms: C_4  and  C_5
REMARK    3  A    between atoms: C_9  and  C_10
REMARK    4  A    between atoms: N_12  and  C_13
REMARK    5  A    between atoms: C_13  and  C_14
REMARK                            x       y       z     vdW  Elec       q    Type
REMARK                         _______ _______ _______ _____ _____    ______ ____
ROOT
ATOM      1  C   UNL     1       1.859   7.960  19.519  0.00  0.00    +0.000 C 
ATOM      2  O   UNL     1       1.564   7.584  20.649  0.00  0.00    +0.000 OA
ATOM      3  N   UNL     1       1.451   9.161  18.991  0.00  0.00    +0.000 N 
ATOM      4  H   UNL     1       1.747   9.383  18.043  0.00  0.00    +0.000 HD
ENDROOT
BRANCH   1  13
ATOM      5  C   UNL     1       1.088   2.528  19.066  0.00  0.00    +0.000 C 
ATOM      6  C   UNL     1       1.982   3.609  18.513  0.00  0.00    +0.000 A 
ATOM      7  C   UNL     1       3.023   3.197  17.521  0.00  0.00    +0.000 A 
ATOM      8  C   UNL     1       3.812   4.172  17.037  0.00  0.00    +0.000 A 
ATOM      9  C   UNL     1       4.896   3.909  16.036  0.00  0.00    +0.000 C 
ATOM     10  N   UNL     1       3.619   5.490  17.480  0.00  0.00    +0.000 N 
ATOM     11  N   UNL     1       4.306   6.603  17.118  0.00  0.00    +0.000 NA
ATOM     12  C   UNL     1       3.737   7.588  17.814  0.00  0.00    +0.000 A 
ATOM     13  C   UNL     1       2.680   7.151  18.638  0.00  0.00    +0.000 A 
ATOM     14  C   UNL     1       2.617   5.789  18.413  0.00  0.00    +0.000 A 
ATOM     15  N   UNL     1       1.791   4.826  18.935  0.00  0.00    +0.000 NA
ENDBRANCH   1  13
BRANCH   3  16
ATOM     16  C   UNL     1       0.590  10.082  19.690  0.00  0.00    +0.000 C 
BRANCH  16  17
ATOM     17  C   UNL     1      -0.662  10.387  18.903  0.00  0.00    +0.000 A 
ATOM     18  C   UNL     1      -1.591  11.331  19.365  0.00  0.00    +0.000 A 
ATOM     19  C   UNL     1      -2.726  11.639  18.609  0.00  0.00    +0.000 A 
ATOM     20  C   UNL     1      -2.938  11.004  17.386  0.00  0.00    +0.000 A 
ATOM     21 CL   UNL     1      -4.331  11.389  16.452  0.00  0.00    +0.000 Cl
ATOM     22  C   UNL     1      -2.026  10.063  16.915  0.00  0.00    +0.000 A 
ATOM     23  C   UNL     1      -0.891   9.759  17.669  0.00  0.00    +0.000 A 
ENDBRANCH  16  17
ENDBRANCH   3  16
TORSDOF 3
ENDMDL
MODEL 5
REMARK VINA RESULT:      -7.4      3.112      7.592
REMARK  Name = 
REMARK  5 active torsions:
REMARK  status: ('A' for Active; 'I' for Inactive)
REMARK    1  A    between atoms: C_1  and  C_2
REMARK    2  A    between atoms: C_4  and  C_5
REMARK    3  A    between atoms: C_9  and  C_10
REMARK    4  A    between atoms: N_12  and  C_13
REMARK    5  A    between atoms: C_13  and  C_14
REMARK                            x       y       z     vdW  Elec       q    Type
REMARK                         _______ _______ _______ _____ _____    ______ ____
ROOT
ATOM      1  C   UNL     1       1.822   7.924  19.518  0.00  0.00    +0.000 C 
ATOM      2  O   UNL     1       1.513   7.513  20.631  0.00  0.00    +0.000 OA
ATOM      3  N   UNL     1       1.409   9.136  19.018  0.00  0.00    +0.000 N 
ATOM      4  H   UNL     1       1.718   9.389  18.082  0.00  0.00    +0.000 HD
ENDROOT
BRANCH   1  13
ATOM      5  C   UNL     1       1.246   2.470  19.043  0.00  0.00    +0.000 C 
ATOM      6  C   UNL     1       2.096   3.586  18.490  0.00  0.00    +0.000 A 
ATOM      7  C   UNL     1       3.144   3.217  17.488  0.00  0.00    +0.000 A 
ATOM      8  C   UNL     1       3.894   4.222  17.003  0.00  0.00    +0.000 A 
ATOM      9  C   UNL     1       4.980   4.003  15.994  0.00  0.00    +0.000 C 
ATOM     10  N   UNL     1       3.657   5.529  17.454  0.00  0.00    +0.000 N 
ATOM     11  N   UNL     1       4.300   6.669  17.093  0.00  0.00    +0.000 NA
ATOM     12  C   UNL     1       3.701   7.629  17.798  0.00  0.00    +0.000 A 
ATOM     13  C   UNL     1       2.666   7.150  18.627  0.00  0.00    +0.000 A 
ATOM     14  C   UNL     1       2.650   5.787  18.396  0.00  0.00    +0.000 A 
ATOM     15  N   UNL     1       1.864   4.793  18.918  0.00  0.00    +0.000 NA
ENDBRANCH   1  13
BRANCH   3  16
ATOM     16  C   UNL     1       0.527  10.027  19.729  0.00  0.00    +0.000 C 
BRANCH  16  17
ATOM     17  C   UNL     1      -0.671  10.414  18.896  0.00  0.00    +0.000 A 
ATOM     18  C   UNL     1      -0.959   9.747  17.696  0.00  0.00    +0.000 A 
ATOM     19  C   UNL     1      -2.095  10.082  16.952  0.00  0.00    +0.000 A 
ATOM     20  C   UNL     1      -2.948  11.087  17.405  0.00  0.00    +0.000 A 
ATOM     21 CL   UNL     1      -4.350  11.494  16.494  0.00  0.00    +0.000 Cl
ATOM     22  C   UNL     1      -2.675  11.759  18.593  0.00  0.00    +0.000 A 
ATOM     23  C   UNL     1      -1.542  11.421  19.338  0.00  0.00    +0.000 A 
ENDBRANCH  16  17
ENDBRANCH   3  16
TORSDOF 3
ENDMDL
MODEL 6
REMARK VINA RESULT:      -7.4      3.060      7.652
REMARK  Name = 
REMARK  5 active torsions:
REMARK  status: ('A' for Active; 'I' for Inactive)
REMARK    1  A    between atoms: C_1  and  C_2
REMARK    2  A    between atoms: C_4  and  C_5
REMARK    3  A    between atoms: C_9  and  C_10
REMARK    4  A    between atoms: N_12  and  C_13
REMARK    5  A    between atoms: C_13  and  C_14
REMARK                            x       y       z     vdW  Elec       q    Type
REMARK                         _______ _______ _______ _____ _____    ______ ____
ROOT
ATOM      1  C   UNL     1       1.570   8.282  20.109  0.00  0.00    +0.000 C 
ATOM      2  O   UNL     1       1.377   8.136  21.311  0.00  0.00    +0.000 OA
ATOM      3  N   UNL     1       1.126   9.371  19.399  0.00  0.00    +0.000 N 
ATOM      4  H   UNL     1       1.335   9.401  18.403  0.00  0.00    +0.000 HD
ENDROOT
BRANCH   1  13
ATOM      5  C   UNL     1       1.810   3.004  21.656  0.00  0.00    +0.000 C 
ATOM      6  C   UNL     1       2.310   3.899  20.550  0.00  0.00    +0.000 A 
ATOM      7  C   UNL     1       3.141   3.266  19.479  0.00  0.00    +0.000 A 
ATOM      8  C   UNL     1       3.579   4.075  18.499  0.00  0.00    +0.000 A 
ATOM      9  C   UNL     1       4.419   3.582  17.361  0.00  0.00    +0.000 C 
ATOM     10  N   UNL     1       3.241   5.437  18.536  0.00  0.00    +0.000 N 
ATOM     11  N   UNL     1       3.584   6.408  17.653  0.00  0.00    +0.000 NA
ATOM     12  C   UNL     1       3.016   7.514  18.135  0.00  0.00    +0.000 A 
ATOM     13  C   UNL     1       2.298   7.299  19.329  0.00  0.00    +0.000 A 
ATOM     14  C   UNL     1       2.455   5.948  19.579  0.00  0.00    +0.000 A 
ATOM     15  N   UNL     1       1.989   5.159  20.599  0.00  0.00    +0.000 NA
ENDBRANCH   1  13
BRANCH   3  16
ATOM     16  C   UNL     1       0.343  10.432  19.982  0.00  0.00    +0.000 C 
BRANCH  16  17
ATOM     17  C   UNL     1      -0.908  10.710  19.183  0.00  0.00    +0.000 A 
ATOM     18  C   UNL     1      -1.848  11.654  19.623  0.00  0.00    +0.000 A 
ATOM     19  C   UNL     1      -2.982  11.937  18.855  0.00  0.00    +0.000 A 
ATOM     20  C   UNL     1      -3.182  11.276  17.644  0.00  0.00    +0.000 A 
ATOM     21 CL   UNL     1      -4.573  11.631  16.695  0.00  0.00    +0.000 Cl
ATOM     22  C   UNL     1      -2.259  10.336  17.195  0.00  0.00    +0.000 A 
ATOM     23  C   UNL     1      -1.124  10.057  17.960  0.00  0.00    +0.000 A 
ENDBRANCH  16  17
ENDBRANCH   3  16
TORSDOF 3
ENDMDL
MODEL 7
REMARK VINA RESULT:      -7.4      4.072      8.236
REMARK  Name = 
REMARK  5 active torsions:
REMARK  status: ('A' for Active; 'I' for Inactive)
REMARK    1  A    between atoms: C_1  and  C_2
REMARK    2  A    between atoms: C_4  and  C_5
REMARK    3  A    between atoms: C_9  and  C_10
REMARK    4  A    between atoms: N_12  and  C_13
REMARK    5  A    between atoms: C_13  and  C_14
REMARK                            x       y       z     vdW  Elec       q    Type
REMARK                         _______ _______ _______ _____ _____    ______ ____
ROOT
ATOM      1  C   UNL     1       2.837   5.601  19.559  0.00  0.00    +0.000 C 
ATOM      2  O   UNL     1       2.591   4.917  20.547  0.00  0.00    +0.000 OA
ATOM      3  N   UNL     1       2.546   6.941  19.476  0.00  0.00    +0.000 N 
ATOM      4  H   UNL     1       2.789   7.423  18.612  0.00  0.00    +0.000 HD
ENDROOT
BRANCH   1  13
ATOM      5  C   UNL     1       7.594   7.593  17.633  0.00  0.00    +0.000 C 
ATOM      6  C   UNL     1       6.587   6.517  17.311  0.00  0.00    +0.000 A 
ATOM      7  C   UNL     1       6.861   5.657  16.118  0.00  0.00    +0.000 A 
ATOM      8  C   UNL     1       5.955   4.703  15.844  0.00  0.00    +0.000 A 
ATOM      9  C   UNL     1       6.096   3.767  14.683  0.00  0.00    +0.000 C 
ATOM     10  N   UNL     1       4.830   4.571  16.673  0.00  0.00    +0.000 N 
ATOM     11  N   UNL     1       3.810   3.681  16.564  0.00  0.00    +0.000 NA
ATOM     12  C   UNL     1       3.006   3.969  17.588  0.00  0.00    +0.000 A 
ATOM     13  C   UNL     1       3.470   5.038  18.381  0.00  0.00    +0.000 A 
ATOM     14  C   UNL     1       4.652   5.420  17.774  0.00  0.00    +0.000 A 
ATOM     15  N   UNL     1       5.549   6.408  18.089  0.00  0.00    +0.000 NA
ENDBRANCH   1  13
BRANCH   3  16
ATOM     16  C   UNL     1       1.874   7.672  20.520  0.00  0.00    +0.000 C 
BRANCH  16  17
ATOM     17  C   UNL     1       1.115   8.858  19.975  0.00  0.00    +0.000 A 
ATOM     18  C   UNL     1       1.333   9.314  18.667  0.00  0.00    +0.000 A 
ATOM     19  C   UNL     1       0.595  10.386  18.156  0.00  0.00    +0.000 A 
ATOM     20  C   UNL     1      -0.366  11.008  18.951  0.00  0.00    +0.000 A 
ATOM     21 CL   UNL     1      -1.281  12.321  18.319  0.00  0.00    +0.000 Cl
ATOM     22  C   UNL     1      -0.593  10.568  20.253  0.00  0.00    +0.000 A 
ATOM     23  C   UNL     1       0.142   9.495  20.761  0.00  0.00    +0.000 A 
ENDBRANCH  16  17
ENDBRANCH   3  16
TORSDOF 3
ENDMDL
MODEL 8
REMARK VINA RESULT:      -7.4      4.091      8.381
REMARK  Name = 
REMARK  5 active torsions:
REMARK  status: ('A' for Active; 'I' for Inactive)
REMARK    1  A    between atoms: C_1  and  C_2
REMARK    2  A    between atoms: C_4  and  C_5
REMARK    3  A    between atoms: C_9  and  C_10
REMARK    4  A    between atoms: N_12  and  C_13
REMARK    5  A    between atoms: C_13  and  C_14
REMARK                            x       y       z     vdW  Elec       q    Type
REMARK                         _______ _______ _______ _____ _____    ______ ____
ROOT
ATOM      1  C   UNL     1       2.527   5.647  20.016  0.00  0.00    +0.000 C 
ATOM      2  O   UNL     1       2.239   4.942  20.977  0.00  0.00    +0.000 OA
ATOM      3  N   UNL     1       2.258   6.993  19.958  0.00  0.00    +0.000 N 
ATOM      4  H   UNL     1       2.535   7.494  19.116  0.00  0.00    +0.000 HD
ENDROOT
BRANCH   1  13
ATOM      5  C   UNL     1       7.999   5.873  19.453  0.00  0.00    +0.000 C 
ATOM      6  C   UNL     1       6.788   5.374  18.704  0.00  0.00    +0.000 A 
ATOM      7  C   UNL     1       7.024   4.713  17.383  0.00  0.00    +0.000 A 
ATOM      8  C   UNL     1       5.937   4.272  16.728  0.00  0.00    +0.000 A 
ATOM      9  C   UNL     1       6.019   3.591  15.396  0.00  0.00    +0.000 C 
ATOM     10  N   UNL     1       4.671   4.454  17.306  0.00  0.00    +0.000 N 
ATOM     11  N   UNL     1       3.463   4.087  16.808  0.00  0.00    +0.000 NA
ATOM     12  C   UNL     1       2.587   4.480  17.733  0.00  0.00    +0.000 A 
ATOM     13  C   UNL     1       3.189   5.105  18.843  0.00  0.00    +0.000 A 
ATOM     14  C   UNL     1       4.540   5.084  18.552  0.00  0.00    +0.000 A 
ATOM     15  N   UNL     1       5.622   5.550  19.254  0.00  0.00    +0.000 NA
ENDBRANCH   1  13
BRANCH   3  16
ATOM     16  C   UNL     1       1.563   7.708  21.000  0.00  0.00    +0.000 C 
BRANCH  16  17
ATOM     17  C   UNL     1       0.899   8.958  20.476  0.00  0.00    +0.000 A 
ATOM     18  C   UNL     1       0.037   9.710  21.288  0.00  0.00    +0.000 A 
ATOM     19  C   UNL     1      -0.540  10.890  20.809  0.00  0.00    +0.000 A 
ATOM     20  C   UNL     1      -0.258  11.324  19.515  0.00  0.00    +0.000 A 
ATOM     21 CL   UNL     1      -0.961  12.781  18.928  0.00  0.00    +0.000 Cl
ATOM     22  C   UNL     1       0.594  10.588  18.696  0.00  0.00    +0.000 A 
ATOM     23  C   UNL     1       1.173   9.411  19.176  0.00  0.00    +0.000 A 
ENDBRANCH  16  17
ENDBRANCH   3  16
TORSDOF 3
ENDMDL
MODEL 9
REMARK VINA RESULT:      -7.4      4.015      8.369
REMARK  Name = 
REMARK  5 active torsions:
REMARK  status: ('A' for Active; 'I' for Inactive)
REMARK    1  A    between atoms: C_1  and  C_2
REMARK    2  A    between atoms: C_4  and  C_5
REMARK    3  A    between atoms: C_9  and  C_10
REMARK    4  A    between atoms: N_12  and  C_13
REMARK    5  A    between atoms: C_13  and  C_14
REMARK                            x       y       z     vdW  Elec       q    Type
REMARK                         _______ _______ _______ _____ _____    ______ ____
ROOT
ATOM      1  C   UNL     1       2.359   5.665  19.951  0.00  0.00    +0.000 C 
ATOM      2  O   UNL     1       1.847   4.949  20.805  0.00  0.00    +0.000 OA
ATOM      3  N   UNL     1       2.337   7.038  20.004  0.00  0.00    +0.000 N 
ATOM      4  H   UNL     1       2.789   7.545  19.246  0.00  0.00    +0.000 HD
ENDROOT
BRANCH   1  13
ATOM      5  C   UNL     1       7.841   5.885  19.489  0.00  0.00    +0.000 C 
ATOM      6  C   UNL     1       6.645   5.376  18.724  0.00  0.00    +0.000 A 
ATOM      7  C   UNL     1       6.905   4.697  17.416  0.00  0.00    +0.000 A 
ATOM      8  C   UNL     1       5.830   4.248  16.746  0.00  0.00    +0.000 A 
ATOM      9  C   UNL     1       5.937   3.549  15.426  0.00  0.00    +0.000 C 
ATOM     10  N   UNL     1       4.554   4.437  17.299  0.00  0.00    +0.000 N 
ATOM     11  N   UNL     1       3.355   4.063  16.782  0.00  0.00    +0.000 NA
ATOM     12  C   UNL     1       2.462   4.468  17.686  0.00  0.00    +0.000 A 
ATOM     13  C   UNL     1       3.043   5.107  18.799  0.00  0.00    +0.000 A 
ATOM     14  C   UNL     1       4.399   5.083  18.533  0.00  0.00    +0.000 A 
ATOM     15  N   UNL     1       5.468   5.559  19.249  0.00  0.00    +0.000 NA
ENDBRANCH   1  13
BRANCH   3  16
ATOM     16  C   UNL     1       1.666   7.780  21.041  0.00  0.00    +0.000 C 
BRANCH  16  17
ATOM     17  C   UNL     1       0.953   8.992  20.491  0.00  0.00    +0.000 A 
ATOM     18  C   UNL     1       1.122   9.383  19.155  0.00  0.00    +0.000 A 
ATOM     19  C   UNL     1       0.424  10.481  18.642  0.00  0.00    +0.000 A 
ATOM     20  C   UNL     1      -0.446  11.194  19.464  0.00  0.00    +0.000 A 
ATOM     21 CL   UNL     1      -1.312  12.540  18.831  0.00  0.00    +0.000 Cl
ATOM     22  C   UNL     1      -0.624  10.820  20.793  0.00  0.00    +0.000 A 
ATOM     23  C   UNL     1       0.071   9.721  21.304  0.00  0.00    +0.000 A 
ENDBRANCH  16  17
ENDBRANCH   3  16
TORSDOF 3
ENDMDL
