MODEL 1
REMARK VINA RESULT:      -6.7      0.000      0.000
REMARK  Name = 
REMARK  22 active torsions:
REMARK  status: ('A' for Active; 'I' for Inactive)
REMARK    1  A    between atoms: C_1  and  O_2
REMARK    2  A    between atoms: O_2  and  N_3
REMARK    3  A    between atoms: N_3  and  C_4
REMARK    4  A    between atoms: N_3  and  C_24
REMARK    5  A    between atoms: C_4  and  C_5
REMARK    6  A    between atoms: C_5  and  C_6
REMARK    7  A    between atoms: C_6  and  C_7
REMARK    8  A    between atoms: C_7  and  C_8
REMARK    9  A    between atoms: C_9  and  C_10
REMARK   10  A    between atoms: C_10  and  C_11
REMARK   11  A    between atoms: C_11  and  C_12
REMARK   12  A    between atoms: C_12  and  C_13
REMARK   13  A    between atoms: C_13  and  C_14
REMARK   14  A    between atoms: C_14  and  C_15
REMARK   15  A    between atoms: C_15  and  C_16
REMARK   16  A    between atoms: C_16  and  C_17
REMARK   17  A    between atoms: C_17  and  C_18
REMARK   18  A    between atoms: C_26  and  C_27
REMARK   19  A    between atoms: C_27  and  O_28
REMARK   20  A    between atoms: C_29  and  O_30
REMARK   21  A    between atoms: C_31  and  O_32
REMARK   22  A    between atoms: C_33  and  O_34
REMARK                            x       y       z     vdW  Elec       q    Type
REMARK                         _______ _______ _______ _____ _____    ______ ____
ROOT
ATOM      1  C   UNL     1       0.747  10.054  17.936  0.00  0.00    +0.000 C 
ENDROOT
BRANCH   1   2
ATOM      2  C   UNL     1       1.821   9.181  18.598  0.00  0.00    +0.000 C 
BRANCH   2   3
ATOM      3  C   UNL     1       2.150   7.903  17.808  0.00  0.00    +0.000 C 
BRANCH   3   4
ATOM      4  C   UNL     1       2.612   6.728  18.674  0.00  0.00    +0.000 C 
BRANCH   4   5
ATOM      5  C   UNL     1       2.252   6.958  20.112  0.00  0.00    +0.000 C 
ATOM      6  C   UNL     1       1.603   6.086  20.894  0.00  0.00    +0.000 C 
BRANCH   6   7
ATOM      7  C   UNL     1       1.164   4.702  20.503  0.00  0.00    +0.000 C 
BRANCH   7   8
ATOM      8  C   UNL     1       1.835   3.639  21.369  0.00  0.00    +0.000 C 
BRANCH   8   9
ATOM      9  C   UNL     1       1.672   2.245  20.771  0.00  0.00    +0.000 C 
BRANCH   9  10
ATOM     10  C   UNL     1       1.775   2.269  19.255  0.00  0.00    +0.000 C 
BRANCH  10  11
ATOM     11  C   UNL     1       3.244   2.253  18.847  0.00  0.00    +0.000 C 
BRANCH  11  12
ATOM     12  C   UNL     1       3.405   2.567  17.367  0.00  0.00    +0.000 C 
BRANCH  12  13
ATOM     13  C   UNL     1       4.193   3.857  17.180  0.00  0.00    +0.000 C 
BRANCH  13  14
ATOM     14  C   UNL     1       5.135   4.093  18.357  0.00  0.00    +0.000 C 
BRANCH  14  15
ATOM     15  C   UNL     1       6.046   5.256  18.094  0.00  0.00    +0.000 A 
ATOM     16  C   UNL     1       7.112   5.547  18.948  0.00  0.00    +0.000 A 
ATOM     17  C   UNL     1       7.923   6.646  18.684  0.00  0.00    +0.000 A 
ATOM     18  C   UNL     1       7.634   7.422  17.574  0.00  0.00    +0.000 A 
ATOM     19  N   UNL     1       6.605   7.179  16.733  0.00  0.00    +0.000 NA
ATOM     20  C   UNL     1       5.833   6.107  17.013  0.00  0.00    +0.000 A 
ENDBRANCH  14  15
ENDBRANCH  13  14
ENDBRANCH  12  13
ENDBRANCH  11  12
ENDBRANCH  10  11
ENDBRANCH   9  10
ENDBRANCH   8   9
ENDBRANCH   7   8
ENDBRANCH   6   7
ENDBRANCH   4   5
ENDBRANCH   3   4
ENDBRANCH   2   3
ENDBRANCH   1   2
BRANCH   1  21
ATOM     21  N   UNL     1      -0.157  10.595  18.941  0.00  0.00    +0.000 NA
BRANCH  21  22
ATOM     22  C   UNL     1      -1.590  10.523  18.671  0.00  0.00    +0.000 C 
ATOM     23  O   UNL     1      -1.833  10.253  17.292  0.00  0.00    +0.000 OA
ATOM     24  C   UNL     1      -3.212  10.108  16.961  0.00  0.00    +0.000 C 
ATOM     25  C   UNL     1      -3.989  11.392  17.290  0.00  0.00    +0.000 C 
ATOM     26  C   UNL     1      -3.801  11.749  18.771  0.00  0.00    +0.000 C 
ATOM     27  C   UNL     1      -2.309  11.825  19.136  0.00  0.00    +0.000 C 
BRANCH  27  28
ATOM     28  O   UNL     1      -2.181  12.060  20.548  0.00  0.00    +0.000 OA
ATOM     29  H   UNL     1      -1.249  11.959  20.801  0.00  0.00    +0.000 HD
ENDBRANCH  27  28
BRANCH  26  30
ATOM     30  O   UNL     1      -4.479  12.980  19.062  0.00  0.00    +0.000 OA
ATOM     31  H   UNL     1      -3.949  13.713  18.701  0.00  0.00    +0.000 HD
ENDBRANCH  26  30
BRANCH  25  32
ATOM     32  O   UNL     1      -5.374  11.229  16.961  0.00  0.00    +0.000 OA
ATOM     33  H   UNL     1      -5.908  11.654  17.658  0.00  0.00    +0.000 HD
ENDBRANCH  25  32
BRANCH  24  34
ATOM     34  C   UNL     1      -3.311   9.774  15.463  0.00  0.00    +0.000 C 
BRANCH  34  35
ATOM     35  O   UNL     1      -2.839  10.831  14.640  0.00  0.00    +0.000 OA
ATOM     36  H   UNL     1      -2.230  10.436  13.984  0.00  0.00    +0.000 HD
ENDBRANCH  34  35
ENDBRANCH  24  34
ENDBRANCH  21  22
BRANCH  21  38
ATOM     37  C   UNL     1       0.856  12.758  18.476  0.00  0.00    +0.000 C 
ATOM     38  O   UNL     1       0.225  11.911  19.439  0.00  0.00    +0.000 OA
ENDBRANCH  21  38
ENDBRANCH   1  21
TORSDOF 21
ENDMDL
MODEL 2
REMARK VINA RESULT:      -6.7      2.540      4.217
REMARK  Name = 
REMARK  22 active torsions:
REMARK  status: ('A' for Active; 'I' for Inactive)
REMARK    1  A    between atoms: C_1  and  O_2
REMARK    2  A    between atoms: O_2  and  N_3
REMARK    3  A    between atoms: N_3  and  C_4
REMARK    4  A    between atoms: N_3  and  C_24
REMARK    5  A    between atoms: C_4  and  C_5
REMARK    6  A    between atoms: C_5  and  C_6
REMARK    7  A    between atoms: C_6  and  C_7
REMARK    8  A    between atoms: C_7  and  C_8
REMARK    9  A    between atoms: C_9  and  C_10
REMARK   10  A    between atoms: C_10  and  C_11
REMARK   11  A    between atoms: C_11  and  C_12
REMARK   12  A    between atoms: C_12  and  C_13
REMARK   13  A    between atoms: C_13  and  C_14
REMARK   14  A    between atoms: C_14  and  C_15
REMARK   15  A    between atoms: C_15  and  C_16
REMARK   16  A    between atoms: C_16  and  C_17
REMARK   17  A    between atoms: C_17  and  C_18
REMARK   18  A    between atoms: C_26  and  C_27
REMARK   19  A    between atoms: C_27  and  O_28
REMARK   20  A    between atoms: C_29  and  O_30
REMARK   21  A    between atoms: C_31  and  O_32
REMARK   22  A    between atoms: C_33  and  O_34
REMARK                            x       y       z     vdW  Elec       q    Type
REMARK                         _______ _______ _______ _____ _____    ______ ____
ROOT
ATOM      1  C   UNL     1      -1.329  11.001  19.525  0.00  0.00    +0.000 C 
ENDROOT
BRANCH   1   2
ATOM      2  C   UNL     1      -0.268   9.897  19.437  0.00  0.00    +0.000 C 
BRANCH   2   3
ATOM      3  C   UNL     1       0.435   9.825  18.071  0.00  0.00    +0.000 C 
BRANCH   3   4
ATOM      4  C   UNL     1       1.928   9.493  18.148  0.00  0.00    +0.000 C 
BRANCH   4   5
ATOM      5  C   UNL     1       2.188   8.107  17.634  0.00  0.00    +0.000 C 
ATOM      6  C   UNL     1       2.332   7.016  18.396  0.00  0.00    +0.000 C 
BRANCH   6   7
ATOM      7  C   UNL     1       2.208   6.960  19.894  0.00  0.00    +0.000 C 
BRANCH   7   8
ATOM      8  C   UNL     1       2.389   5.536  20.414  0.00  0.00    +0.000 C 
BRANCH   8   9
ATOM      9  C   UNL     1       1.089   4.742  20.334  0.00  0.00    +0.000 C 
BRANCH   9  10
ATOM     10  C   UNL     1       1.255   3.335  20.886  0.00  0.00    +0.000 C 
BRANCH  10  11
ATOM     11  C   UNL     1       2.022   2.484  19.879  0.00  0.00    +0.000 C 
BRANCH  11  12
ATOM     12  C   UNL     1       1.382   2.555  18.501  0.00  0.00    +0.000 C 
BRANCH  12  13
ATOM     13  C   UNL     1       2.340   3.190  17.502  0.00  0.00    +0.000 C 
BRANCH  13  14
ATOM     14  C   UNL     1       3.788   2.869  17.859  0.00  0.00    +0.000 C 
BRANCH  14  15
ATOM     15  C   UNL     1       4.649   4.095  17.772  0.00  0.00    +0.000 A 
ATOM     16  C   UNL     1       4.680   4.876  16.615  0.00  0.00    +0.000 A 
ATOM     17  C   UNL     1       5.507   5.994  16.564  0.00  0.00    +0.000 A 
ATOM     18  C   UNL     1       6.280   6.289  17.673  0.00  0.00    +0.000 A 
ATOM     19  N   UNL     1       6.287   5.550  18.805  0.00  0.00    +0.000 NA
ATOM     20  C   UNL     1       5.476   4.470  18.827  0.00  0.00    +0.000 A 
ENDBRANCH  14  15
ENDBRANCH  13  14
ENDBRANCH  12  13
ENDBRANCH  11  12
ENDBRANCH  10  11
ENDBRANCH   9  10
ENDBRANCH   8   9
ENDBRANCH   7   8
ENDBRANCH   6   7
ENDBRANCH   4   5
ENDBRANCH   3   4
ENDBRANCH   2   3
ENDBRANCH   1   2
BRANCH   1  21
ATOM     21  N   UNL     1      -0.787  12.173  20.198  0.00  0.00    +0.000 NA
BRANCH  21  22
ATOM     22  C   UNL     1      -1.244  12.445  21.558  0.00  0.00    +0.000 C 
ATOM     23  O   UNL     1      -2.668  12.523  21.607  0.00  0.00    +0.000 OA
ATOM     24  C   UNL     1      -3.194  12.729  22.916  0.00  0.00    +0.000 C 
ATOM     25  C   UNL     1      -2.671  14.043  23.514  0.00  0.00    +0.000 C 
ATOM     26  C   UNL     1      -1.137  14.038  23.521  0.00  0.00    +0.000 C 
ATOM     27  C   UNL     1      -0.579  13.738  22.119  0.00  0.00    +0.000 C 
BRANCH  27  28
ATOM     28  O   UNL     1       0.854  13.642  22.193  0.00  0.00    +0.000 OA
ATOM     29  H   UNL     1       1.202  14.452  22.599  0.00  0.00    +0.000 HD
ENDBRANCH  27  28
BRANCH  26  30
ATOM     30  O   UNL     1      -0.650  15.290  24.025  0.00  0.00    +0.000 OA
ATOM     31  H   UNL     1       0.324  15.259  24.031  0.00  0.00    +0.000 HD
ENDBRANCH  26  30
BRANCH  25  32
ATOM     32  O   UNL     1      -3.201  14.231  24.832  0.00  0.00    +0.000 OA
ATOM     33  H   UNL     1      -3.211  15.188  25.026  0.00  0.00    +0.000 HD
ENDBRANCH  25  32
BRANCH  24  34
ATOM     34  C   UNL     1      -4.729  12.741  22.817  0.00  0.00    +0.000 C 
BRANCH  34  35
ATOM     35  O   UNL     1      -5.351  12.266  24.002  0.00  0.00    +0.000 OA
ATOM     36  H   UNL     1      -4.644  12.132  24.666  0.00  0.00    +0.000 HD
ENDBRANCH  34  35
ENDBRANCH  24  34
ENDBRANCH  21  22
BRANCH  21  38
ATOM     37  C   UNL     1       0.372  13.560  18.570  0.00  0.00    +0.000 C 
ATOM     38  O   UNL     1      -0.789  13.382  19.383  0.00  0.00    +0.000 OA
ENDBRANCH  21  38
ENDBRANCH   1  21
TORSDOF 21
ENDMDL
MODEL 3
REMARK VINA RESULT:      -6.5      2.376      3.870
REMARK  Name = 
REMARK  22 active torsions:
REMARK  status: ('A' for Active; 'I' for Inactive)
REMARK    1  A    between atoms: C_1  and  O_2
REMARK    2  A    between atoms: O_2  and  N_3
REMARK    3  A    between atoms: N_3  and  C_4
REMARK    4  A    between atoms: N_3  and  C_24
REMARK    5  A    between atoms: C_4  and  C_5
REMARK    6  A    between atoms: C_5  and  C_6
REMARK    7  A    between atoms: C_6  and  C_7
REMARK    8  A    between atoms: C_7  and  C_8
REMARK    9  A    between atoms: C_9  and  C_10
REMARK   10  A    between atoms: C_10  and  C_11
REMARK   11  A    between atoms: C_11  and  C_12
REMARK   12  A    between atoms: C_12  and  C_13
REMARK   13  A    between atoms: C_13  and  C_14
REMARK   14  A    between atoms: C_14  and  C_15
REMARK   15  A    between atoms: C_15  and  C_16
REMARK   16  A    between atoms: C_16  and  C_17
REMARK   17  A    between atoms: C_17  and  C_18
REMARK   18  A    between atoms: C_26  and  C_27
REMARK   19  A    between atoms: C_27  and  O_28
REMARK   20  A    between atoms: C_29  and  O_30
REMARK   21  A    between atoms: C_31  and  O_32
REMARK   22  A    between atoms: C_33  and  O_34
REMARK                            x       y       z     vdW  Elec       q    Type
REMARK                         _______ _______ _______ _____ _____    ______ ____
ROOT
ATOM      1  C   UNL     1       0.030   8.988  22.121  0.00  0.00    +0.000 C 
ENDROOT
BRANCH   1   2
ATOM      2  C   UNL     1       1.490   8.798  21.689  0.00  0.00    +0.000 C 
BRANCH   2   3
ATOM      3  C   UNL     1       1.650   7.967  20.405  0.00  0.00    +0.000 C 
BRANCH   3   4
ATOM      4  C   UNL     1       1.220   6.504  20.544  0.00  0.00    +0.000 C 
BRANCH   4   5
ATOM      5  C   UNL     1       2.400   5.635  20.867  0.00  0.00    +0.000 C 
ATOM      6  C   UNL     1       2.360   4.305  21.017  0.00  0.00    +0.000 C 
BRANCH   6   7
ATOM      7  C   UNL     1       1.150   3.430  20.839  0.00  0.00    +0.000 C 
BRANCH   7   8
ATOM      8  C   UNL     1       0.912   3.101  19.367  0.00  0.00    +0.000 C 
BRANCH   8   9
ATOM      9  C   UNL     1       1.741   1.901  18.921  0.00  0.00    +0.000 C 
BRANCH   9  10
ATOM     10  C   UNL     1       3.049   2.329  18.277  0.00  0.00    +0.000 C 
BRANCH  10  11
ATOM     11  C   UNL     1       2.773   3.416  17.244  0.00  0.00    +0.000 C 
BRANCH  11  12
ATOM     12  C   UNL     1       3.878   4.462  17.240  0.00  0.00    +0.000 C 
BRANCH  12  13
ATOM     13  C   UNL     1       4.708   4.352  15.967  0.00  0.00    +0.000 C 
BRANCH  13  14
ATOM     14  C   UNL     1       6.155   3.994  16.293  0.00  0.00    +0.000 C 
BRANCH  14  15
ATOM     15  C   UNL     1       6.830   5.104  17.045  0.00  0.00    +0.000 A 
ATOM     16  C   UNL     1       7.318   4.909  18.338  0.00  0.00    +0.000 A 
ATOM     17  C   UNL     1       7.920   5.967  19.012  0.00  0.00    +0.000 A 
ATOM     18  C   UNL     1       8.005   7.190  18.368  0.00  0.00    +0.000 A 
ATOM     19  N   UNL     1       7.533   7.420  17.123  0.00  0.00    +0.000 NA
ATOM     20  C   UNL     1       6.953   6.376  16.492  0.00  0.00    +0.000 A 
ENDBRANCH  14  15
ENDBRANCH  13  14
ENDBRANCH  12  13
ENDBRANCH  11  12
ENDBRANCH  10  11
ENDBRANCH   9  10
ENDBRANCH   8   9
ENDBRANCH   7   8
ENDBRANCH   6   7
ENDBRANCH   4   5
ENDBRANCH   3   4
ENDBRANCH   2   3
ENDBRANCH   1   2
BRANCH   1  21
ATOM     21  N   UNL     1      -0.406  10.351  21.852  0.00  0.00    +0.000 NA
BRANCH  21  22
ATOM     22  C   UNL     1       0.275  11.082  20.789  0.00  0.00    +0.000 C 
ATOM     23  O   UNL     1       1.000  12.191  21.320  0.00  0.00    +0.000 OA
ATOM     24  C   UNL     1       1.742  12.921  20.346  0.00  0.00    +0.000 C 
ATOM     25  C   UNL     1       0.809  13.495  19.268  0.00  0.00    +0.000 C 
ATOM     26  C   UNL     1       0.000  12.362  18.623  0.00  0.00    +0.000 C 
ATOM     27  C   UNL     1      -0.734  11.531  19.689  0.00  0.00    +0.000 C 
BRANCH  27  28
ATOM     28  O   UNL     1      -1.394  10.425  19.052  0.00  0.00    +0.000 OA
ATOM     29  H   UNL     1      -0.787  10.024  18.409  0.00  0.00    +0.000 HD
ENDBRANCH  27  28
BRANCH  26  30
ATOM     30  O   UNL     1      -0.912  12.907  17.659  0.00  0.00    +0.000 OA
ATOM     31  H   UNL     1      -1.250  13.753  18.001  0.00  0.00    +0.000 HD
ENDBRANCH  26  30
BRANCH  25  32
ATOM     32  O   UNL     1       1.570  14.219  18.293  0.00  0.00    +0.000 OA
ATOM     33  H   UNL     1       1.582  15.160  18.549  0.00  0.00    +0.000 HD
ENDBRANCH  25  32
BRANCH  24  34
ATOM     34  C   UNL     1       2.503  14.045  21.070  0.00  0.00    +0.000 C 
BRANCH  34  35
ATOM     35  O   UNL     1       1.945  15.326  20.817  0.00  0.00    +0.000 OA
ATOM     36  H   UNL     1       1.001  15.285  21.073  0.00  0.00    +0.000 HD
ENDBRANCH  34  35
ENDBRANCH  24  34
ENDBRANCH  21  22
BRANCH  21  38
ATOM     37  C   UNL     1      -1.864  11.743  23.215  0.00  0.00    +0.000 C 
ATOM     38  O   UNL     1      -0.564  11.172  23.047  0.00  0.00    +0.000 OA
ENDBRANCH  21  38
ENDBRANCH   1  21
TORSDOF 21
ENDMDL
MODEL 4
REMARK VINA RESULT:      -6.5      1.273      1.766
REMARK  Name = 
REMARK  22 active torsions:
REMARK  status: ('A' for Active; 'I' for Inactive)
REMARK    1  A    between atoms: C_1  and  O_2
REMARK    2  A    between atoms: O_2  and  N_3
REMARK    3  A    between atoms: N_3  and  C_4
REMARK    4  A    between atoms: N_3  and  C_24
REMARK    5  A    between atoms: C_4  and  C_5
REMARK    6  A    between atoms: C_5  and  C_6
REMARK    7  A    between atoms: C_6  and  C_7
REMARK    8  A    between atoms: C_7  and  C_8
REMARK    9  A    between atoms: C_9  and  C_10
REMARK   10  A    between atoms: C_10  and  C_11
REMARK   11  A    between atoms: C_11  and  C_12
REMARK   12  A    between atoms: C_12  and  C_13
REMARK   13  A    between atoms: C_13  and  C_14
REMARK   14  A    between atoms: C_14  and  C_15
REMARK   15  A    between atoms: C_15  and  C_16
REMARK   16  A    between atoms: C_16  and  C_17
REMARK   17  A    between atoms: C_17  and  C_18
REMARK   18  A    between atoms: C_26  and  C_27
REMARK   19  A    between atoms: C_27  and  O_28
REMARK   20  A    between atoms: C_29  and  O_30
REMARK   21  A    between atoms: C_31  and  O_32
REMARK   22  A    between atoms: C_33  and  O_34
REMARK                            x       y       z     vdW  Elec       q    Type
REMARK                         _______ _______ _______ _____ _____    ______ ____
ROOT
ATOM      1  C   UNL     1       1.716  10.784  18.113  0.00  0.00    +0.000 C 
ENDROOT
BRANCH   1   2
ATOM      2  C   UNL     1       1.313   9.306  18.033  0.00  0.00    +0.000 C 
BRANCH   2   3
ATOM      3  C   UNL     1       2.483   8.365  17.699  0.00  0.00    +0.000 C 
BRANCH   3   4
ATOM      4  C   UNL     1       2.552   7.110  18.574  0.00  0.00    +0.000 C 
BRANCH   4   5
ATOM      5  C   UNL     1       2.113   7.418  19.975  0.00  0.00    +0.000 C 
ATOM      6  C   UNL     1       1.543   6.545  20.815  0.00  0.00    +0.000 C 
BRANCH   6   7
ATOM      7  C   UNL     1       1.287   5.089  20.538  0.00  0.00    +0.000 C 
BRANCH   7   8
ATOM      8  C   UNL     1       2.575   4.272  20.617  0.00  0.00    +0.000 C 
BRANCH   8   9
ATOM      9  C   UNL     1       2.287   2.774  20.627  0.00  0.00    +0.000 C 
BRANCH   9  10
ATOM     10  C   UNL     1       1.486   2.348  19.408  0.00  0.00    +0.000 C 
BRANCH  10  11
ATOM     11  C   UNL     1       2.163   2.873  18.147  0.00  0.00    +0.000 C 
BRANCH  11  12
ATOM     12  C   UNL     1       3.464   2.131  17.875  0.00  0.00    +0.000 C 
BRANCH  12  13
ATOM     13  C   UNL     1       4.332   2.919  16.902  0.00  0.00    +0.000 C 
BRANCH  13  14
ATOM     14  C   UNL     1       4.071   4.417  17.034  0.00  0.00    +0.000 C 
BRANCH  14  15
ATOM     15  C   UNL     1       5.311   5.144  17.466  0.00  0.00    +0.000 A 
ATOM     16  C   UNL     1       5.885   4.912  18.717  0.00  0.00    +0.000 A 
ATOM     17  C   UNL     1       7.023   5.621  19.092  0.00  0.00    +0.000 A 
ATOM     18  C   UNL     1       7.544   6.543  18.201  0.00  0.00    +0.000 A 
ATOM     19  N   UNL     1       7.008   6.804  16.988  0.00  0.00    +0.000 NA
ATOM     20  C   UNL     1       5.904   6.103  16.650  0.00  0.00    +0.000 A 
ENDBRANCH  14  15
ENDBRANCH  13  14
ENDBRANCH  12  13
ENDBRANCH  11  12
ENDBRANCH  10  11
ENDBRANCH   9  10
ENDBRANCH   8   9
ENDBRANCH   7   8
ENDBRANCH   6   7
ENDBRANCH   4   5
ENDBRANCH   3   4
ENDBRANCH   2   3
ENDBRANCH   1   2
BRANCH   1  21
ATOM     21  N   UNL     1       1.296  11.356  19.385  0.00  0.00    +0.000 NA
BRANCH  21  22
ATOM     22  C   UNL     1      -0.128  11.321  19.705  0.00  0.00    +0.000 C 
ATOM     23  O   UNL     1      -0.916  11.436  18.522  0.00  0.00    +0.000 OA
ATOM     24  C   UNL     1      -2.321  11.350  18.748  0.00  0.00    +0.000 C 
ATOM     25  C   UNL     1      -2.791  12.470  19.688  0.00  0.00    +0.000 C 
ATOM     26  C   UNL     1      -2.006  12.409  21.005  0.00  0.00    +0.000 C 
ATOM     27  C   UNL     1      -0.490  12.424  20.746  0.00  0.00    +0.000 C 
BRANCH  27  28
ATOM     28  O   UNL     1       0.203  12.263  21.995  0.00  0.00    +0.000 OA
ATOM     29  H   UNL     1       1.076  12.682  21.925  0.00  0.00    +0.000 HD
ENDBRANCH  27  28
BRANCH  26  30
ATOM     30  O   UNL     1      -2.405  13.492  21.858  0.00  0.00    +0.000 OA
ATOM     31  H   UNL     1      -2.031  13.338  22.743  0.00  0.00    +0.000 HD
ENDBRANCH  26  30
BRANCH  25  32
ATOM     32  O   UNL     1      -4.203  12.366  19.913  0.00  0.00    +0.000 OA
ATOM     33  H   UNL     1      -4.449  11.422  19.887  0.00  0.00    +0.000 HD
ENDBRANCH  25  32
BRANCH  24  34
ATOM     34  C   UNL     1      -3.031  11.440  17.387  0.00  0.00    +0.000 C 
BRANCH  34  35
ATOM     35  O   UNL     1      -2.116  11.583  16.309  0.00  0.00    +0.000 OA
ATOM     36  H   UNL     1      -1.216  11.575  16.691  0.00  0.00    +0.000 HD
ENDBRANCH  34  35
ENDBRANCH  24  34
ENDBRANCH  21  22
BRANCH  21  38
ATOM     37  C   UNL     1       2.433  13.333  18.536  0.00  0.00    +0.000 C 
ATOM     38  O   UNL     1       1.874  12.664  19.669  0.00  0.00    +0.000 OA
ENDBRANCH  21  38
ENDBRANCH   1  21
TORSDOF 21
ENDMDL
MODEL 5
REMARK VINA RESULT:      -6.4      5.292     10.850
REMARK  Name = 
REMARK  22 active torsions:
REMARK  status: ('A' for Active; 'I' for Inactive)
REMARK    1  A    between atoms: C_1  and  O_2
REMARK    2  A    between atoms: O_2  and  N_3
REMARK    3  A    between atoms: N_3  and  C_4
REMARK    4  A    between atoms: N_3  and  C_24
REMARK    5  A    between atoms: C_4  and  C_5
REMARK    6  A    between atoms: C_5  and  C_6
REMARK    7  A    between atoms: C_6  and  C_7
REMARK    8  A    between atoms: C_7  and  C_8
REMARK    9  A    between atoms: C_9  and  C_10
REMARK   10  A    between atoms: C_10  and  C_11
REMARK   11  A    between atoms: C_11  and  C_12
REMARK   12  A    between atoms: C_12  and  C_13
REMARK   13  A    between atoms: C_13  and  C_14
REMARK   14  A    between atoms: C_14  and  C_15
REMARK   15  A    between atoms: C_15  and  C_16
REMARK   16  A    between atoms: C_16  and  C_17
REMARK   17  A    between atoms: C_17  and  C_18
REMARK   18  A    between atoms: C_26  and  C_27
REMARK   19  A    between atoms: C_27  and  O_28
REMARK   20  A    between atoms: C_29  and  O_30
REMARK   21  A    between atoms: C_31  and  O_32
REMARK   22  A    between atoms: C_33  and  O_34
REMARK                            x       y       z     vdW  Elec       q    Type
REMARK                         _______ _______ _______ _____ _____    ______ ____
ROOT
ATOM      1  C   UNL     1       2.366   3.236  17.854  0.00  0.00    +0.000 C 
ENDROOT
BRANCH   1   2
ATOM      2  C   UNL     1       1.277   4.159  18.415  0.00  0.00    +0.000 C 
BRANCH   2   3
ATOM      3  C   UNL     1       0.892   3.845  19.871  0.00  0.00    +0.000 C 
BRANCH   3   4
ATOM      4  C   UNL     1       1.362   4.890  20.886  0.00  0.00    +0.000 C 
BRANCH   4   5
ATOM      5  C   UNL     1       2.075   6.015  20.195  0.00  0.00    +0.000 C 
ATOM      6  C   UNL     1       1.734   7.307  20.273  0.00  0.00    +0.000 C 
BRANCH   6   7
ATOM      7  C   UNL     1       0.620   7.881  21.104  0.00  0.00    +0.000 C 
BRANCH   7   8
ATOM      8  C   UNL     1       1.067   9.140  21.843  0.00  0.00    +0.000 C 
BRANCH   8   9
ATOM      9  C   UNL     1       0.229   9.380  23.095  0.00  0.00    +0.000 C 
BRANCH   9  10
ATOM     10  C   UNL     1      -0.621  10.635  22.970  0.00  0.00    +0.000 C 
BRANCH  10  11
ATOM     11  C   UNL     1      -0.149  11.447  21.769  0.00  0.00    +0.000 C 
BRANCH  11  12
ATOM     12  C   UNL     1      -1.319  11.830  20.874  0.00  0.00    +0.000 C 
BRANCH  12  13
ATOM     13  C   UNL     1      -2.322  12.679  21.644  0.00  0.00    +0.000 C 
BRANCH  13  14
ATOM     14  C   UNL     1      -3.603  12.869  20.838  0.00  0.00    +0.000 C 
BRANCH  14  15
ATOM     15  C   UNL     1      -4.816  12.740  21.713  0.00  0.00    +0.000 A 
ATOM     16  C   UNL     1      -4.756  13.026  23.078  0.00  0.00    +0.000 A 
ATOM     17  C   UNL     1      -5.896  12.875  23.862  0.00  0.00    +0.000 A 
ATOM     18  C   UNL     1      -7.057  12.435  23.251  0.00  0.00    +0.000 A 
ATOM     19  N   UNL     1      -7.150  12.136  21.937  0.00  0.00    +0.000 NA
ATOM     20  C   UNL     1      -6.029  12.291  21.199  0.00  0.00    +0.000 A 
ENDBRANCH  14  15
ENDBRANCH  13  14
ENDBRANCH  12  13
ENDBRANCH  11  12
ENDBRANCH  10  11
ENDBRANCH   9  10
ENDBRANCH   8   9
ENDBRANCH   7   8
ENDBRANCH   6   7
ENDBRANCH   4   5
ENDBRANCH   3   4
ENDBRANCH   2   3
ENDBRANCH   1   2
BRANCH   1  21
ATOM     21  N   UNL     1       3.654   3.546  18.458  0.00  0.00    +0.000 NA
BRANCH  21  22
ATOM     22  C   UNL     1       4.552   4.429  17.721  0.00  0.00    +0.000 C 
ATOM     23  O   UNL     1       4.661   4.018  16.359  0.00  0.00    +0.000 OA
ATOM     24  C   UNL     1       5.478   4.869  15.558  0.00  0.00    +0.000 C 
ATOM     25  C   UNL     1       6.912   4.922  16.107  0.00  0.00    +0.000 C 
ATOM     26  C   UNL     1       6.893   5.378  17.571  0.00  0.00    +0.000 C 
ATOM     27  C   UNL     1       5.949   4.502  18.411  0.00  0.00    +0.000 C 
BRANCH  27  28
ATOM     28  O   UNL     1       5.884   5.025  19.748  0.00  0.00    +0.000 OA
ATOM     29  H   UNL     1       5.132   4.619  20.209  0.00  0.00    +0.000 HD
ENDBRANCH  27  28
BRANCH  26  30
ATOM     30  O   UNL     1       8.228   5.369  18.099  0.00  0.00    +0.000 OA
ATOM     31  H   UNL     1       8.846   5.553  17.369  0.00  0.00    +0.000 HD
ENDBRANCH  26  30
BRANCH  25  32
ATOM     32  O   UNL     1       7.718   5.787  15.297  0.00  0.00    +0.000 OA
ATOM     33  H   UNL     1       7.241   5.963  14.465  0.00  0.00    +0.000 HD
ENDBRANCH  25  32
BRANCH  24  34
ATOM     34  C   UNL     1       5.459   4.333  14.117  0.00  0.00    +0.000 C 
BRANCH  34  35
ATOM     35  O   UNL     1       6.341   3.234  13.938  0.00  0.00    +0.000 OA
ATOM     36  H   UNL     1       7.236   3.538  14.191  0.00  0.00    +0.000 HD
ENDBRANCH  34  35
ENDBRANCH  24  34
ENDBRANCH  21  22
BRANCH  21  38
ATOM     37  C   UNL     1       3.859   1.122  18.532  0.00  0.00    +0.000 C 
ATOM     38  O   UNL     1       4.361   2.383  18.982  0.00  0.00    +0.000 OA
ENDBRANCH  21  38
ENDBRANCH   1  21
TORSDOF 21
ENDMDL
MODEL 6
REMARK VINA RESULT:      -6.4      2.195      4.000
REMARK  Name = 
REMARK  22 active torsions:
REMARK  status: ('A' for Active; 'I' for Inactive)
REMARK    1  A    between atoms: C_1  and  O_2
REMARK    2  A    between atoms: O_2  and  N_3
REMARK    3  A    between atoms: N_3  and  C_4
REMARK    4  A    between atoms: N_3  and  C_24
REMARK    5  A    between atoms: C_4  and  C_5
REMARK    6  A    between atoms: C_5  and  C_6
REMARK    7  A    between atoms: C_6  and  C_7
REMARK    8  A    between atoms: C_7  and  C_8
REMARK    9  A    between atoms: C_9  and  C_10
REMARK   10  A    between atoms: C_10  and  C_11
REMARK   11  A    between atoms: C_11  and  C_12
REMARK   12  A    between atoms: C_12  and  C_13
REMARK   13  A    between atoms: C_13  and  C_14
REMARK   14  A    between atoms: C_14  and  C_15
REMARK   15  A    between atoms: C_15  and  C_16
REMARK   16  A    between atoms: C_16  and  C_17
REMARK   17  A    between atoms: C_17  and  C_18
REMARK   18  A    between atoms: C_26  and  C_27
REMARK   19  A    between atoms: C_27  and  O_28
REMARK   20  A    between atoms: C_29  and  O_30
REMARK   21  A    between atoms: C_31  and  O_32
REMARK   22  A    between atoms: C_33  and  O_34
REMARK                            x       y       z     vdW  Elec       q    Type
REMARK                         _______ _______ _______ _____ _____    ______ ____
ROOT
ATOM      1  C   UNL     1      -1.749  11.760  18.476  0.00  0.00    +0.000 C 
ENDROOT
BRANCH   1   2
ATOM      2  C   UNL     1      -1.463  10.256  18.572  0.00  0.00    +0.000 C 
BRANCH   2   3
ATOM      3  C   UNL     1      -0.205   9.818  17.803  0.00  0.00    +0.000 C 
BRANCH   3   4
ATOM      4  C   UNL     1       1.045   9.666  18.674  0.00  0.00    +0.000 C 
BRANCH   4   5
ATOM      5  C   UNL     1       2.222   9.249  17.842  0.00  0.00    +0.000 C 
ATOM      6  C   UNL     1       2.679   7.996  17.726  0.00  0.00    +0.000 C 
BRANCH   6   7
ATOM      7  C   UNL     1       2.074   6.770  18.354  0.00  0.00    +0.000 C 
BRANCH   7   8
ATOM      8  C   UNL     1       2.819   6.371  19.625  0.00  0.00    +0.000 C 
BRANCH   8   9
ATOM      9  C   UNL     1       1.873   5.779  20.665  0.00  0.00    +0.000 C 
BRANCH   9  10
ATOM     10  C   UNL     1       0.988   4.697  20.068  0.00  0.00    +0.000 C 
BRANCH  10  11
ATOM     11  C   UNL     1       1.171   3.403  20.854  0.00  0.00    +0.000 C 
BRANCH  11  12
ATOM     12  C   UNL     1       1.455   2.233  19.924  0.00  0.00    +0.000 C 
BRANCH  12  13
ATOM     13  C   UNL     1       1.520   2.706  18.478  0.00  0.00    +0.000 C 
BRANCH  13  14
ATOM     14  C   UNL     1       2.799   2.217  17.805  0.00  0.00    +0.000 C 
BRANCH  14  15
ATOM     15  C   UNL     1       3.884   3.251  17.891  0.00  0.00    +0.000 A 
ATOM     16  C   UNL     1       4.121   4.139  16.841  0.00  0.00    +0.000 A 
ATOM     17  C   UNL     1       5.149   5.071  16.948  0.00  0.00    +0.000 A 
ATOM     18  C   UNL     1       5.910   5.077  18.105  0.00  0.00    +0.000 A 
ATOM     19  N   UNL     1       5.719   4.225  19.136  0.00  0.00    +0.000 NA
ATOM     20  C   UNL     1       4.715   3.330  19.005  0.00  0.00    +0.000 A 
ENDBRANCH  14  15
ENDBRANCH  13  14
ENDBRANCH  12  13
ENDBRANCH  11  12
ENDBRANCH  10  11
ENDBRANCH   9  10
ENDBRANCH   8   9
ENDBRANCH   7   8
ENDBRANCH   6   7
ENDBRANCH   4   5
ENDBRANCH   3   4
ENDBRANCH   2   3
ENDBRANCH   1   2
BRANCH   1  21
ATOM     21  N   UNL     1      -1.514  12.405  19.760  0.00  0.00    +0.000 NA
BRANCH  21  22
ATOM     22  C   UNL     1      -2.561  12.302  20.771  0.00  0.00    +0.000 C 
ATOM     23  O   UNL     1      -3.806  12.775  20.261  0.00  0.00    +0.000 OA
ATOM     24  C   UNL     1      -4.894  12.652  21.174  0.00  0.00    +0.000 C 
ATOM     25  C   UNL     1      -4.623  13.453  22.456  0.00  0.00    +0.000 C 
ATOM     26  C   UNL     1      -3.304  12.992  23.090  0.00  0.00    +0.000 C 
ATOM     27  C   UNL     1      -2.151  13.054  22.074  0.00  0.00    +0.000 C 
BRANCH  27  28
ATOM     28  O   UNL     1      -0.961  12.520  22.677  0.00  0.00    +0.000 OA
ATOM     29  H   UNL     1      -0.444  13.251  23.052  0.00  0.00    +0.000 HD
ENDBRANCH  27  28
BRANCH  26  30
ATOM     30  O   UNL     1      -3.023  13.782  24.254  0.00  0.00    +0.000 OA
ATOM     31  H   UNL     1      -2.485  14.547  23.983  0.00  0.00    +0.000 HD
ENDBRANCH  26  30
BRANCH  25  32
ATOM     32  O   UNL     1      -5.721  13.312  23.367  0.00  0.00    +0.000 OA
ATOM     33  H   UNL     1      -6.420  12.792  22.928  0.00  0.00    +0.000 HD
ENDBRANCH  25  32
BRANCH  24  34
ATOM     34  C   UNL     1      -6.167  13.152  20.471  0.00  0.00    +0.000 C 
BRANCH  34  35
ATOM     35  O   UNL     1      -6.556  14.445  20.913  0.00  0.00    +0.000 OA
ATOM     36  H   UNL     1      -6.348  15.071  20.191  0.00  0.00    +0.000 HD
ENDBRANCH  34  35
ENDBRANCH  24  34
ENDBRANCH  21  22
BRANCH  21  38
ATOM     37  C   UNL     1       0.419  13.869  19.562  0.00  0.00    +0.000 C 
ATOM     38  O   UNL     1      -1.003  13.766  19.658  0.00  0.00    +0.000 OA
ENDBRANCH  21  38
ENDBRANCH   1  21
TORSDOF 21
ENDMDL
MODEL 7
REMARK VINA RESULT:      -6.3      1.415      1.934
REMARK  Name = 
REMARK  22 active torsions:
REMARK  status: ('A' for Active; 'I' for Inactive)
REMARK    1  A    between atoms: C_1  and  O_2
REMARK    2  A    between atoms: O_2  and  N_3
REMARK    3  A    between atoms: N_3  and  C_4
REMARK    4  A    between atoms: N_3  and  C_24
REMARK    5  A    between atoms: C_4  and  C_5
REMARK    6  A    between atoms: C_5  and  C_6
REMARK    7  A    between atoms: C_6  and  C_7
REMARK    8  A    between atoms: C_7  and  C_8
REMARK    9  A    between atoms: C_9  and  C_10
REMARK   10  A    between atoms: C_10  and  C_11
REMARK   11  A    between atoms: C_11  and  C_12
REMARK   12  A    between atoms: C_12  and  C_13
REMARK   13  A    between atoms: C_13  and  C_14
REMARK   14  A    between atoms: C_14  and  C_15
REMARK   15  A    between atoms: C_15  and  C_16
REMARK   16  A    between atoms: C_16  and  C_17
REMARK   17  A    between atoms: C_17  and  C_18
REMARK   18  A    between atoms: C_26  and  C_27
REMARK   19  A    between atoms: C_27  and  O_28
REMARK   20  A    between atoms: C_29  and  O_30
REMARK   21  A    between atoms: C_31  and  O_32
REMARK   22  A    between atoms: C_33  and  O_34
REMARK                            x       y       z     vdW  Elec       q    Type
REMARK                         _______ _______ _______ _____ _____    ______ ____
ROOT
ATOM      1  C   UNL     1       0.599   9.963  17.656  0.00  0.00    +0.000 C 
ENDROOT
BRANCH   1   2
ATOM      2  C   UNL     1       0.746   8.535  18.197  0.00  0.00    +0.000 C 
BRANCH   2   3
ATOM      3  C   UNL     1       2.205   8.115  18.442  0.00  0.00    +0.000 C 
BRANCH   3   4
ATOM      4  C   UNL     1       2.415   6.603  18.557  0.00  0.00    +0.000 C 
BRANCH   4   5
ATOM      5  C   UNL     1       2.752   6.221  19.968  0.00  0.00    +0.000 C 
ATOM      6  C   UNL     1       2.060   5.355  20.719  0.00  0.00    +0.000 C 
BRANCH   6   7
ATOM      7  C   UNL     1       0.858   4.565  20.279  0.00  0.00    +0.000 C 
BRANCH   7   8
ATOM      8  C   UNL     1       1.170   3.073  20.205  0.00  0.00    +0.000 C 
BRANCH   8   9
ATOM      9  C   UNL     1       1.346   2.609  18.762  0.00  0.00    +0.000 C 
BRANCH   9  10
ATOM     10  C   UNL     1       2.646   1.844  18.573  0.00  0.00    +0.000 C 
BRANCH  10  11
ATOM     11  C   UNL     1       3.681   2.757  17.926  0.00  0.00    +0.000 C 
BRANCH  11  12
ATOM     12  C   UNL     1       4.591   3.382  18.973  0.00  0.00    +0.000 C 
BRANCH  12  13
ATOM     13  C   UNL     1       5.723   4.151  18.303  0.00  0.00    +0.000 C 
BRANCH  13  14
ATOM     14  C   UNL     1       5.176   5.126  17.265  0.00  0.00    +0.000 C 
BRANCH  14  15
ATOM     15  C   UNL     1       5.868   4.953  15.944  0.00  0.00    +0.000 A 
ATOM     16  C   UNL     1       5.295   4.195  14.922  0.00  0.00    +0.000 A 
ATOM     17  C   UNL     1       5.976   4.039  13.718  0.00  0.00    +0.000 A 
ATOM     18  C   UNL     1       7.213   4.644  13.583  0.00  0.00    +0.000 A 
ATOM     19  N   UNL     1       7.805   5.374  14.553  0.00  0.00    +0.000 NA
ATOM     20  C   UNL     1       7.123   5.508  15.712  0.00  0.00    +0.000 A 
ENDBRANCH  14  15
ENDBRANCH  13  14
ENDBRANCH  12  13
ENDBRANCH  11  12
ENDBRANCH  10  11
ENDBRANCH   9  10
ENDBRANCH   8   9
ENDBRANCH   7   8
ENDBRANCH   6   7
ENDBRANCH   4   5
ENDBRANCH   3   4
ENDBRANCH   2   3
ENDBRANCH   1   2
BRANCH   1  21
ATOM     21  N   UNL     1      -0.246  10.755  18.538  0.00  0.00    +0.000 NA
BRANCH  21  22
ATOM     22  C   UNL     1      -1.689  10.695  18.327  0.00  0.00    +0.000 C 
ATOM     23  O   UNL     1      -1.994  10.591  16.938  0.00  0.00    +0.000 OA
ATOM     24  C   UNL     1      -3.386  10.468  16.655  0.00  0.00    +0.000 C 
ATOM     25  C   UNL     1      -4.157  11.691  17.173  0.00  0.00    +0.000 C 
ATOM     26  C   UNL     1      -3.903  11.869  18.676  0.00  0.00    +0.000 C 
ATOM     27  C   UNL     1      -2.397  11.922  18.980  0.00  0.00    +0.000 C 
BRANCH  27  28
ATOM     28  O   UNL     1      -2.204  11.986  20.403  0.00  0.00    +0.000 OA
ATOM     29  H   UNL     1      -1.584  11.288  20.668  0.00  0.00    +0.000 HD
ENDBRANCH  27  28
BRANCH  26  30
ATOM     30  O   UNL     1      -4.577  13.046  19.146  0.00  0.00    +0.000 OA
ATOM     31  H   UNL     1      -3.948  13.568  19.674  0.00  0.00    +0.000 HD
ENDBRANCH  26  30
BRANCH  25  32
ATOM     32  O   UNL     1      -5.555  11.550  16.890  0.00  0.00    +0.000 OA
ATOM     33  H   UNL     1      -6.017  11.330  17.722  0.00  0.00    +0.000 HD
ENDBRANCH  25  32
BRANCH  24  34
ATOM     34  C   UNL     1      -3.553  10.316  15.134  0.00  0.00    +0.000 C 
BRANCH  34  35
ATOM     35  O   UNL     1      -2.335   9.975  14.488  0.00  0.00    +0.000 OA
ATOM     36  H   UNL     1      -1.834  10.806  14.359  0.00  0.00    +0.000 HD
ENDBRANCH  34  35
ENDBRANCH  24  34
ENDBRANCH  21  22
BRANCH  21  38
ATOM     37  C   UNL     1       1.294  12.282  19.641  0.00  0.00    +0.000 C 
ATOM     38  O   UNL     1       0.209  12.128  18.723  0.00  0.00    +0.000 OA
ENDBRANCH  21  38
ENDBRANCH   1  21
TORSDOF 21
ENDMDL
MODEL 8
REMARK VINA RESULT:      -6.3      1.212      2.001
REMARK  Name = 
REMARK  22 active torsions:
REMARK  status: ('A' for Active; 'I' for Inactive)
REMARK    1  A    between atoms: C_1  and  O_2
REMARK    2  A    between atoms: O_2  and  N_3
REMARK    3  A    between atoms: N_3  and  C_4
REMARK    4  A    between atoms: N_3  and  C_24
REMARK    5  A    between atoms: C_4  and  C_5
REMARK    6  A    between atoms: C_5  and  C_6
REMARK    7  A    between atoms: C_6  and  C_7
REMARK    8  A    between atoms: C_7  and  C_8
REMARK    9  A    between atoms: C_9  and  C_10
REMARK   10  A    between atoms: C_10  and  C_11
REMARK   11  A    between atoms: C_11  and  C_12
REMARK   12  A    between atoms: C_12  and  C_13
REMARK   13  A    between atoms: C_13  and  C_14
REMARK   14  A    between atoms: C_14  and  C_15
REMARK   15  A    between atoms: C_15  and  C_16
REMARK   16  A    between atoms: C_16  and  C_17
REMARK   17  A    between atoms: C_17  and  C_18
REMARK   18  A    between atoms: C_26  and  C_27
REMARK   19  A    between atoms: C_27  and  O_28
REMARK   20  A    between atoms: C_29  and  O_30
REMARK   21  A    between atoms: C_31  and  O_32
REMARK   22  A    between atoms: C_33  and  O_34
REMARK                            x       y       z     vdW  Elec       q    Type
REMARK                         _______ _______ _______ _____ _____    ______ ____
ROOT
ATOM      1  C   UNL     1       0.547  10.295  19.519  0.00  0.00    +0.000 C 
ENDROOT
BRANCH   1   2
ATOM      2  C   UNL     1       0.302   9.048  20.378  0.00  0.00    +0.000 C 
BRANCH   2   3
ATOM      3  C   UNL     1       1.592   8.407  20.918  0.00  0.00    +0.000 C 
BRANCH   3   4
ATOM      4  C   UNL     1       1.848   6.984  20.413  0.00  0.00    +0.000 C 
BRANCH   4   5
ATOM      5  C   UNL     1       2.747   7.003  19.212  0.00  0.00    +0.000 C 
ATOM      6  C   UNL     1       2.520   6.347  18.068  0.00  0.00    +0.000 C 
BRANCH   6   7
ATOM      7  C   UNL     1       1.306   5.518  17.748  0.00  0.00    +0.000 C 
BRANCH   7   8
ATOM      8  C   UNL     1       1.655   4.036  17.648  0.00  0.00    +0.000 C 
BRANCH   8   9
ATOM      9  C   UNL     1       0.842   3.202  18.634  0.00  0.00    +0.000 C 
BRANCH   9  10
ATOM     10  C   UNL     1       0.930   3.760  20.046  0.00  0.00    +0.000 C 
BRANCH  10  11
ATOM     11  C   UNL     1       1.306   2.640  21.010  0.00  0.00    +0.000 C 
BRANCH  11  12
ATOM     12  C   UNL     1       2.765   2.744  21.429  0.00  0.00    +0.000 C 
BRANCH  12  13
ATOM     13  C   UNL     1       3.504   3.736  20.539  0.00  0.00    +0.000 C 
BRANCH  13  14
ATOM     14  C   UNL     1       4.524   3.019  19.659  0.00  0.00    +0.000 C 
BRANCH  14  15
ATOM     15  C   UNL     1       5.181   3.975  18.706  0.00  0.00    +0.000 A 
ATOM     16  C   UNL     1       5.893   5.082  19.170  0.00  0.00    +0.000 A 
ATOM     17  C   UNL     1       6.471   5.959  18.257  0.00  0.00    +0.000 A 
ATOM     18  C   UNL     1       6.311   5.699  16.907  0.00  0.00    +0.000 A 
ATOM     19  N   UNL     1       5.618   4.646  16.421  0.00  0.00    +0.000 NA
ATOM     20  C   UNL     1       5.066   3.812  17.328  0.00  0.00    +0.000 A 
ENDBRANCH  14  15
ENDBRANCH  13  14
ENDBRANCH  12  13
ENDBRANCH  11  12
ENDBRANCH  10  11
ENDBRANCH   9  10
ENDBRANCH   8   9
ENDBRANCH   7   8
ENDBRANCH   6   7
ENDBRANCH   4   5
ENDBRANCH   3   4
ENDBRANCH   2   3
ENDBRANCH   1   2
BRANCH   1  21
ATOM     21  N   UNL     1      -0.491  11.288  19.758  0.00  0.00    +0.000 NA
BRANCH  21  22
ATOM     22  C   UNL     1      -1.833  10.995  19.265  0.00  0.00    +0.000 C 
ATOM     23  O   UNL     1      -1.797  10.621  17.889  0.00  0.00    +0.000 OA
ATOM     24  C   UNL     1      -3.067  10.262  17.350  0.00  0.00    +0.000 C 
ATOM     25  C   UNL     1      -4.053  11.436  17.449  0.00  0.00    +0.000 C 
ATOM     26  C   UNL     1      -4.172  11.894  18.909  0.00  0.00    +0.000 C 
ATOM     27  C   UNL     1      -2.789  12.203  19.506  0.00  0.00    +0.000 C 
BRANCH  27  28
ATOM     28  O   UNL     1      -2.937  12.529  20.898  0.00  0.00    +0.000 OA
ATOM     29  H   UNL     1      -3.859  12.371  21.161  0.00  0.00    +0.000 HD
ENDBRANCH  27  28
BRANCH  26  30
ATOM     30  O   UNL     1      -5.047  13.028  18.991  0.00  0.00    +0.000 OA
ATOM     31  H   UNL     1      -5.830  12.850  18.441  0.00  0.00    +0.000 HD
ENDBRANCH  26  30
BRANCH  25  32
ATOM     32  O   UNL     1      -5.327  11.058  16.912  0.00  0.00    +0.000 OA
ATOM     33  H   UNL     1      -6.011  11.625  17.316  0.00  0.00    +0.000 HD
ENDBRANCH  25  32
BRANCH  24  34
ATOM     34  C   UNL     1      -2.862   9.838  15.886  0.00  0.00    +0.000 C 
BRANCH  34  35
ATOM     35  O   UNL     1      -3.067  10.911  14.978  0.00  0.00    +0.000 OA
ATOM     36  H   UNL     1      -2.610  11.693  15.348  0.00  0.00    +0.000 HD
ENDBRANCH  34  35
ENDBRANCH  24  34
ENDBRANCH  21  22
BRANCH  21  38
ATOM     37  C   UNL     1       0.986  12.763  18.508  0.00  0.00    +0.000 C 
ATOM     38  O   UNL     1      -0.092  12.654  19.440  0.00  0.00    +0.000 OA
ENDBRANCH  21  38
ENDBRANCH   1  21
TORSDOF 21
ENDMDL
MODEL 9
REMARK VINA RESULT:      -6.3      2.046      4.221
REMARK  Name = 
REMARK  22 active torsions:
REMARK  status: ('A' for Active; 'I' for Inactive)
REMARK    1  A    between atoms: C_1  and  O_2
REMARK    2  A    between atoms: O_2  and  N_3
REMARK    3  A    between atoms: N_3  and  C_4
REMARK    4  A    between atoms: N_3  and  C_24
REMARK    5  A    between atoms: C_4  and  C_5
REMARK    6  A    between atoms: C_5  and  C_6
REMARK    7  A    between atoms: C_6  and  C_7
REMARK    8  A    between atoms: C_7  and  C_8
REMARK    9  A    between atoms: C_9  and  C_10
REMARK   10  A    between atoms: C_10  and  C_11
REMARK   11  A    between atoms: C_11  and  C_12
REMARK   12  A    between atoms: C_12  and  C_13
REMARK   13  A    between atoms: C_13  and  C_14
REMARK   14  A    between atoms: C_14  and  C_15
REMARK   15  A    between atoms: C_15  and  C_16
REMARK   16  A    between atoms: C_16  and  C_17
REMARK   17  A    between atoms: C_17  and  C_18
REMARK   18  A    between atoms: C_26  and  C_27
REMARK   19  A    between atoms: C_27  and  O_28
REMARK   20  A    between atoms: C_29  and  O_30
REMARK   21  A    between atoms: C_31  and  O_32
REMARK   22  A    between atoms: C_33  and  O_34
REMARK                            x       y       z     vdW  Elec       q    Type
REMARK                         _______ _______ _______ _____ _____    ______ ____
ROOT
ATOM      1  C   UNL     1       0.154   9.117  20.672  0.00  0.00    +0.000 C 
ENDROOT
BRANCH   1   2
ATOM      2  C   UNL     1       1.526   8.431  20.651  0.00  0.00    +0.000 C 
BRANCH   2   3
ATOM      3  C   UNL     1       1.882   7.805  19.293  0.00  0.00    +0.000 C 
BRANCH   3   4
ATOM      4  C   UNL     1       2.412   6.371  19.380  0.00  0.00    +0.000 C 
BRANCH   4   5
ATOM      5  C   UNL     1       1.910   5.696  20.623  0.00  0.00    +0.000 C 
ATOM      6  C   UNL     1       1.262   4.526  20.656  0.00  0.00    +0.000 C 
BRANCH   6   7
ATOM      7  C   UNL     1       0.964   3.643  19.475  0.00  0.00    +0.000 C 
BRANCH   7   8
ATOM      8  C   UNL     1       1.579   2.256  19.648  0.00  0.00    +0.000 C 
BRANCH   8   9
ATOM      9  C   UNL     1       3.103   2.318  19.669  0.00  0.00    +0.000 C 
BRANCH   9  10
ATOM     10  C   UNL     1       3.715   1.464  18.570  0.00  0.00    +0.000 C 
BRANCH  10  11
ATOM     11  C   UNL     1       3.684   2.233  17.254  0.00  0.00    +0.000 C 
BRANCH  11  12
ATOM     12  C   UNL     1       4.144   3.670  17.449  0.00  0.00    +0.000 C 
BRANCH  12  13
ATOM     13  C   UNL     1       4.645   4.251  16.133  0.00  0.00    +0.000 C 
BRANCH  13  14
ATOM     14  C   UNL     1       6.163   4.142  16.035  0.00  0.00    +0.000 C 
BRANCH  14  15
ATOM     15  C   UNL     1       6.835   5.073  17.003  0.00  0.00    +0.000 A 
ATOM     16  C   UNL     1       6.870   6.449  16.775  0.00  0.00    +0.000 A 
ATOM     17  C   UNL     1       7.520   7.279  17.685  0.00  0.00    +0.000 A 
ATOM     18  C   UNL     1       8.118   6.699  18.790  0.00  0.00    +0.000 A 
ATOM     19  N   UNL     1       8.115   5.370  19.037  0.00  0.00    +0.000 NA
ATOM     20  C   UNL     1       7.479   4.588  18.138  0.00  0.00    +0.000 A 
ENDBRANCH  14  15
ENDBRANCH  13  14
ENDBRANCH  12  13
ENDBRANCH  11  12
ENDBRANCH  10  11
ENDBRANCH   9  10
ENDBRANCH   8   9
ENDBRANCH   7   8
ENDBRANCH   6   7
ENDBRANCH   4   5
ENDBRANCH   3   4
ENDBRANCH   2   3
ENDBRANCH   1   2
BRANCH   1  21
ATOM     21  N   UNL     1       0.113  10.201  19.701  0.00  0.00    +0.000 NA
BRANCH  21  22
ATOM     22  C   UNL     1       0.992  11.345  19.926  0.00  0.00    +0.000 C 
ATOM     23  O   UNL     1       0.328  12.350  20.690  0.00  0.00    +0.000 OA
ATOM     24  C   UNL     1       1.144  13.477  21.002  0.00  0.00    +0.000 C 
ATOM     25  C   UNL     1       1.635  14.166  19.720  0.00  0.00    +0.000 C 
ATOM     26  C   UNL     1       2.385  13.157  18.841  0.00  0.00    +0.000 C 
ATOM     27  C   UNL     1       1.525  11.910  18.575  0.00  0.00    +0.000 C 
BRANCH  27  28
ATOM     28  O   UNL     1       2.301  10.951  17.836  0.00  0.00    +0.000 OA
ATOM     29  H   UNL     1       3.001  10.603  18.411  0.00  0.00    +0.000 HD
ENDBRANCH  27  28
BRANCH  26  30
ATOM     30  O   UNL     1       2.791  13.788  17.617  0.00  0.00    +0.000 OA
ATOM     31  H   UNL     1       2.037  13.774  17.002  0.00  0.00    +0.000 HD
ENDBRANCH  26  30
BRANCH  25  32
ATOM     32  O   UNL     1       2.460  15.291  20.049  0.00  0.00    +0.000 OA
ATOM     33  H   UNL     1       2.075  16.086  19.635  0.00  0.00    +0.000 HD
ENDBRANCH  25  32
BRANCH  24  34
ATOM     34  C   UNL     1       0.314  14.444  21.864  0.00  0.00    +0.000 C 
BRANCH  34  35
ATOM     35  O   UNL     1      -0.166  13.832  23.053  0.00  0.00    +0.000 OA
ATOM     36  H   UNL     1       0.574  13.314  23.430  0.00  0.00    +0.000 HD
ENDBRANCH  34  35
ENDBRANCH  24  34
ENDBRANCH  21  22
BRANCH  21  38
ATOM     37  C   UNL     1      -1.643  10.266  18.019  0.00  0.00    +0.000 C 
ATOM     38  O   UNL     1      -1.234  10.626  19.340  0.00  0.00    +0.000 OA
ENDBRANCH  21  38
ENDBRANCH   1  21
TORSDOF 21
ENDMDL
