MODEL 1
REMARK VINA RESULT:      -5.6      0.000      0.000
REMARK  Name = 
REMARK  15 active torsions:
REMARK  status: ('A' for Active; 'I' for Inactive)
REMARK    1  A    between atoms: C_3  and  O_4
REMARK    2  A    between atoms: C_7  and  C_8
REMARK    3  A    between atoms: C_10  and  O_11
REMARK    4  A    between atoms: O_11  and  C_12
REMARK    5  A    between atoms: C_12  and  C_13
REMARK    6  A    between atoms: C_17  and  O_18
REMARK    7  A    between atoms: C_19  and  C_20
REMARK    8  A    between atoms: C_22  and  O_23
REMARK    9  A    between atoms: O_23  and  C_24
REMARK   10  A    between atoms: C_24  and  C_25
REMARK   11  A    between atoms: C_27  and  O_28
REMARK   12  A    between atoms: O_28  and  C_29
REMARK   13  A    between atoms: C_29  and  C_30
REMARK   14  A    between atoms: C_32  and  C_33
REMARK   15  A    between atoms: C_32  and  C_34
REMARK                            x       y       z     vdW  Elec       q    Type
REMARK                         _______ _______ _______ _____ _____    ______ ____
ROOT
ATOM      1  C   UNL     1      -3.416  17.226  22.467  0.00  0.00    +0.000 C 
ATOM      2  C   UNL     1      -3.754  16.639  21.306  0.00  0.00    +0.000 C 
ATOM      3  C   UNL     1      -4.719  17.313  20.376  0.00  0.00    +0.000 C 
ATOM      4  C   UNL     1      -5.956  16.419  20.425  0.00  0.00    +0.000 C 
ATOM      5  C   UNL     1      -5.665  14.954  19.885  0.00  0.00    +0.000 C 
ATOM      6  C   UNL     1      -4.575  14.206  20.793  0.00  0.00    +0.000 C 
ATOM      7  C   UNL     1      -5.576  13.820  21.976  0.00  0.00    +0.000 C 
ATOM      8  C   UNL     1      -3.360  15.260  20.798  0.00  0.00    +0.000 C 
ATOM      9  C   UNL     1      -1.912  14.820  21.104  0.00  0.00    +0.000 C 
ATOM     10  C   UNL     1      -1.001  13.722  19.929  0.00  0.00    +0.000 C 
ATOM     11  C   UNL     1      -0.872  12.022  19.476  0.00  0.00    +0.000 C 
ATOM     12  C   UNL     1      -0.854  10.823  20.542  0.00  0.00    +0.000 C 
ATOM     13  C   UNL     1      -0.493  11.359  21.916  0.00  0.00    +0.000 C 
ATOM     14  C   UNL     1      -0.974  10.535  23.115  0.00  0.00    +0.000 C 
ATOM     15  C   UNL     1      -0.788  12.673  21.866  0.00  0.00    +0.000 C 
ATOM     16  C   UNL     1      -2.640  12.503  21.861  0.00  0.00    +0.000 C 
ATOM     17  C   UNL     1      -3.815  12.812  20.591  0.00  0.00    +0.000 C 
ATOM     18  C   UNL     1       0.226  13.718  20.760  0.00  0.00    +0.000 C 
ATOM     19  C   UNL     1       1.642  13.170  20.211  0.00  0.00    +0.000 C 
ATOM     20  C   UNL     1       0.718  15.280  20.498  0.00  0.00    +0.000 C 
ENDROOT
BRANCH   3  21
ATOM     21  O   UNL     1      -4.235  17.396  19.043  0.00  0.00    +0.000 OA
ATOM     22  H   UNL     1      -3.461  16.814  18.948  0.00  0.00    +0.000 HD
ENDBRANCH   3  21
BRANCH  12  23
ATOM     23  O   UNL     1       0.069   9.789  20.213  0.00  0.00    +0.000 OA
ATOM     24  H   UNL     1       0.544  10.063  19.404  0.00  0.00    +0.000 HD
ENDBRANCH  12  23
BRANCH   9  25
ATOM     25  O   UNL     1      -1.139  15.887  21.883  0.00  0.00    +0.000 OA
BRANCH  25  26
ATOM     26  C   UNL     1      -0.690  15.692  23.180  0.00  0.00    +0.000 C 
ATOM     27  C   UNL     1      -0.188  16.967  23.790  0.00  0.00    +0.000 C 
ATOM     28  O   UNL     1      -0.707  14.651  23.823  0.00  0.00    +0.000 OA
ENDBRANCH  25  26
ENDBRANCH   9  25
BRANCH  16  29
ATOM     29  O   UNL     1      -3.106  13.296  23.056  0.00  0.00    +0.000 OA
BRANCH  29  30
ATOM     30  C   UNL     1      -3.577  12.946  24.225  0.00  0.00    +0.000 C 
ATOM     31  C   UNL     1      -3.633  14.097  25.171  0.00  0.00    +0.000 C 
ATOM     32  O   UNL     1      -4.059  11.817  24.454  0.00  0.00    +0.000 OA
ENDBRANCH  29  30
ENDBRANCH  16  29
BRANCH  17  33
ATOM     33  O   UNL     1      -3.633  12.220  19.268  0.00  0.00    +0.000 OA
BRANCH  33  34
ATOM     34  C   UNL     1      -4.630  11.650  18.554  0.00  0.00    +0.000 C 
ATOM     35  C   UNL     1      -4.250  11.526  17.101  0.00  0.00    +0.000 C 
ATOM     36  O   UNL     1      -5.709  11.291  18.980  0.00  0.00    +0.000 OA
ENDBRANCH  33  34
ENDBRANCH  17  33
TORSDOF 8
ENDMDL
MODEL 2
REMARK VINA RESULT:      -5.2      1.368      1.554
REMARK  Name = 
REMARK  15 active torsions:
REMARK  status: ('A' for Active; 'I' for Inactive)
REMARK    1  A    between atoms: C_3  and  O_4
REMARK    2  A    between atoms: C_7  and  C_8
REMARK    3  A    between atoms: C_10  and  O_11
REMARK    4  A    between atoms: O_11  and  C_12
REMARK    5  A    between atoms: C_12  and  C_13
REMARK    6  A    between atoms: C_17  and  O_18
REMARK    7  A    between atoms: C_19  and  C_20
REMARK    8  A    between atoms: C_22  and  O_23
REMARK    9  A    between atoms: O_23  and  C_24
REMARK   10  A    between atoms: C_24  and  C_25
REMARK   11  A    between atoms: C_27  and  O_28
REMARK   12  A    between atoms: O_28  and  C_29
REMARK   13  A    between atoms: C_29  and  C_30
REMARK   14  A    between atoms: C_32  and  C_33
REMARK   15  A    between atoms: C_32  and  C_34
REMARK                            x       y       z     vdW  Elec       q    Type
REMARK                         _______ _______ _______ _____ _____    ______ ____
ROOT
ATOM      1  C   UNL     1      -3.480  16.188  22.581  0.00  0.00    +0.000 C 
ATOM      2  C   UNL     1      -3.837  15.789  21.348  0.00  0.00    +0.000 C 
ATOM      3  C   UNL     1      -5.082  16.335  20.713  0.00  0.00    +0.000 C 
ATOM      4  C   UNL     1      -6.020  15.131  20.657  0.00  0.00    +0.000 C 
ATOM      5  C   UNL     1      -5.450  13.963  19.743  0.00  0.00    +0.000 C 
ATOM      6  C   UNL     1      -4.071  13.389  20.326  0.00  0.00    +0.000 C 
ATOM      7  C   UNL     1      -4.731  12.487  21.467  0.00  0.00    +0.000 C 
ATOM      8  C   UNL     1      -3.187  14.724  20.477  0.00  0.00    +0.000 C 
ATOM      9  C   UNL     1      -1.645  14.670  20.522  0.00  0.00    +0.000 C 
ATOM     10  C   UNL     1      -0.684  14.159  19.028  0.00  0.00    +0.000 C 
ATOM     11  C   UNL     1      -0.193  12.708  18.154  0.00  0.00    +0.000 C 
ATOM     12  C   UNL     1       0.308  11.368  18.881  0.00  0.00    +0.000 C 
ATOM     13  C   UNL     1       0.737  11.681  20.304  0.00  0.00    +0.000 C 
ATOM     14  C   UNL     1       0.687  10.517  21.299  0.00  0.00    +0.000 C 
ATOM     15  C   UNL     1       0.107  12.831  20.612  0.00  0.00    +0.000 C 
ATOM     16  C   UNL     1      -1.613  12.136  20.743  0.00  0.00    +0.000 C 
ATOM     17  C   UNL     1      -3.019  12.352  19.710  0.00  0.00    +0.000 C 
ATOM     18  C   UNL     1       0.620  14.336  19.709  0.00  0.00    +0.000 C 
ATOM     19  C   UNL     1       2.021  14.352  18.906  0.00  0.00    +0.000 C 
ATOM     20  C   UNL     1       0.641  15.991  19.799  0.00  0.00    +0.000 C 
ENDROOT
BRANCH   3  21
ATOM     21  O   UNL     1      -4.859  16.835  19.403  0.00  0.00    +0.000 OA
ATOM     22  H   UNL     1      -5.713  17.072  19.002  0.00  0.00    +0.000 HD
ENDBRANCH   3  21
BRANCH  12  23
ATOM     23  O   UNL     1       1.402  10.740  18.217  0.00  0.00    +0.000 OA
ATOM     24  H   UNL     1       2.202  10.890  18.758  0.00  0.00    +0.000 HD
ENDBRANCH  12  23
BRANCH   9  25
ATOM     25  O   UNL     1      -1.059  15.724  21.464  0.00  0.00    +0.000 OA
BRANCH  25  26
ATOM     26  C   UNL     1      -0.460  15.402  22.671  0.00  0.00    +0.000 C 
ATOM     27  C   UNL     1       0.074  16.620  23.368  0.00  0.00    +0.000 C 
ATOM     28  O   UNL     1      -0.373  14.295  23.186  0.00  0.00    +0.000 OA
ENDBRANCH  25  26
ENDBRANCH   9  25
BRANCH  16  29
ATOM     29  O   UNL     1      -2.068  12.486  22.137  0.00  0.00    +0.000 OA
BRANCH  29  30
ATOM     30  C   UNL     1      -2.191  11.784  23.235  0.00  0.00    +0.000 C 
ATOM     31  C   UNL     1      -3.206  12.366  24.158  0.00  0.00    +0.000 C 
ATOM     32  O   UNL     1      -1.629  10.682  23.403  0.00  0.00    +0.000 OA
ENDBRANCH  29  30
ENDBRANCH  16  29
BRANCH  17  33
ATOM     33  O   UNL     1      -2.907  12.134  18.270  0.00  0.00    +0.000 OA
BRANCH  33  34
ATOM     34  C   UNL     1      -3.708  11.298  17.570  0.00  0.00    +0.000 C 
ATOM     35  C   UNL     1      -3.111   9.917  17.497  0.00  0.00    +0.000 C 
ATOM     36  O   UNL     1      -4.762  11.584  17.039  0.00  0.00    +0.000 OA
ENDBRANCH  33  34
ENDBRANCH  17  33
TORSDOF 8
ENDMDL
MODEL 3
REMARK VINA RESULT:      -4.9      1.761      4.620
REMARK  Name = 
REMARK  15 active torsions:
REMARK  status: ('A' for Active; 'I' for Inactive)
REMARK    1  A    between atoms: C_3  and  O_4
REMARK    2  A    between atoms: C_7  and  C_8
REMARK    3  A    between atoms: C_10  and  O_11
REMARK    4  A    between atoms: O_11  and  C_12
REMARK    5  A    between atoms: C_12  and  C_13
REMARK    6  A    between atoms: C_17  and  O_18
REMARK    7  A    between atoms: C_19  and  C_20
REMARK    8  A    between atoms: C_22  and  O_23
REMARK    9  A    between atoms: O_23  and  C_24
REMARK   10  A    between atoms: C_24  and  C_25
REMARK   11  A    between atoms: C_27  and  O_28
REMARK   12  A    between atoms: O_28  and  C_29
REMARK   13  A    between atoms: C_29  and  C_30
REMARK   14  A    between atoms: C_32  and  C_33
REMARK   15  A    between atoms: C_32  and  C_34
REMARK                            x       y       z     vdW  Elec       q    Type
REMARK                         _______ _______ _______ _____ _____    ______ ____
ROOT
ATOM      1  C   UNL     1      -3.008  15.244  24.870  0.00  0.00    +0.000 C 
ATOM      2  C   UNL     1      -1.924  15.623  24.170  0.00  0.00    +0.000 C 
ATOM      3  C   UNL     1      -1.030  16.706  24.697  0.00  0.00    +0.000 C 
ATOM      4  C   UNL     1      -1.246  17.862  23.723  0.00  0.00    +0.000 C 
ATOM      5  C   UNL     1      -0.793  17.500  22.245  0.00  0.00    +0.000 C 
ATOM      6  C   UNL     1      -1.660  16.289  21.651  0.00  0.00    +0.000 C 
ATOM      7  C   UNL     1      -2.946  17.163  21.289  0.00  0.00    +0.000 C 
ATOM      8  C   UNL     1      -1.488  15.162  22.786  0.00  0.00    +0.000 C 
ATOM      9  C   UNL     1      -1.705  13.666  22.478  0.00  0.00    +0.000 C 
ATOM     10  C   UNL     1      -0.542  12.765  21.358  0.00  0.00    +0.000 C 
ATOM     11  C   UNL     1      -0.205  12.539  19.642  0.00  0.00    +0.000 C 
ATOM     12  C   UNL     1      -1.351  12.346  18.535  0.00  0.00    +0.000 C 
ATOM     13  C   UNL     1      -2.648  11.924  19.202  0.00  0.00    +0.000 C 
ATOM     14  C   UNL     1      -3.939  12.246  18.443  0.00  0.00    +0.000 C 
ATOM     15  C   UNL     1      -2.526  12.323  20.483  0.00  0.00    +0.000 C 
ATOM     16  C   UNL     1      -2.686  14.151  20.181  0.00  0.00    +0.000 C 
ATOM     17  C   UNL     1      -1.498  15.441  20.304  0.00  0.00    +0.000 C 
ATOM     18  C   UNL     1      -1.267  11.482  21.507  0.00  0.00    +0.000 C 
ATOM     19  C   UNL     1      -0.645  10.073  21.021  0.00  0.00    +0.000 C 
ATOM     20  C   UNL     1      -0.853  11.134  23.075  0.00  0.00    +0.000 C 
ENDROOT
BRANCH   3  21
ATOM     21  O   UNL     1       0.340  16.333  24.709  0.00  0.00    +0.000 OA
ATOM     22  H   UNL     1       0.432  15.466  25.140  0.00  0.00    +0.000 HD
ENDBRANCH   3  21
BRANCH  12  23
ATOM     23  O   UNL     1      -1.023  11.374  17.546  0.00  0.00    +0.000 OA
ATOM     24  H   UNL     1      -0.062  11.434  17.381  0.00  0.00    +0.000 HD
ENDBRANCH  12  23
BRANCH   9  25
ATOM     25  O   UNL     1      -2.338  12.920  23.655  0.00  0.00    +0.000 OA
BRANCH  25  26
ATOM     26  C   UNL     1      -3.649  12.474  23.644  0.00  0.00    +0.000 C 
ATOM     27  C   UNL     1      -4.231  12.427  25.026  0.00  0.00    +0.000 C 
ATOM     28  O   UNL     1      -4.324  12.175  22.667  0.00  0.00    +0.000 OA
ENDBRANCH  25  26
ENDBRANCH   9  25
BRANCH  16  29
ATOM     29  O   UNL     1      -3.854  14.585  21.030  0.00  0.00    +0.000 OA
BRANCH  29  30
ATOM     30  C   UNL     1      -5.111  14.827  20.757  0.00  0.00    +0.000 C 
ATOM     31  C   UNL     1      -5.916  15.055  21.990  0.00  0.00    +0.000 C 
ATOM     32  O   UNL     1      -5.533  14.993  19.593  0.00  0.00    +0.000 OA
ENDBRANCH  29  30
ENDBRANCH  16  29
BRANCH  17  33
ATOM     33  O   UNL     1      -0.211  15.315  19.624  0.00  0.00    +0.000 OA
BRANCH  33  34
ATOM     34  C   UNL     1       0.384  16.323  18.945  0.00  0.00    +0.000 C 
ATOM     35  C   UNL     1      -0.623  17.088  18.126  0.00  0.00    +0.000 C 
ATOM     36  O   UNL     1       1.566  16.596  18.950  0.00  0.00    +0.000 OA
ENDBRANCH  33  34
ENDBRANCH  17  33
TORSDOF 8
ENDMDL
MODEL 4
REMARK VINA RESULT:      -4.6      1.756      5.369
REMARK  Name = 
REMARK  15 active torsions:
REMARK  status: ('A' for Active; 'I' for Inactive)
REMARK    1  A    between atoms: C_3  and  O_4
REMARK    2  A    between atoms: C_7  and  C_8
REMARK    3  A    between atoms: C_10  and  O_11
REMARK    4  A    between atoms: O_11  and  C_12
REMARK    5  A    between atoms: C_12  and  C_13
REMARK    6  A    between atoms: C_17  and  O_18
REMARK    7  A    between atoms: C_19  and  C_20
REMARK    8  A    between atoms: C_22  and  O_23
REMARK    9  A    between atoms: O_23  and  C_24
REMARK   10  A    between atoms: C_24  and  C_25
REMARK   11  A    between atoms: C_27  and  O_28
REMARK   12  A    between atoms: O_28  and  C_29
REMARK   13  A    between atoms: C_29  and  C_30
REMARK   14  A    between atoms: C_32  and  C_33
REMARK   15  A    between atoms: C_32  and  C_34
REMARK                            x       y       z     vdW  Elec       q    Type
REMARK                         _______ _______ _______ _____ _____    ______ ____
ROOT
ATOM      1  C   UNL     1      -0.339  15.295  18.679  0.00  0.00    +0.000 C 
ATOM      2  C   UNL     1       0.257  14.465  19.553  0.00  0.00    +0.000 C 
ATOM      3  C   UNL     1       1.693  14.078  19.362  0.00  0.00    +0.000 C 
ATOM      4  C   UNL     1       1.626  12.593  19.010  0.00  0.00    +0.000 C 
ATOM      5  C   UNL     1       1.014  11.721  20.188  0.00  0.00    +0.000 C 
ATOM      6  C   UNL     1      -0.502  12.144  20.497  0.00  0.00    +0.000 C 
ATOM      7  C   UNL     1      -1.152  11.358  19.268  0.00  0.00    +0.000 C 
ATOM      8  C   UNL     1      -0.369  13.730  20.729  0.00  0.00    +0.000 C 
ATOM      9  C   UNL     1      -1.425  14.520  21.529  0.00  0.00    +0.000 C 
ATOM     10  C   UNL     1      -1.627  14.235  23.345  0.00  0.00    +0.000 C 
ATOM     11  C   UNL     1      -2.373  13.103  24.472  0.00  0.00    +0.000 C 
ATOM     12  C   UNL     1      -3.836  12.478  24.255  0.00  0.00    +0.000 C 
ATOM     13  C   UNL     1      -4.619  13.325  23.269  0.00  0.00    +0.000 C 
ATOM     14  C   UNL     1      -5.750  12.618  22.515  0.00  0.00    +0.000 C 
ATOM     15  C   UNL     1      -3.685  13.995  22.567  0.00  0.00    +0.000 C 
ATOM     16  C   UNL     1      -3.036  12.552  21.590  0.00  0.00    +0.000 C 
ATOM     17  C   UNL     1      -1.495  11.710  21.675  0.00  0.00    +0.000 C 
ATOM     18  C   UNL     1      -2.702  15.249  23.464  0.00  0.00    +0.000 C 
ATOM     19  C   UNL     1      -3.215  15.802  24.892  0.00  0.00    +0.000 C 
ATOM     20  C   UNL     1      -1.789  16.617  23.251  0.00  0.00    +0.000 C 
ENDROOT
BRANCH   3  21
ATOM     21  O   UNL     1       2.475  14.262  20.533  0.00  0.00    +0.000 OA
ATOM     22  H   UNL     1       2.359  15.172  20.854  0.00  0.00    +0.000 HD
ENDBRANCH   3  21
BRANCH  12  23
ATOM     23  O   UNL     1      -4.593  12.384  25.459  0.00  0.00    +0.000 OA
ATOM     24  H   UNL     1      -5.406  11.880  25.258  0.00  0.00    +0.000 HD
ENDBRANCH  12  23
BRANCH   9  25
ATOM     25  O   UNL     1      -1.645  15.925  20.963  0.00  0.00    +0.000 OA
BRANCH  25  26
ATOM     26  C   UNL     1      -2.863  16.347  20.456  0.00  0.00    +0.000 C 
ATOM     27  C   UNL     1      -2.729  17.630  19.689  0.00  0.00    +0.000 C 
ATOM     28  O   UNL     1      -3.944  15.780  20.547  0.00  0.00    +0.000 OA
ENDBRANCH  25  26
ENDBRANCH   9  25
BRANCH  16  29
ATOM     29  O   UNL     1      -3.209  12.951  20.146  0.00  0.00    +0.000 OA
BRANCH  29  30
ATOM     30  C   UNL     1      -4.176  12.768  19.283  0.00  0.00    +0.000 C 
ATOM     31  C   UNL     1      -3.897  11.625  18.368  0.00  0.00    +0.000 C 
ATOM     32  O   UNL     1      -5.258  13.387  19.334  0.00  0.00    +0.000 OA
ENDBRANCH  29  30
ENDBRANCH  16  29
BRANCH  17  33
ATOM     33  O   UNL     1      -0.999  11.223  22.959  0.00  0.00    +0.000 OA
BRANCH  33  34
ATOM     34  C   UNL     1      -0.366  10.039  23.122  0.00  0.00    +0.000 C 
ATOM     35  C   UNL     1      -0.720   9.082  22.013  0.00  0.00    +0.000 C 
ATOM     36  O   UNL     1       0.378   9.738  24.033  0.00  0.00    +0.000 OA
ENDBRANCH  33  34
ENDBRANCH  17  33
TORSDOF 8
ENDMDL
MODEL 5
REMARK VINA RESULT:      -4.5      1.899      6.093
REMARK  Name = 
REMARK  15 active torsions:
REMARK  status: ('A' for Active; 'I' for Inactive)
REMARK    1  A    between atoms: C_3  and  O_4
REMARK    2  A    between atoms: C_7  and  C_8
REMARK    3  A    between atoms: C_10  and  O_11
REMARK    4  A    between atoms: O_11  and  C_12
REMARK    5  A    between atoms: C_12  and  C_13
REMARK    6  A    between atoms: C_17  and  O_18
REMARK    7  A    between atoms: C_19  and  C_20
REMARK    8  A    between atoms: C_22  and  O_23
REMARK    9  A    between atoms: O_23  and  C_24
REMARK   10  A    between atoms: C_24  and  C_25
REMARK   11  A    between atoms: C_27  and  O_28
REMARK   12  A    between atoms: O_28  and  C_29
REMARK   13  A    between atoms: C_29  and  C_30
REMARK   14  A    between atoms: C_32  and  C_33
REMARK   15  A    between atoms: C_32  and  C_34
REMARK                            x       y       z     vdW  Elec       q    Type
REMARK                         _______ _______ _______ _____ _____    ______ ____
ROOT
ATOM      1  C   UNL     1      -2.110  11.541  23.247  0.00  0.00    +0.000 C 
ATOM      2  C   UNL     1      -1.837  12.180  22.095  0.00  0.00    +0.000 C 
ATOM      3  C   UNL     1      -0.773  11.654  21.179  0.00  0.00    +0.000 C 
ATOM      4  C   UNL     1       0.328  12.709  21.256  0.00  0.00    +0.000 C 
ATOM      5  C   UNL     1      -0.152  14.125  20.722  0.00  0.00    +0.000 C 
ATOM      6  C   UNL     1      -1.350  14.708  21.615  0.00  0.00    +0.000 C 
ATOM      7  C   UNL     1      -0.432  15.217  22.819  0.00  0.00    +0.000 C 
ATOM      8  C   UNL     1      -2.409  13.497  21.591  0.00  0.00    +0.000 C 
ATOM      9  C   UNL     1      -3.907  13.731  21.874  0.00  0.00    +0.000 C 
ATOM     10  C   UNL     1      -4.941  14.705  20.690  0.00  0.00    +0.000 C 
ATOM     11  C   UNL     1      -5.295  16.374  20.246  0.00  0.00    +0.000 C 
ATOM     12  C   UNL     1      -5.496  17.549  21.321  0.00  0.00    +0.000 C 
ATOM     13  C   UNL     1      -5.803  16.956  22.684  0.00  0.00    +0.000 C 
ATOM     14  C   UNL     1      -5.461  17.827  23.897  0.00  0.00    +0.000 C 
ATOM     15  C   UNL     1      -5.329  15.696  22.630  0.00  0.00    +0.000 C 
ATOM     16  C   UNL     1      -3.519  16.119  22.659  0.00  0.00    +0.000 C 
ATOM     17  C   UNL     1      -2.290  15.986  21.409  0.00  0.00    +0.000 C 
ATOM     18  C   UNL     1      -6.171  14.532  21.498  0.00  0.00    +0.000 C 
ATOM     19  C   UNL     1      -7.639  14.886  20.928  0.00  0.00    +0.000 C 
ATOM     20  C   UNL     1      -6.439  12.920  21.217  0.00  0.00    +0.000 C 
ENDROOT
BRANCH   3  21
ATOM     21  O   UNL     1      -1.218  11.518  19.837  0.00  0.00    +0.000 OA
ATOM     22  H   UNL     1      -0.946  10.650  19.497  0.00  0.00    +0.000 HD
ENDBRANCH   3  21
BRANCH  12  23
ATOM     23  O   UNL     1      -6.547  18.451  20.982  0.00  0.00    +0.000 OA
ATOM     24  H   UNL     1      -6.795  18.933  21.795  0.00  0.00    +0.000 HD
ENDBRANCH  12  23
BRANCH   9  25
ATOM     25  O   UNL     1      -4.540  12.560  22.631  0.00  0.00    +0.000 OA
BRANCH  25  26
ATOM     26  C   UNL     1      -4.856  12.622  23.978  0.00  0.00    +0.000 C 
ATOM     27  C   UNL     1      -6.337  12.543  24.205  0.00  0.00    +0.000 C 
ATOM     28  O   UNL     1      -4.079  12.692  24.922  0.00  0.00    +0.000 OA
ENDBRANCH  25  26
ENDBRANCH   9  25
BRANCH  16  29
ATOM     29  O   UNL     1      -2.968  15.386  23.857  0.00  0.00    +0.000 OA
BRANCH  29  30
ATOM     30  C   UNL     1      -2.550  15.788  25.030  0.00  0.00    +0.000 C 
ATOM     31  C   UNL     1      -2.352  17.265  25.076  0.00  0.00    +0.000 C 
ATOM     32  O   UNL     1      -2.477  15.032  26.021  0.00  0.00    +0.000 OA
ENDBRANCH  29  30
ENDBRANCH  16  29
BRANCH  17  33
ATOM     33  O   UNL     1      -2.529  16.560  20.087  0.00  0.00    +0.000 OA
BRANCH  33  34
ATOM     34  C   UNL     1      -1.721  17.475  19.506  0.00  0.00    +0.000 C 
ATOM     35  C   UNL     1      -2.522  18.468  18.703  0.00  0.00    +0.000 C 
ATOM     36  O   UNL     1      -0.510  17.518  19.577  0.00  0.00    +0.000 OA
ENDBRANCH  33  34
ENDBRANCH  17  33
TORSDOF 8
ENDMDL
MODEL 6
REMARK VINA RESULT:      -4.5      8.100     11.676
REMARK  Name = 
REMARK  15 active torsions:
REMARK  status: ('A' for Active; 'I' for Inactive)
REMARK    1  A    between atoms: C_3  and  O_4
REMARK    2  A    between atoms: C_7  and  C_8
REMARK    3  A    between atoms: C_10  and  O_11
REMARK    4  A    between atoms: O_11  and  C_12
REMARK    5  A    between atoms: C_12  and  C_13
REMARK    6  A    between atoms: C_17  and  O_18
REMARK    7  A    between atoms: C_19  and  C_20
REMARK    8  A    between atoms: C_22  and  O_23
REMARK    9  A    between atoms: O_23  and  C_24
REMARK   10  A    between atoms: C_24  and  C_25
REMARK   11  A    between atoms: C_27  and  O_28
REMARK   12  A    between atoms: O_28  and  C_29
REMARK   13  A    between atoms: C_29  and  C_30
REMARK   14  A    between atoms: C_32  and  C_33
REMARK   15  A    between atoms: C_32  and  C_34
REMARK                            x       y       z     vdW  Elec       q    Type
REMARK                         _______ _______ _______ _____ _____    ______ ____
ROOT
ATOM      1  C   UNL     1       9.018  18.585  19.442  0.00  0.00    +0.000 C 
ATOM      2  C   UNL     1       9.665  17.421  19.251  0.00  0.00    +0.000 C 
ATOM      3  C   UNL     1      10.803  17.346  18.277  0.00  0.00    +0.000 C 
ATOM      4  C   UNL     1      10.261  16.468  17.151  0.00  0.00    +0.000 C 
ATOM      5  C   UNL     1       9.912  14.999  17.644  0.00  0.00    +0.000 C 
ATOM      6  C   UNL     1       8.753  15.018  18.752  0.00  0.00    +0.000 C 
ATOM      7  C   UNL     1       7.542  15.209  17.727  0.00  0.00    +0.000 C 
ATOM      8  C   UNL     1       9.336  16.054  19.834  0.00  0.00    +0.000 C 
ATOM      9  C   UNL     1       8.853  16.049  21.299  0.00  0.00    +0.000 C 
ATOM     10  C   UNL     1       9.242  14.620  22.406  0.00  0.00    +0.000 C 
ATOM     11  C   UNL     1       8.691  12.982  22.760  0.00  0.00    +0.000 C 
ATOM     12  C   UNL     1       7.142  12.572  22.847  0.00  0.00    +0.000 C 
ATOM     13  C   UNL     1       6.290  13.811  23.054  0.00  0.00    +0.000 C 
ATOM     14  C   UNL     1       4.831  13.716  22.595  0.00  0.00    +0.000 C 
ATOM     15  C   UNL     1       7.049  14.833  22.613  0.00  0.00    +0.000 C 
ATOM     16  C   UNL     1       6.944  14.444  20.797  0.00  0.00    +0.000 C 
ATOM     17  C   UNL     1       8.165  13.853  19.679  0.00  0.00    +0.000 C 
ATOM     18  C   UNL     1       8.556  15.231  23.568  0.00  0.00    +0.000 C 
ATOM     19  C   UNL     1       8.727  14.666  25.071  0.00  0.00    +0.000 C 
ATOM     20  C   UNL     1       9.635  16.448  23.893  0.00  0.00    +0.000 C 
ENDROOT
BRANCH   3  21
ATOM     21  O   UNL     1      11.967  16.753  18.834  0.00  0.00    +0.000 OA
ATOM     22  H   UNL     1      12.634  17.444  18.987  0.00  0.00    +0.000 HD
ENDBRANCH   3  21
BRANCH  12  23
ATOM     23  O   UNL     1       6.859  11.657  23.903  0.00  0.00    +0.000 OA
ATOM     24  H   UNL     1       6.684  12.182  24.709  0.00  0.00    +0.000 HD
ENDBRANCH  12  23
BRANCH   9  25
ATOM     25  O   UNL     1       8.793  17.459  21.892  0.00  0.00    +0.000 OA
BRANCH  25  26
ATOM     26  C   UNL     1       7.600  18.123  22.128  0.00  0.00    +0.000 C 
ATOM     27  C   UNL     1       7.517  18.629  23.539  0.00  0.00    +0.000 C 
ATOM     28  O   UNL     1       6.700  18.343  21.328  0.00  0.00    +0.000 OA
ENDBRANCH  25  26
ENDBRANCH   9  25
BRANCH  16  29
ATOM     29  O   UNL     1       6.374  15.689  20.166  0.00  0.00    +0.000 OA
BRANCH  29  30
ATOM     30  C   UNL     1       5.211  15.964  19.633  0.00  0.00    +0.000 C 
ATOM     31  C   UNL     1       4.335  14.760  19.556  0.00  0.00    +0.000 C 
ATOM     32  O   UNL     1       4.843  17.127  19.368  0.00  0.00    +0.000 OA
ENDBRANCH  29  30
ENDBRANCH  16  29
BRANCH  17  33
ATOM     33  O   UNL     1       8.949  12.667  20.014  0.00  0.00    +0.000 OA
BRANCH  33  34
ATOM     34  C   UNL     1       9.760  12.029  19.140  0.00  0.00    +0.000 C 
ATOM     35  C   UNL     1      11.167  11.948  19.671  0.00  0.00    +0.000 C 
ATOM     36  O   UNL     1       9.444  11.583  18.056  0.00  0.00    +0.000 OA
ENDBRANCH  33  34
ENDBRANCH  17  33
TORSDOF 8
ENDMDL
MODEL 7
REMARK VINA RESULT:      -4.4      1.932      5.101
REMARK  Name = 
REMARK  15 active torsions:
REMARK  status: ('A' for Active; 'I' for Inactive)
REMARK    1  A    between atoms: C_3  and  O_4
REMARK    2  A    between atoms: C_7  and  C_8
REMARK    3  A    between atoms: C_10  and  O_11
REMARK    4  A    between atoms: O_11  and  C_12
REMARK    5  A    between atoms: C_12  and  C_13
REMARK    6  A    between atoms: C_17  and  O_18
REMARK    7  A    between atoms: C_19  and  C_20
REMARK    8  A    between atoms: C_22  and  O_23
REMARK    9  A    between atoms: O_23  and  C_24
REMARK   10  A    between atoms: C_24  and  C_25
REMARK   11  A    between atoms: C_27  and  O_28
REMARK   12  A    between atoms: O_28  and  C_29
REMARK   13  A    between atoms: C_29  and  C_30
REMARK   14  A    between atoms: C_32  and  C_33
REMARK   15  A    between atoms: C_32  and  C_34
REMARK                            x       y       z     vdW  Elec       q    Type
REMARK                         _______ _______ _______ _____ _____    ______ ____
ROOT
ATOM      1  C   UNL     1      -5.128  14.877  21.699  0.00  0.00    +0.000 C 
ATOM      2  C   UNL     1      -4.789  13.664  22.172  0.00  0.00    +0.000 C 
ATOM      3  C   UNL     1      -5.492  13.102  23.371  0.00  0.00    +0.000 C 
ATOM      4  C   UNL     1      -4.416  13.095  24.454  0.00  0.00    +0.000 C 
ATOM      5  C   UNL     1      -3.195  12.149  24.088  0.00  0.00    +0.000 C 
ATOM      6  C   UNL     1      -2.447  12.652  22.762  0.00  0.00    +0.000 C 
ATOM      7  C   UNL     1      -1.624  13.826  23.466  0.00  0.00    +0.000 C 
ATOM      8  C   UNL     1      -3.659  12.756  21.709  0.00  0.00    +0.000 C 
ATOM      9  C   UNL     1      -3.411  12.715  20.187  0.00  0.00    +0.000 C 
ATOM     10  C   UNL     1      -2.797  11.168  19.382  0.00  0.00    +0.000 C 
ATOM     11  C   UNL     1      -1.304  10.265  19.127  0.00  0.00    +0.000 C 
ATOM     12  C   UNL     1       0.095  10.960  18.759  0.00  0.00    +0.000 C 
ATOM     13  C   UNL     1      -0.149  12.356  18.216  0.00  0.00    +0.000 C 
ATOM     14  C   UNL     1       1.009  13.351  18.357  0.00  0.00    +0.000 C 
ATOM     15  C   UNL     1      -1.366  12.702  18.679  0.00  0.00    +0.000 C 
ATOM     16  C   UNL     1      -0.891  12.928  20.462  0.00  0.00    +0.000 C 
ATOM     17  C   UNL     1      -1.292  11.976  21.885  0.00  0.00    +0.000 C 
ATOM     18  C   UNL     1      -2.802  11.775  18.030  0.00  0.00    +0.000 C 
ATOM     19  C   UNL     1      -2.650  10.895  16.685  0.00  0.00    +0.000 C 
ATOM     20  C   UNL     1      -4.442  11.868  17.796  0.00  0.00    +0.000 C 
ENDROOT
BRANCH   3  21
ATOM     21  O   UNL     1      -5.973  11.782  23.160  0.00  0.00    +0.000 OA
ATOM     22  H   UNL     1      -5.579  11.189  23.821  0.00  0.00    +0.000 HD
ENDBRANCH   3  21
BRANCH  12  23
ATOM     23  O   UNL     1       0.849  10.233  17.791  0.00  0.00    +0.000 OA
ATOM     24  H   UNL     1       0.681   9.282  17.940  0.00  0.00    +0.000 HD
ENDBRANCH  12  23
BRANCH   9  25
ATOM     25  O   UNL     1      -4.375  13.625  19.421  0.00  0.00    +0.000 OA
BRANCH  25  26
ATOM     26  C   UNL     1      -5.735  13.378  19.340  0.00  0.00    +0.000 C 
ATOM     27  C   UNL     1      -6.460  14.488  18.637  0.00  0.00    +0.000 C 
ATOM     28  O   UNL     1      -6.335  12.386  19.732  0.00  0.00    +0.000 OA
ENDBRANCH  25  26
ENDBRANCH   9  25
BRANCH  16  29
ATOM     29  O   UNL     1      -1.283  14.346  20.792  0.00  0.00    +0.000 OA
BRANCH  29  30
ATOM     30  C   UNL     1      -0.699  15.500  20.590  0.00  0.00    +0.000 C 
ATOM     31  C   UNL     1      -1.639  16.509  20.026  0.00  0.00    +0.000 C 
ATOM     32  O   UNL     1       0.464  15.748  20.971  0.00  0.00    +0.000 OA
ENDBRANCH  29  30
ENDBRANCH  16  29
BRANCH  17  33
ATOM     33  O   UNL     1      -1.075  10.531  21.881  0.00  0.00    +0.000 OA
BRANCH  33  34
ATOM     34  C   UNL     1      -0.156   9.906  22.652  0.00  0.00    +0.000 C 
ATOM     35  C   UNL     1       0.696   8.976  21.827  0.00  0.00    +0.000 C 
ATOM     36  O   UNL     1      -0.016  10.030  23.851  0.00  0.00    +0.000 OA
ENDBRANCH  33  34
ENDBRANCH  17  33
TORSDOF 8
ENDMDL
MODEL 8
REMARK VINA RESULT:      -4.4      1.866      5.117
REMARK  Name = 
REMARK  15 active torsions:
REMARK  status: ('A' for Active; 'I' for Inactive)
REMARK    1  A    between atoms: C_3  and  O_4
REMARK    2  A    between atoms: C_7  and  C_8
REMARK    3  A    between atoms: C_10  and  O_11
REMARK    4  A    between atoms: O_11  and  C_12
REMARK    5  A    between atoms: C_12  and  C_13
REMARK    6  A    between atoms: C_17  and  O_18
REMARK    7  A    between atoms: C_19  and  C_20
REMARK    8  A    between atoms: C_22  and  O_23
REMARK    9  A    between atoms: O_23  and  C_24
REMARK   10  A    between atoms: C_24  and  C_25
REMARK   11  A    between atoms: C_27  and  O_28
REMARK   12  A    between atoms: O_28  and  C_29
REMARK   13  A    between atoms: C_29  and  C_30
REMARK   14  A    between atoms: C_32  and  C_33
REMARK   15  A    between atoms: C_32  and  C_34
REMARK                            x       y       z     vdW  Elec       q    Type
REMARK                         _______ _______ _______ _____ _____    ______ ____
ROOT
ATOM      1  C   UNL     1      -5.946  11.463  20.065  0.00  0.00    +0.000 C 
ATOM      2  C   UNL     1      -5.078  12.026  19.207  0.00  0.00    +0.000 C 
ATOM      3  C   UNL     1      -5.076  11.616  17.764  0.00  0.00    +0.000 C 
ATOM      4  C   UNL     1      -3.746  10.884  17.596  0.00  0.00    +0.000 C 
ATOM      5  C   UNL     1      -2.498  11.830  17.861  0.00  0.00    +0.000 C 
ATOM      6  C   UNL     1      -2.488  12.371  19.370  0.00  0.00    +0.000 C 
ATOM      7  C   UNL     1      -1.906  11.035  20.025  0.00  0.00    +0.000 C 
ATOM      8  C   UNL     1      -3.957  13.009  19.510  0.00  0.00    +0.000 C 
ATOM      9  C   UNL     1      -4.274  14.080  20.575  0.00  0.00    +0.000 C 
ATOM     10  C   UNL     1      -3.514  15.762  20.463  0.00  0.00    +0.000 C 
ATOM     11  C   UNL     1      -2.004  16.601  20.815  0.00  0.00    +0.000 C 
ATOM     12  C   UNL     1      -1.145  16.350  22.148  0.00  0.00    +0.000 C 
ATOM     13  C   UNL     1      -2.015  15.699  23.208  0.00  0.00    +0.000 C 
ATOM     14  C   UNL     1      -1.285  14.881  24.278  0.00  0.00    +0.000 C 
ATOM     15  C   UNL     1      -3.026  15.127  22.526  0.00  0.00    +0.000 C 
ATOM     16  C   UNL     1      -2.047  13.745  21.758  0.00  0.00    +0.000 C 
ATOM     17  C   UNL     1      -1.571  13.468  20.089  0.00  0.00    +0.000 C 
ATOM     18  C   UNL     1      -4.205  16.242  21.683  0.00  0.00    +0.000 C 
ATOM     19  C   UNL     1      -4.263  17.804  22.088  0.00  0.00    +0.000 C 
ATOM     20  C   UNL     1      -5.750  16.328  21.087  0.00  0.00    +0.000 C 
ENDROOT
BRANCH   3  21
ATOM     21  O   UNL     1      -5.134  12.722  16.875  0.00  0.00    +0.000 OA
ATOM     22  H   UNL     1      -4.352  12.710  16.299  0.00  0.00    +0.000 HD
ENDBRANCH   3  21
BRANCH  12  23
ATOM     23  O   UNL     1      -0.594  17.543  22.698  0.00  0.00    +0.000 OA
ATOM     24  H   UNL     1      -0.020  17.286  23.446  0.00  0.00    +0.000 HD
ENDBRANCH  12  23
BRANCH   9  25
ATOM     25  O   UNL     1      -5.691  13.935  21.135  0.00  0.00    +0.000 OA
BRANCH  25  26
ATOM     26  C   UNL     1      -5.959  13.328  22.351  0.00  0.00    +0.000 C 
ATOM     27  C   UNL     1      -6.420  14.320  23.377  0.00  0.00    +0.000 C 
ATOM     28  O   UNL     1      -5.889  12.135  22.617  0.00  0.00    +0.000 OA
ENDBRANCH  25  26
ENDBRANCH   9  25
BRANCH  16  29
ATOM     29  O   UNL     1      -2.740  12.483  22.204  0.00  0.00    +0.000 OA
BRANCH  29  30
ATOM     30  C   UNL     1      -2.609  11.722  23.261  0.00  0.00    +0.000 C 
ATOM     31  C   UNL     1      -1.310  10.991  23.264  0.00  0.00    +0.000 C 
ATOM     32  O   UNL     1      -3.417  11.737  24.213  0.00  0.00    +0.000 OA
ENDBRANCH  29  30
ENDBRANCH  16  29
BRANCH  17  33
ATOM     33  O   UNL     1      -0.904  14.526  19.334  0.00  0.00    +0.000 OA
BRANCH  33  34
ATOM     34  C   UNL     1       0.426  14.554  19.090  0.00  0.00    +0.000 C 
ATOM     35  C   UNL     1       0.917  13.208  18.624  0.00  0.00    +0.000 C 
ATOM     36  O   UNL     1       1.166  15.505  19.234  0.00  0.00    +0.000 OA
ENDBRANCH  33  34
ENDBRANCH  17  33
TORSDOF 8
ENDMDL
MODEL 9
REMARK VINA RESULT:      -4.4      1.649      5.597
REMARK  Name = 
REMARK  15 active torsions:
REMARK  status: ('A' for Active; 'I' for Inactive)
REMARK    1  A    between atoms: C_3  and  O_4
REMARK    2  A    between atoms: C_7  and  C_8
REMARK    3  A    between atoms: C_10  and  O_11
REMARK    4  A    between atoms: O_11  and  C_12
REMARK    5  A    between atoms: C_12  and  C_13
REMARK    6  A    between atoms: C_17  and  O_18
REMARK    7  A    between atoms: C_19  and  C_20
REMARK    8  A    between atoms: C_22  and  O_23
REMARK    9  A    between atoms: O_23  and  C_24
REMARK   10  A    between atoms: C_24  and  C_25
REMARK   11  A    between atoms: C_27  and  O_28
REMARK   12  A    between atoms: O_28  and  C_29
REMARK   13  A    between atoms: C_29  and  C_30
REMARK   14  A    between atoms: C_32  and  C_33
REMARK   15  A    between atoms: C_32  and  C_34
REMARK                            x       y       z     vdW  Elec       q    Type
REMARK                         _______ _______ _______ _____ _____    ______ ____
ROOT
ATOM      1  C   UNL     1      -0.943  13.280  23.772  0.00  0.00    +0.000 C 
ATOM      2  C   UNL     1      -1.297  12.309  22.912  0.00  0.00    +0.000 C 
ATOM      3  C   UNL     1      -0.485  11.050  22.826  0.00  0.00    +0.000 C 
ATOM      4  C   UNL     1       0.160  11.127  21.444  0.00  0.00    +0.000 C 
ATOM      5  C   UNL     1      -0.914  11.124  20.274  0.00  0.00    +0.000 C 
ATOM      6  C   UNL     1      -1.870  12.408  20.359  0.00  0.00    +0.000 C 
ATOM      7  C   UNL     1      -0.831  13.436  19.713  0.00  0.00    +0.000 C 
ATOM      8  C   UNL     1      -2.408  12.330  21.873  0.00  0.00    +0.000 C 
ATOM      9  C   UNL     1      -3.715  13.028  22.302  0.00  0.00    +0.000 C 
ATOM     10  C   UNL     1      -5.344  12.441  21.655  0.00  0.00    +0.000 C 
ATOM     11  C   UNL     1      -6.362  12.557  20.219  0.00  0.00    +0.000 C 
ATOM     12  C   UNL     1      -6.576  13.919  19.398  0.00  0.00    +0.000 C 
ATOM     13  C   UNL     1      -6.198  15.108  20.262  0.00  0.00    +0.000 C 
ATOM     14  C   UNL     1      -5.785  16.384  19.520  0.00  0.00    +0.000 C 
ATOM     15  C   UNL     1      -5.376  14.607  21.205  0.00  0.00    +0.000 C 
ATOM     16  C   UNL     1      -3.910  14.295  20.105  0.00  0.00    +0.000 C 
ATOM     17  C   UNL     1      -3.196  12.789  19.547  0.00  0.00    +0.000 C 
ATOM     18  C   UNL     1      -6.104  13.454  22.423  0.00  0.00    +0.000 C 
ATOM     19  C   UNL     1      -7.707  13.382  22.603  0.00  0.00    +0.000 C 
ATOM     20  C   UNL     1      -5.895  12.832  23.946  0.00  0.00    +0.000 C 
ENDROOT
BRANCH   3  21
ATOM     21  O   UNL     1      -1.277   9.875  22.925  0.00  0.00    +0.000 OA
ATOM     22  H   UNL     1      -1.100   9.443  23.777  0.00  0.00    +0.000 HD
ENDBRANCH   3  21
BRANCH  12  23
ATOM     23  O   UNL     1      -7.917  14.104  18.951  0.00  0.00    +0.000 OA
ATOM     24  H   UNL     1      -8.130  15.053  19.042  0.00  0.00    +0.000 HD
ENDBRANCH  12  23
BRANCH   9  25
ATOM     25  O   UNL     1      -3.632  13.582  23.727  0.00  0.00    +0.000 OA
BRANCH  25  26
ATOM     26  C   UNL     1      -3.613  14.939  24.005  0.00  0.00    +0.000 C 
ATOM     27  C   UNL     1      -3.034  15.220  25.360  0.00  0.00    +0.000 C 
ATOM     28  O   UNL     1      -3.971  15.852  23.272  0.00  0.00    +0.000 OA
ENDBRANCH  25  26
ENDBRANCH   9  25
BRANCH  16  29
ATOM     29  O   UNL     1      -2.783  15.080  20.728  0.00  0.00    +0.000 OA
BRANCH  29  30
ATOM     30  C   UNL     1      -2.297  16.273  20.497  0.00  0.00    +0.000 C 
ATOM     31  C   UNL     1      -1.135  16.581  21.378  0.00  0.00    +0.000 C 
ATOM     32  O   UNL     1      -2.677  16.989  19.548  0.00  0.00    +0.000 OA
ENDBRANCH  29  30
ENDBRANCH  16  29
BRANCH  17  33
ATOM     33  O   UNL     1      -4.036  11.769  18.925  0.00  0.00    +0.000 OA
BRANCH  33  34
ATOM     34  C   UNL     1      -4.045  11.507  17.598  0.00  0.00    +0.000 C 
ATOM     35  C   UNL     1      -2.892  10.615  17.217  0.00  0.00    +0.000 C 
ATOM     36  O   UNL     1      -4.842  11.928  16.785  0.00  0.00    +0.000 OA
ENDBRANCH  33  34
ENDBRANCH  17  33
TORSDOF 8
ENDMDL
