MODEL 1
REMARK VINA RESULT:      -7.7      0.000      0.000
REMARK  Name = 
REMARK  8 active torsions:
REMARK  status: ('A' for Active; 'I' for Inactive)
REMARK    1  A    between atoms: C_1  and  O_2
REMARK    2  A    between atoms: O_2  and  C_3
REMARK    3  A    between atoms: C_5  and  C_6
REMARK    4  A    between atoms: C_12  and  C_14
REMARK    5  A    between atoms: C_23  and  O_24
REMARK    6  A    between atoms: O_24  and  C_25
REMARK    7  A    between atoms: C_26  and  O_27
REMARK    8  A    between atoms: O_27  and  C_28
REMARK                            x       y       z     vdW  Elec       q    Type
REMARK                         _______ _______ _______ _____ _____    ______ ____
ROOT
ATOM      1  C   UNL     1       4.040   3.705  17.655  0.00  0.00    +0.000 C 
ATOM      2  O   UNL     1       3.978   2.521  17.980  0.00  0.00    +0.000 OA
ATOM      3  N   UNL     1       3.115   4.660  18.092  0.00  0.00    +0.000 N 
ATOM      4  C   UNL     1       2.160   4.301  19.152  0.00  0.00    +0.000 C 
ATOM      5  C   UNL     1       2.209   5.317  20.316  0.00  0.00    +0.000 C 
ATOM      6  N   UNL     1       2.157   6.710  19.831  0.00  0.00    +0.000 N 
ATOM      7  C   UNL     1       1.442   7.652  20.574  0.00  0.00    +0.000 C 
ATOM      8  O   UNL     1       0.914   7.375  21.646  0.00  0.00    +0.000 OA
ATOM      9  C   UNL     1       3.148   7.006  18.782  0.00  0.00    +0.000 C 
ATOM     10  C   UNL     1       2.949   6.037  17.609  0.00  0.00    +0.000 C 
ENDROOT
BRANCH   1  13
ATOM     11  C   UNL     1       6.193   3.992  14.549  0.00  0.00    +0.000 A 
ATOM     12  C   UNL     1       5.255   3.521  15.486  0.00  0.00    +0.000 A 
ATOM     13  C   UNL     1       5.147   4.112  16.743  0.00  0.00    +0.000 A 
ATOM     14  C   UNL     1       6.091   5.059  17.116  0.00  0.00    +0.000 A 
ATOM     15  C   UNL     1       7.015   5.570  16.200  0.00  0.00    +0.000 A 
ATOM     16  C   UNL     1       7.087   5.035  14.898  0.00  0.00    +0.000 A 
BRANCH  11  18
ATOM     17  C   UNL     1       5.100   3.428  12.500  0.00  0.00    +0.000 C 
ATOM     18  O   UNL     1       6.280   3.432  13.301  0.00  0.00    +0.000 OA
ENDBRANCH  11  18
BRANCH  15  19
ATOM     19  O   UNL     1       7.717   6.606  16.762  0.00  0.00    +0.000 OA
ATOM     20  C   UNL     1       7.631   6.846  18.157  0.00  0.00    +0.000 C 
ENDBRANCH  15  19
BRANCH  16  21
ATOM     21  O   UNL     1       8.053   5.578  14.096  0.00  0.00    +0.000 OA
ATOM     22  C   UNL     1       7.965   5.501  12.684  0.00  0.00    +0.000 C 
ENDBRANCH  16  21
ENDBRANCH   1  13
BRANCH   7  23
ATOM     23  C   UNL     1       1.275   9.041  20.060  0.00  0.00    +0.000 A 
ATOM     24  C   UNL     1       1.364   9.346  18.696  0.00  0.00    +0.000 A 
ATOM     25  C   UNL     1       1.262  10.667  18.259  0.00  0.00    +0.000 A 
ATOM     26  C   UNL     1       0.980  11.680  19.172  0.00  0.00    +0.000 A 
ATOM     27  C   UNL     1       0.798  11.375  20.520  0.00  0.00    +0.000 A 
ATOM     28  C   UNL     1       0.952  10.059  20.967  0.00  0.00    +0.000 A 
ENDBRANCH   7  23
TORSDOF 5
ENDMDL
MODEL 2
REMARK VINA RESULT:      -7.6      0.320      2.480
REMARK  Name = 
REMARK  8 active torsions:
REMARK  status: ('A' for Active; 'I' for Inactive)
REMARK    1  A    between atoms: C_1  and  O_2
REMARK    2  A    between atoms: O_2  and  C_3
REMARK    3  A    between atoms: C_5  and  C_6
REMARK    4  A    between atoms: C_12  and  C_14
REMARK    5  A    between atoms: C_23  and  O_24
REMARK    6  A    between atoms: O_24  and  C_25
REMARK    7  A    between atoms: C_26  and  O_27
REMARK    8  A    between atoms: O_27  and  C_28
REMARK                            x       y       z     vdW  Elec       q    Type
REMARK                         _______ _______ _______ _____ _____    ______ ____
ROOT
ATOM      1  C   UNL     1       3.905   3.967  17.554  0.00  0.00    +0.000 C 
ATOM      2  O   UNL     1       3.868   2.776  17.853  0.00  0.00    +0.000 OA
ATOM      3  N   UNL     1       2.985   4.901  18.047  0.00  0.00    +0.000 N 
ATOM      4  C   UNL     1       2.073   4.505  19.132  0.00  0.00    +0.000 C 
ATOM      5  C   UNL     1       2.152   5.494  20.316  0.00  0.00    +0.000 C 
ATOM      6  N   UNL     1       2.066   6.898  19.867  0.00  0.00    +0.000 N 
ATOM      7  C   UNL     1       1.368   7.813  20.657  0.00  0.00    +0.000 C 
ATOM      8  O   UNL     1       0.882   7.505  21.740  0.00  0.00    +0.000 OA
ATOM      9  C   UNL     1       3.015   7.230  18.791  0.00  0.00    +0.000 C 
ATOM     10  C   UNL     1       2.786   6.286  17.603  0.00  0.00    +0.000 C 
ENDROOT
BRANCH   1  13
ATOM     11  C   UNL     1       6.953   5.760  16.191  0.00  0.00    +0.000 A 
ATOM     12  C   UNL     1       5.844   5.428  16.992  0.00  0.00    +0.000 A 
ATOM     13  C   UNL     1       4.973   4.409  16.614  0.00  0.00    +0.000 A 
ATOM     14  C   UNL     1       5.120   3.842  15.355  0.00  0.00    +0.000 A 
ATOM     15  C   UNL     1       6.226   4.127  14.549  0.00  0.00    +0.000 A 
ATOM     16  C   UNL     1       7.159   5.103  14.953  0.00  0.00    +0.000 A 
BRANCH  11  18
ATOM     17  C   UNL     1       7.413   7.615  17.626  0.00  0.00    +0.000 C 
ATOM     18  O   UNL     1       7.828   6.742  16.577  0.00  0.00    +0.000 OA
ENDBRANCH  11  18
BRANCH  15  19
ATOM     19  O   UNL     1       6.227   3.318  13.441  0.00  0.00    +0.000 OA
ATOM     20  C   UNL     1       5.183   3.420  12.489  0.00  0.00    +0.000 C 
ENDBRANCH  15  19
BRANCH  16  21
ATOM     21  O   UNL     1       8.181   5.334  14.072  0.00  0.00    +0.000 OA
ATOM     22  C   UNL     1       7.924   5.723  12.734  0.00  0.00    +0.000 C 
ENDBRANCH  16  21
ENDBRANCH   1  13
BRANCH   7  23
ATOM     23  C   UNL     1       1.167   9.212  20.182  0.00  0.00    +0.000 A 
ATOM     24  C   UNL     1       1.113   9.536  18.821  0.00  0.00    +0.000 A 
ATOM     25  C   UNL     1       0.984  10.864  18.415  0.00  0.00    +0.000 A 
ATOM     26  C   UNL     1       0.816  11.867  19.366  0.00  0.00    +0.000 A 
ATOM     27  C   UNL     1       0.775  11.544  20.723  0.00  0.00    +0.000 A 
ATOM     28  C   UNL     1       0.958  10.220  21.132  0.00  0.00    +0.000 A 
ENDBRANCH   7  23
TORSDOF 5
ENDMDL
MODEL 3
REMARK VINA RESULT:      -7.2      0.955      2.734
REMARK  Name = 
REMARK  8 active torsions:
REMARK  status: ('A' for Active; 'I' for Inactive)
REMARK    1  A    between atoms: C_1  and  O_2
REMARK    2  A    between atoms: O_2  and  C_3
REMARK    3  A    between atoms: C_5  and  C_6
REMARK    4  A    between atoms: C_12  and  C_14
REMARK    5  A    between atoms: C_23  and  O_24
REMARK    6  A    between atoms: O_24  and  C_25
REMARK    7  A    between atoms: C_26  and  O_27
REMARK    8  A    between atoms: O_27  and  C_28
REMARK                            x       y       z     vdW  Elec       q    Type
REMARK                         _______ _______ _______ _____ _____    ______ ____
ROOT
ATOM      1  C   UNL     1       3.707   4.373  18.223  0.00  0.00    +0.000 C 
ATOM      2  O   UNL     1       3.748   3.251  18.723  0.00  0.00    +0.000 OA
ATOM      3  N   UNL     1       2.724   5.315  18.552  0.00  0.00    +0.000 N 
ATOM      4  C   UNL     1       1.834   5.053  19.695  0.00  0.00    +0.000 C 
ATOM      5  C   UNL     1       1.841   6.235  20.690  0.00  0.00    +0.000 C 
ATOM      6  N   UNL     1       1.665   7.531  20.005  0.00  0.00    +0.000 N 
ATOM      7  C   UNL     1       0.903   8.520  20.629  0.00  0.00    +0.000 C 
ATOM      8  O   UNL     1       0.433   8.373  21.753  0.00  0.00    +0.000 OA
ATOM      9  C   UNL     1       2.595   7.735  18.882  0.00  0.00    +0.000 C 
ATOM     10  C   UNL     1       2.436   6.586  17.877  0.00  0.00    +0.000 C 
ENDROOT
BRANCH   1  13
ATOM     11  C   UNL     1       6.695   6.036  16.590  0.00  0.00    +0.000 A 
ATOM     12  C   UNL     1       5.608   5.786  17.449  0.00  0.00    +0.000 A 
ATOM     13  C   UNL     1       4.748   4.715  17.213  0.00  0.00    +0.000 A 
ATOM     14  C   UNL     1       4.880   4.005  16.028  0.00  0.00    +0.000 A 
ATOM     15  C   UNL     1       5.965   4.208  15.170  0.00  0.00    +0.000 A 
ATOM     16  C   UNL     1       6.888   5.239  15.435  0.00  0.00    +0.000 A 
BRANCH  11  18
ATOM     17  C   UNL     1       7.840   7.380  18.200  0.00  0.00    +0.000 C 
ATOM     18  O   UNL     1       7.560   7.071  16.837  0.00  0.00    +0.000 OA
ENDBRANCH  11  18
BRANCH  15  19
ATOM     19  O   UNL     1       5.958   3.272  14.167  0.00  0.00    +0.000 OA
ATOM     20  C   UNL     1       5.202   3.501  12.990  0.00  0.00    +0.000 C 
ENDBRANCH  15  19
BRANCH  16  21
ATOM     21  O   UNL     1       7.888   5.379  14.511  0.00  0.00    +0.000 OA
ATOM     22  C   UNL     1       7.600   5.506  13.129  0.00  0.00    +0.000 C 
ENDBRANCH  16  21
ENDBRANCH   1  13
BRANCH   7  23
ATOM     23  C   UNL     1       0.612   9.800  19.921  0.00  0.00    +0.000 A 
ATOM     24  C   UNL     1       1.342  10.969  20.168  0.00  0.00    +0.000 A 
ATOM     25  C   UNL     1       1.001  12.163  19.530  0.00  0.00    +0.000 A 
ATOM     26  C   UNL     1      -0.012  12.174  18.575  0.00  0.00    +0.000 A 
ATOM     27  C   UNL     1      -0.684  10.995  18.254  0.00  0.00    +0.000 A 
ATOM     28  C   UNL     1      -0.378   9.810  18.930  0.00  0.00    +0.000 A 
ENDBRANCH   7  23
TORSDOF 5
ENDMDL
MODEL 4
REMARK VINA RESULT:      -7.2      3.919     10.096
REMARK  Name = 
REMARK  8 active torsions:
REMARK  status: ('A' for Active; 'I' for Inactive)
REMARK    1  A    between atoms: C_1  and  O_2
REMARK    2  A    between atoms: O_2  and  C_3
REMARK    3  A    between atoms: C_5  and  C_6
REMARK    4  A    between atoms: C_12  and  C_14
REMARK    5  A    between atoms: C_23  and  O_24
REMARK    6  A    between atoms: O_24  and  C_25
REMARK    7  A    between atoms: C_26  and  O_27
REMARK    8  A    between atoms: O_27  and  C_28
REMARK                            x       y       z     vdW  Elec       q    Type
REMARK                         _______ _______ _______ _____ _____    ______ ____
ROOT
ATOM      1  C   UNL     1       0.264  11.802  19.172  0.00  0.00    +0.000 C 
ATOM      2  O   UNL     1       0.681  12.823  18.630  0.00  0.00    +0.000 OA
ATOM      3  N   UNL     1       0.607  10.517  18.736  0.00  0.00    +0.000 N 
ATOM      4  C   UNL     1       1.678  10.361  17.738  0.00  0.00    +0.000 C 
ATOM      5  C   UNL     1       2.756   9.368  18.227  0.00  0.00    +0.000 C 
ATOM      6  N   UNL     1       2.159   8.122  18.749  0.00  0.00    +0.000 N 
ATOM      7  C   UNL     1       2.812   6.913  18.504  0.00  0.00    +0.000 C 
ATOM      8  O   UNL     1       3.895   6.858  17.929  0.00  0.00    +0.000 OA
ATOM      9  C   UNL     1       1.107   8.350  19.753  0.00  0.00    +0.000 C 
ATOM     10  C   UNL     1       0.012   9.239  19.148  0.00  0.00    +0.000 C 
ENDROOT
BRANCH   1  13
ATOM     11  C   UNL     1      -2.775  12.786  21.213  0.00  0.00    +0.000 A 
ATOM     12  C   UNL     1      -1.811  12.738  20.188  0.00  0.00    +0.000 A 
ATOM     13  C   UNL     1      -0.660  11.966  20.331  0.00  0.00    +0.000 A 
ATOM     14  C   UNL     1      -0.400  11.381  21.562  0.00  0.00    +0.000 A 
ATOM     15  C   UNL     1      -1.349  11.384  22.588  0.00  0.00    +0.000 A 
ATOM     16  C   UNL     1      -2.554  12.098  22.432  0.00  0.00    +0.000 A 
BRANCH  11  18
ATOM     17  C   UNL     1      -5.043  12.873  20.465  0.00  0.00    +0.000 C 
ATOM     18  O   UNL     1      -3.922  13.521  21.063  0.00  0.00    +0.000 OA
ENDBRANCH  11  18
BRANCH  15  19
ATOM     19  O   UNL     1      -0.923  10.600  23.631  0.00  0.00    +0.000 OA
ATOM     20  C   UNL     1      -0.013   9.540  23.394  0.00  0.00    +0.000 C 
ENDBRANCH  15  19
BRANCH  16  21
ATOM     21  O   UNL     1      -3.394  12.070  23.511  0.00  0.00    +0.000 OA
ATOM     22  C   UNL     1      -3.616  13.225  24.301  0.00  0.00    +0.000 C 
ENDBRANCH  16  21
ENDBRANCH   1  13
BRANCH   7  23
ATOM     23  C   UNL     1       2.186   5.626  18.920  0.00  0.00    +0.000 A 
ATOM     24  C   UNL     1       1.806   4.649  17.991  0.00  0.00    +0.000 A 
ATOM     25  C   UNL     1       1.167   3.482  18.414  0.00  0.00    +0.000 A 
ATOM     26  C   UNL     1       0.987   3.244  19.774  0.00  0.00    +0.000 A 
ATOM     27  C   UNL     1       1.444   4.168  20.712  0.00  0.00    +0.000 A 
ATOM     28  C   UNL     1       2.037   5.361  20.288  0.00  0.00    +0.000 A 
ENDBRANCH   7  23
TORSDOF 5
ENDMDL
MODEL 5
REMARK VINA RESULT:      -7.2      2.563      8.341
REMARK  Name = 
REMARK  8 active torsions:
REMARK  status: ('A' for Active; 'I' for Inactive)
REMARK    1  A    between atoms: C_1  and  O_2
REMARK    2  A    between atoms: O_2  and  C_3
REMARK    3  A    between atoms: C_5  and  C_6
REMARK    4  A    between atoms: C_12  and  C_14
REMARK    5  A    between atoms: C_23  and  O_24
REMARK    6  A    between atoms: O_24  and  C_25
REMARK    7  A    between atoms: C_26  and  O_27
REMARK    8  A    between atoms: O_27  and  C_28
REMARK                            x       y       z     vdW  Elec       q    Type
REMARK                         _______ _______ _______ _____ _____    ______ ____
ROOT
ATOM      1  C   UNL     1       0.331   8.313  21.013  0.00  0.00    +0.000 C 
ATOM      2  O   UNL     1      -0.517   7.998  21.844  0.00  0.00    +0.000 OA
ATOM      3  N   UNL     1       1.375   7.460  20.633  0.00  0.00    +0.000 N 
ATOM      4  C   UNL     1       1.346   6.054  21.065  0.00  0.00    +0.000 C 
ATOM      5  C   UNL     1       1.499   5.096  19.863  0.00  0.00    +0.000 C 
ATOM      6  N   UNL     1       2.620   5.490  18.987  0.00  0.00    +0.000 N 
ATOM      7  C   UNL     1       3.394   4.488  18.399  0.00  0.00    +0.000 C 
ATOM      8  O   UNL     1       3.133   3.296  18.532  0.00  0.00    +0.000 OA
ATOM      9  C   UNL     1       2.581   6.904  18.579  0.00  0.00    +0.000 C 
ATOM     10  C   UNL     1       2.559   7.792  19.830  0.00  0.00    +0.000 C 
ENDROOT
BRANCH   1  13
ATOM     11  C   UNL     1      -0.830  11.178  18.820  0.00  0.00    +0.000 A 
ATOM     12  C   UNL     1      -0.600   9.880  19.312  0.00  0.00    +0.000 A 
ATOM     13  C   UNL     1       0.232   9.673  20.410  0.00  0.00    +0.000 A 
ATOM     14  C   UNL     1       0.961  10.747  20.904  0.00  0.00    +0.000 A 
ATOM     15  C   UNL     1       0.733  12.052  20.458  0.00  0.00    +0.000 A 
ATOM     16  C   UNL     1      -0.164  12.287  19.397  0.00  0.00    +0.000 A 
BRANCH  11  18
ATOM     17  C   UNL     1      -2.050  10.247  16.988  0.00  0.00    +0.000 C 
ATOM     18  O   UNL     1      -1.672  11.386  17.758  0.00  0.00    +0.000 OA
ENDBRANCH  11  18
BRANCH  15  19
ATOM     19  O   UNL     1       1.450  12.944  21.215  0.00  0.00    +0.000 OA
ATOM     20  C   UNL     1       2.650  13.501  20.707  0.00  0.00    +0.000 C 
ENDBRANCH  15  19
BRANCH  16  21
ATOM     21  O   UNL     1      -0.282  13.595  19.011  0.00  0.00    +0.000 OA
ATOM     22  C   UNL     1      -1.039  14.520  19.771  0.00  0.00    +0.000 C 
ENDBRANCH  16  21
ENDBRANCH   1  13
BRANCH   7  23
ATOM     23  C   UNL     1       4.600   4.845  17.598  0.00  0.00    +0.000 A 
ATOM     24  C   UNL     1       5.718   5.464  18.171  0.00  0.00    +0.000 A 
ATOM     25  C   UNL     1       6.803   5.838  17.378  0.00  0.00    +0.000 A 
ATOM     26  C   UNL     1       6.817   5.514  16.024  0.00  0.00    +0.000 A 
ATOM     27  C   UNL     1       5.749   4.815  15.461  0.00  0.00    +0.000 A 
ATOM     28  C   UNL     1       4.638   4.487  16.244  0.00  0.00    +0.000 A 
ENDBRANCH   7  23
TORSDOF 5
ENDMDL
MODEL 6
REMARK VINA RESULT:      -7.1      3.890      9.878
REMARK  Name = 
REMARK  8 active torsions:
REMARK  status: ('A' for Active; 'I' for Inactive)
REMARK    1  A    between atoms: C_1  and  O_2
REMARK    2  A    between atoms: O_2  and  C_3
REMARK    3  A    between atoms: C_5  and  C_6
REMARK    4  A    between atoms: C_12  and  C_14
REMARK    5  A    between atoms: C_23  and  O_24
REMARK    6  A    between atoms: O_24  and  C_25
REMARK    7  A    between atoms: C_26  and  O_27
REMARK    8  A    between atoms: O_27  and  C_28
REMARK                            x       y       z     vdW  Elec       q    Type
REMARK                         _______ _______ _______ _____ _____    ______ ____
ROOT
ATOM      1  C   UNL     1       0.858  11.454  18.956  0.00  0.00    +0.000 C 
ATOM      2  O   UNL     1       1.252  12.334  18.195  0.00  0.00    +0.000 OA
ATOM      3  N   UNL     1       1.048  10.090  18.702  0.00  0.00    +0.000 N 
ATOM      4  C   UNL     1       1.940   9.683  17.605  0.00  0.00    +0.000 C 
ATOM      5  C   UNL     1       3.015   8.689  18.100  0.00  0.00    +0.000 C 
ATOM      6  N   UNL     1       2.427   7.601  18.906  0.00  0.00    +0.000 N 
ATOM      7  C   UNL     1       2.957   6.315  18.782  0.00  0.00    +0.000 C 
ATOM      8  O   UNL     1       3.933   6.074  18.078  0.00  0.00    +0.000 OA
ATOM      9  C   UNL     1       1.558   8.077  19.994  0.00  0.00    +0.000 C 
ATOM     10  C   UNL     1       0.443   8.953  19.406  0.00  0.00    +0.000 C 
ENDROOT
BRANCH   1  13
ATOM     11  C   UNL     1      -1.498  13.342  21.246  0.00  0.00    +0.000 A 
ATOM     12  C   UNL     1      -0.688  13.005  20.147  0.00  0.00    +0.000 A 
ATOM     13  C   UNL     1       0.135  11.882  20.187  0.00  0.00    +0.000 A 
ATOM     14  C   UNL     1       0.268  11.199  21.389  0.00  0.00    +0.000 A 
ATOM     15  C   UNL     1      -0.544  11.488  22.489  0.00  0.00    +0.000 A 
ATOM     16  C   UNL     1      -1.438  12.577  22.437  0.00  0.00    +0.000 A 
BRANCH  11  18
ATOM     17  C   UNL     1      -1.738  15.717  21.355  0.00  0.00    +0.000 C 
ATOM     18  O   UNL     1      -2.331  14.430  21.197  0.00  0.00    +0.000 OA
ENDBRANCH  11  18
BRANCH  15  19
ATOM     19  O   UNL     1      -0.338  10.569  23.486  0.00  0.00    +0.000 OA
ATOM     20  C   UNL     1       0.168   9.283  23.170  0.00  0.00    +0.000 C 
ENDBRANCH  15  19
BRANCH  16  21
ATOM     21  O   UNL     1      -2.155  12.798  23.582  0.00  0.00    +0.000 OA
ATOM     22  C   UNL     1      -3.480  12.318  23.724  0.00  0.00    +0.000 C 
ENDBRANCH  16  21
ENDBRANCH   1  13
BRANCH   7  23
ATOM     23  C   UNL     1       2.320   5.171  19.495  0.00  0.00    +0.000 A 
ATOM     24  C   UNL     1       2.496   4.960  20.869  0.00  0.00    +0.000 A 
ATOM     25  C   UNL     1       1.934   3.844  21.490  0.00  0.00    +0.000 A 
ATOM     26  C   UNL     1       1.117   2.983  20.762  0.00  0.00    +0.000 A 
ATOM     27  C   UNL     1       0.860   3.235  19.415  0.00  0.00    +0.000 A 
ATOM     28  C   UNL     1       1.465   4.323  18.779  0.00  0.00    +0.000 A 
ENDBRANCH   7  23
TORSDOF 5
ENDMDL
MODEL 7
REMARK VINA RESULT:      -7.0      2.652      8.223
REMARK  Name = 
REMARK  8 active torsions:
REMARK  status: ('A' for Active; 'I' for Inactive)
REMARK    1  A    between atoms: C_1  and  O_2
REMARK    2  A    between atoms: O_2  and  C_3
REMARK    3  A    between atoms: C_5  and  C_6
REMARK    4  A    between atoms: C_12  and  C_14
REMARK    5  A    between atoms: C_23  and  O_24
REMARK    6  A    between atoms: O_24  and  C_25
REMARK    7  A    between atoms: C_26  and  O_27
REMARK    8  A    between atoms: O_27  and  C_28
REMARK                            x       y       z     vdW  Elec       q    Type
REMARK                         _______ _______ _______ _____ _____    ______ ____
ROOT
ATOM      1  C   UNL     1       0.432   8.486  20.752  0.00  0.00    +0.000 C 
ATOM      2  O   UNL     1      -0.368   8.299  21.665  0.00  0.00    +0.000 OA
ATOM      3  N   UNL     1       1.459   7.584  20.447  0.00  0.00    +0.000 N 
ATOM      4  C   UNL     1       1.461   6.257  21.083  0.00  0.00    +0.000 C 
ATOM      5  C   UNL     1       1.555   5.132  20.028  0.00  0.00    +0.000 C 
ATOM      6  N   UNL     1       2.626   5.389  19.045  0.00  0.00    +0.000 N 
ATOM      7  C   UNL     1       3.373   4.310  18.571  0.00  0.00    +0.000 C 
ATOM      8  O   UNL     1       3.126   3.151  18.892  0.00  0.00    +0.000 OA
ATOM      9  C   UNL     1       2.557   6.728  18.436  0.00  0.00    +0.000 C 
ATOM     10  C   UNL     1       2.597   7.791  19.542  0.00  0.00    +0.000 C 
ENDROOT
BRANCH   1  13
ATOM     11  C   UNL     1      -1.111  11.247  18.665  0.00  0.00    +0.000 A 
ATOM     12  C   UNL     1      -0.897  10.004  19.290  0.00  0.00    +0.000 A 
ATOM     13  C   UNL     1       0.294   9.742  19.962  0.00  0.00    +0.000 A 
ATOM     14  C   UNL     1       1.330  10.661  19.861  0.00  0.00    +0.000 A 
ATOM     15  C   UNL     1       1.141  11.916  19.275  0.00  0.00    +0.000 A 
ATOM     16  C   UNL     1      -0.087  12.226  18.656  0.00  0.00    +0.000 A 
BRANCH  11  18
ATOM     17  C   UNL     1      -2.446  11.038  16.694  0.00  0.00    +0.000 C 
ATOM     18  O   UNL     1      -2.295  11.517  18.028  0.00  0.00    +0.000 OA
ENDBRANCH  11  18
BRANCH  15  19
ATOM     19  O   UNL     1       2.255  12.696  19.453  0.00  0.00    +0.000 OA
ATOM     20  C   UNL     1       2.432  13.413  20.662  0.00  0.00    +0.000 C 
ENDBRANCH  15  19
BRANCH  16  21
ATOM     21  O   UNL     1      -0.153  13.464  18.077  0.00  0.00    +0.000 OA
ATOM     22  C   UNL     1      -0.471  14.615  18.838  0.00  0.00    +0.000 C 
ENDBRANCH  16  21
ENDBRANCH   1  13
BRANCH   7  23
ATOM     23  C   UNL     1       4.532   4.542  17.663  0.00  0.00    +0.000 A 
ATOM     24  C   UNL     1       4.404   4.507  16.268  0.00  0.00    +0.000 A 
ATOM     25  C   UNL     1       5.523   4.670  15.451  0.00  0.00    +0.000 A 
ATOM     26  C   UNL     1       6.761   4.959  16.020  0.00  0.00    +0.000 A 
ATOM     27  C   UNL     1       6.882   5.087  17.403  0.00  0.00    +0.000 A 
ATOM     28  C   UNL     1       5.772   4.872  18.225  0.00  0.00    +0.000 A 
ENDBRANCH   7  23
TORSDOF 5
ENDMDL
MODEL 8
REMARK VINA RESULT:      -7.0      2.568      8.569
REMARK  Name = 
REMARK  8 active torsions:
REMARK  status: ('A' for Active; 'I' for Inactive)
REMARK    1  A    between atoms: C_1  and  O_2
REMARK    2  A    between atoms: O_2  and  C_3
REMARK    3  A    between atoms: C_5  and  C_6
REMARK    4  A    between atoms: C_12  and  C_14
REMARK    5  A    between atoms: C_23  and  O_24
REMARK    6  A    between atoms: O_24  and  C_25
REMARK    7  A    between atoms: C_26  and  O_27
REMARK    8  A    between atoms: O_27  and  C_28
REMARK                            x       y       z     vdW  Elec       q    Type
REMARK                         _______ _______ _______ _____ _____    ______ ____
ROOT
ATOM      1  C   UNL     1       0.248   8.316  21.097  0.00  0.00    +0.000 C 
ATOM      2  O   UNL     1      -0.601   7.957  21.910  0.00  0.00    +0.000 OA
ATOM      3  N   UNL     1       1.319   7.501  20.709  0.00  0.00    +0.000 N 
ATOM      4  C   UNL     1       1.322   6.084  21.105  0.00  0.00    +0.000 C 
ATOM      5  C   UNL     1       1.515   5.162  19.880  0.00  0.00    +0.000 C 
ATOM      6  N   UNL     1       2.636   5.608  19.029  0.00  0.00    +0.000 N 
ATOM      7  C   UNL     1       3.443   4.642  18.425  0.00  0.00    +0.000 C 
ATOM      8  O   UNL     1       3.213   3.441  18.525  0.00  0.00    +0.000 OA
ATOM      9  C   UNL     1       2.563   7.030  18.657  0.00  0.00    +0.000 C 
ATOM     10  C   UNL     1       2.503   7.885  19.930  0.00  0.00    +0.000 C 
ENDROOT
BRANCH   1  13
ATOM     11  C   UNL     1       0.775  12.031  20.566  0.00  0.00    +0.000 A 
ATOM     12  C   UNL     1       0.751  10.756  21.161  0.00  0.00    +0.000 A 
ATOM     13  C   UNL     1       0.120   9.688  20.528  0.00  0.00    +0.000 A 
ATOM     14  C   UNL     1      -0.628   9.939  19.386  0.00  0.00    +0.000 A 
ATOM     15  C   UNL     1      -0.600  11.185  18.753  0.00  0.00    +0.000 A 
ATOM     16  C   UNL     1       0.098  12.259  19.342  0.00  0.00    +0.000 A 
BRANCH  11  18
ATOM     17  C   UNL     1       2.706  13.435  20.668  0.00  0.00    +0.000 C 
ATOM     18  O   UNL     1       1.421  13.077  21.173  0.00  0.00    +0.000 OA
ENDBRANCH  11  18
BRANCH  15  19
ATOM     19  O   UNL     1      -1.278  11.128  17.562  0.00  0.00    +0.000 OA
ATOM     20  C   UNL     1      -2.314  10.178  17.381  0.00  0.00    +0.000 C 
ENDBRANCH  15  19
BRANCH  16  21
ATOM     21  O   UNL     1       0.026  13.444  18.663  0.00  0.00    +0.000 OA
ATOM     22  C   UNL     1      -0.602  14.580  19.230  0.00  0.00    +0.000 C 
ENDBRANCH  16  21
ENDBRANCH   1  13
BRANCH   7  23
ATOM     23  C   UNL     1       4.648   5.052  17.649  0.00  0.00    +0.000 A 
ATOM     24  C   UNL     1       5.781   5.598  18.266  0.00  0.00    +0.000 A 
ATOM     25  C   UNL     1       6.866   6.026  17.500  0.00  0.00    +0.000 A 
ATOM     26  C   UNL     1       6.864   5.826  16.121  0.00  0.00    +0.000 A 
ATOM     27  C   UNL     1       5.780   5.199  15.508  0.00  0.00    +0.000 A 
ATOM     28  C   UNL     1       4.670   4.818  16.268  0.00  0.00    +0.000 A 
ENDBRANCH   7  23
TORSDOF 5
ENDMDL
MODEL 9
REMARK VINA RESULT:      -6.9      2.561      8.473
REMARK  Name = 
REMARK  8 active torsions:
REMARK  status: ('A' for Active; 'I' for Inactive)
REMARK    1  A    between atoms: C_1  and  O_2
REMARK    2  A    between atoms: O_2  and  C_3
REMARK    3  A    between atoms: C_5  and  C_6
REMARK    4  A    between atoms: C_12  and  C_14
REMARK    5  A    between atoms: C_23  and  O_24
REMARK    6  A    between atoms: O_24  and  C_25
REMARK    7  A    between atoms: C_26  and  O_27
REMARK    8  A    between atoms: O_27  and  C_28
REMARK                            x       y       z     vdW  Elec       q    Type
REMARK                         _______ _______ _______ _____ _____    ______ ____
ROOT
ATOM      1  C   UNL     1       0.410   8.402  20.935  0.00  0.00    +0.000 C 
ATOM      2  O   UNL     1      -0.406   8.121  21.810  0.00  0.00    +0.000 OA
ATOM      3  N   UNL     1       1.434   7.530  20.545  0.00  0.00    +0.000 N 
ATOM      4  C   UNL     1       1.416   6.140  21.028  0.00  0.00    +0.000 C 
ATOM      5  C   UNL     1       1.517   5.139  19.856  0.00  0.00    +0.000 C 
ATOM      6  N   UNL     1       2.605   5.495  18.923  0.00  0.00    +0.000 N 
ATOM      7  C   UNL     1       3.351   4.468  18.342  0.00  0.00    +0.000 C 
ATOM      8  O   UNL     1       3.090   3.284  18.527  0.00  0.00    +0.000 OA
ATOM      9  C   UNL     1       2.556   6.894  18.467  0.00  0.00    +0.000 C 
ATOM     10  C   UNL     1       2.587   7.826  19.686  0.00  0.00    +0.000 C 
ENDROOT
BRANCH   1  13
ATOM     11  C   UNL     1       1.197  11.972  19.936  0.00  0.00    +0.000 A 
ATOM     12  C   UNL     1       1.186  10.751  20.637  0.00  0.00    +0.000 A 
ATOM     13  C   UNL     1       0.294   9.740  20.289  0.00  0.00    +0.000 A 
ATOM     14  C   UNL     1      -0.694  10.017  19.353  0.00  0.00    +0.000 A 
ATOM     15  C   UNL     1      -0.692  11.206  18.619  0.00  0.00    +0.000 A 
ATOM     16  C   UNL     1       0.253  12.211  18.907  0.00  0.00    +0.000 A 
BRANCH  11  18
ATOM     17  C   UNL     1       1.731  13.859  21.301  0.00  0.00    +0.000 C 
ATOM     18  O   UNL     1       2.094  12.957  20.258  0.00  0.00    +0.000 OA
ENDBRANCH  11  18
BRANCH  15  19
ATOM     19  O   UNL     1      -1.660  11.165  17.647  0.00  0.00    +0.000 OA
ATOM     20  C   UNL     1      -1.974   9.939  17.011  0.00  0.00    +0.000 C 
ENDBRANCH  15  19
BRANCH  16  21
ATOM     21  O   UNL     1       0.141  13.350  18.157  0.00  0.00    +0.000 OA
ATOM     22  C   UNL     1      -0.502  14.505  18.667  0.00  0.00    +0.000 C 
ENDBRANCH  16  21
ENDBRANCH   1  13
BRANCH   7  23
ATOM     23  C   UNL     1       4.526   4.790  17.482  0.00  0.00    +0.000 A 
ATOM     24  C   UNL     1       4.590   4.409  16.136  0.00  0.00    +0.000 A 
ATOM     25  C   UNL     1       5.731   4.675  15.379  0.00  0.00    +0.000 A 
ATOM     26  C   UNL     1       6.779   5.404  15.936  0.00  0.00    +0.000 A 
ATOM     27  C   UNL     1       6.687   5.869  17.248  0.00  0.00    +0.000 A 
ATOM     28  C   UNL     1       5.566   5.557  18.023  0.00  0.00    +0.000 A 
ENDBRANCH   7  23
TORSDOF 5
ENDMDL
