MODEL 1
REMARK VINA RESULT:      -5.9      0.000      0.000
REMARK  Name = 
REMARK  14 active torsions:
REMARK  status: ('A' for Active; 'I' for Inactive)
REMARK    1  A    between atoms: C_1  and  O_2
REMARK    2  A    between atoms: O_2  and  C_3
REMARK    3  A    between atoms: C_3  and  C_4
REMARK    4  A    between atoms: C_4  and  N_5
REMARK    5  A    between atoms: C_6  and  S_7
REMARK    6  A    between atoms: S_7  and  C_8
REMARK    7  A    between atoms: C_8  and  C_9
REMARK    8  A    between atoms: N_11  and  C_12
REMARK    9  A    between atoms: C_14  and  C_15
REMARK   10  A    between atoms: C_16  and  C_17
REMARK   11  A    between atoms: C_18  and  C_19
REMARK   12  A    between atoms: C_23  and  C_24
REMARK   13  A    between atoms: C_24  and  C_25
REMARK   14  A    between atoms: C_24  and  C_26
REMARK                            x       y       z     vdW  Elec       q    Type
REMARK                         _______ _______ _______ _____ _____    ______ ____
ROOT
ATOM      1  C   UNL     1       1.385   8.874  17.537  0.00  0.00    +0.000 C 
ENDROOT
BRANCH   1   2
ATOM      2  C   UNL     1       0.953  10.007  18.485  0.00  0.00    +0.000 C 
ATOM      3  O   UNL     1       1.701  10.957  18.710  0.00  0.00    +0.000 OA
ATOM      4  N   UNL     1      -0.314   9.881  19.039  0.00  0.00    +0.000 N 
ATOM      5  H   UNL     1      -0.628   8.927  19.182  0.00  0.00    +0.000 HD
BRANCH   4   6
ATOM      6  C   UNL     1      -0.798  10.825  19.927  0.00  0.00    +0.000 A 
ATOM      7  S   UNL     1      -1.746  12.028  19.194  0.00  0.00    +0.000 S 
ATOM      8  C   UNL     1      -2.115  12.754  20.703  0.00  0.00    +0.000 A 
ATOM      9  C   UNL     1      -3.071  13.903  20.764  0.00  0.00    +0.000 C 
ATOM     10  C   UNL     1      -1.403  12.172  21.744  0.00  0.00    +0.000 A 
ATOM     11  C   UNL     1      -1.403  12.664  23.162  0.00  0.00    +0.000 C 
ATOM     12  C   UNL     1      -0.644  11.028  21.280  0.00  0.00    +0.000 A 
BRANCH  12  13
ATOM     13  C   UNL     1       0.253  10.269  22.109  0.00  0.00    +0.000 C 
ATOM     14  N   UNL     1       0.925   9.585  22.759  0.00  0.00    +0.000 NA
ENDBRANCH  12  13
ENDBRANCH   4   6
ENDBRANCH   1   2
BRANCH   1  15
ATOM     15  S   UNL     1       2.998   8.161  17.992  0.00  0.00    +0.000 S 
BRANCH  15  17
ATOM     16  N   UNL     1       2.825   5.527  18.762  0.00  0.00    +0.000 N 
ATOM     17  C   UNL     1       2.587   6.849  19.059  0.00  0.00    +0.000 A 
ATOM     18  N   UNL     1       1.971   6.945  20.210  0.00  0.00    +0.000 NA
ATOM     19  N   UNL     1       1.762   5.663  20.680  0.00  0.00    +0.000 NA
ATOM     20  C   UNL     1       2.264   4.805  19.807  0.00  0.00    +0.000 A 
BRANCH  20  21
ATOM     21  C   UNL     1       2.219   3.299  19.945  0.00  0.00    +0.000 C 
ATOM     22  C   UNL     1       3.592   2.741  20.327  0.00  0.00    +0.000 C 
ATOM     23  C   UNL     1       1.182   2.858  20.986  0.00  0.00    +0.000 C 
ENDBRANCH  20  21
BRANCH  16  24
ATOM     24  C   UNL     1       3.447   5.002  17.563  0.00  0.00    +0.000 C 
BRANCH  24  25
ATOM     25  C   UNL     1       4.953   4.758  17.683  0.00  0.00    +0.000 C 
BRANCH  25  27
ATOM     26  C   UNL     1       5.244   6.059  15.744  0.00  0.00    +0.000 C 
ATOM     27  O   UNL     1       5.681   5.825  17.080  0.00  0.00    +0.000 OA
ENDBRANCH  25  27
ENDBRANCH  24  25
ENDBRANCH  16  24
ENDBRANCH  15  17
ENDBRANCH   1  15
TORSDOF 9
ENDMDL
MODEL 2
REMARK VINA RESULT:      -5.8      1.865      3.224
REMARK  Name = 
REMARK  14 active torsions:
REMARK  status: ('A' for Active; 'I' for Inactive)
REMARK    1  A    between atoms: C_1  and  O_2
REMARK    2  A    between atoms: O_2  and  C_3
REMARK    3  A    between atoms: C_3  and  C_4
REMARK    4  A    between atoms: C_4  and  N_5
REMARK    5  A    between atoms: C_6  and  S_7
REMARK    6  A    between atoms: S_7  and  C_8
REMARK    7  A    between atoms: C_8  and  C_9
REMARK    8  A    between atoms: N_11  and  C_12
REMARK    9  A    between atoms: C_14  and  C_15
REMARK   10  A    between atoms: C_16  and  C_17
REMARK   11  A    between atoms: C_18  and  C_19
REMARK   12  A    between atoms: C_23  and  C_24
REMARK   13  A    between atoms: C_24  and  C_25
REMARK   14  A    between atoms: C_24  and  C_26
REMARK                            x       y       z     vdW  Elec       q    Type
REMARK                         _______ _______ _______ _____ _____    ______ ____
ROOT
ATOM      1  C   UNL     1       1.763   9.201  18.052  0.00  0.00    +0.000 C 
ENDROOT
BRANCH   1   2
ATOM      2  C   UNL     1       0.557   9.902  18.702  0.00  0.00    +0.000 C 
ATOM      3  O   UNL     1      -0.552   9.863  18.172  0.00  0.00    +0.000 OA
ATOM      4  N   UNL     1       0.811  10.551  19.902  0.00  0.00    +0.000 N 
ATOM      5  H   UNL     1       1.750  10.921  20.001  0.00  0.00    +0.000 HD
BRANCH   4   6
ATOM      6  C   UNL     1      -0.191  11.239  20.564  0.00  0.00    +0.000 A 
ATOM      7  S   UNL     1      -0.864  12.505  19.654  0.00  0.00    +0.000 S 
ATOM      8  C   UNL     1      -2.026  12.851  20.867  0.00  0.00    +0.000 A 
ATOM      9  C   UNL     1      -3.076  13.888  20.619  0.00  0.00    +0.000 C 
ATOM     10  C   UNL     1      -1.809  12.106  22.017  0.00  0.00    +0.000 A 
ATOM     11  C   UNL     1      -2.568  12.270  23.302  0.00  0.00    +0.000 C 
ATOM     12  C   UNL     1      -0.738  11.148  21.824  0.00  0.00    +0.000 A 
BRANCH  12  13
ATOM     13  C   UNL     1      -0.229  10.290  22.860  0.00  0.00    +0.000 C 
ATOM     14  N   UNL     1       0.182   9.532  23.633  0.00  0.00    +0.000 NA
ENDBRANCH  12  13
ENDBRANCH   4   6
ENDBRANCH   1   2
BRANCH   1  15
ATOM     15  S   UNL     1       2.213   7.655  18.904  0.00  0.00    +0.000 S 
BRANCH  15  17
ATOM     16  N   UNL     1       3.920   5.681  18.038  0.00  0.00    +0.000 N 
ATOM     17  C   UNL     1       3.447   6.965  17.890  0.00  0.00    +0.000 A 
ATOM     18  N   UNL     1       4.097   7.573  16.930  0.00  0.00    +0.000 NA
ATOM     19  N   UNL     1       5.047   6.694  16.447  0.00  0.00    +0.000 NA
ATOM     20  C   UNL     1       4.952   5.558  17.117  0.00  0.00    +0.000 A 
BRANCH  20  21
ATOM     21  C   UNL     1       5.832   4.345  16.901  0.00  0.00    +0.000 C 
ATOM     22  C   UNL     1       5.868   3.949  15.424  0.00  0.00    +0.000 C 
ATOM     23  C   UNL     1       7.262   4.590  17.399  0.00  0.00    +0.000 C 
ENDBRANCH  20  21
BRANCH  16  24
ATOM     24  C   UNL     1       3.490   4.702  19.016  0.00  0.00    +0.000 C 
BRANCH  24  25
ATOM     25  C   UNL     1       2.294   3.852  18.580  0.00  0.00    +0.000 C 
BRANCH  25  27
ATOM     26  C   UNL     1       1.755   4.359  20.815  0.00  0.00    +0.000 C 
ATOM     27  O   UNL     1       1.256   3.915  19.556  0.00  0.00    +0.000 OA
ENDBRANCH  25  27
ENDBRANCH  24  25
ENDBRANCH  16  24
ENDBRANCH  15  17
ENDBRANCH   1  15
TORSDOF 9
ENDMDL
MODEL 3
REMARK VINA RESULT:      -5.8      6.652      7.653
REMARK  Name = 
REMARK  14 active torsions:
REMARK  status: ('A' for Active; 'I' for Inactive)
REMARK    1  A    between atoms: C_1  and  O_2
REMARK    2  A    between atoms: O_2  and  C_3
REMARK    3  A    between atoms: C_3  and  C_4
REMARK    4  A    between atoms: C_4  and  N_5
REMARK    5  A    between atoms: C_6  and  S_7
REMARK    6  A    between atoms: S_7  and  C_8
REMARK    7  A    between atoms: C_8  and  C_9
REMARK    8  A    between atoms: N_11  and  C_12
REMARK    9  A    between atoms: C_14  and  C_15
REMARK   10  A    between atoms: C_16  and  C_17
REMARK   11  A    between atoms: C_18  and  C_19
REMARK   12  A    between atoms: C_23  and  C_24
REMARK   13  A    between atoms: C_24  and  C_25
REMARK   14  A    between atoms: C_24  and  C_26
REMARK                            x       y       z     vdW  Elec       q    Type
REMARK                         _______ _______ _______ _____ _____    ______ ____
ROOT
ATOM      1  C   UNL     1       8.218   7.440  18.525  0.00  0.00    +0.000 C 
ENDROOT
BRANCH   1   2
ATOM      2  C   UNL     1       8.410   8.965  18.468  0.00  0.00    +0.000 C 
ATOM      3  O   UNL     1       7.764   9.650  17.676  0.00  0.00    +0.000 OA
ATOM      4  N   UNL     1       9.332   9.492  19.362  0.00  0.00    +0.000 N 
ATOM      5  H   UNL     1      10.099   8.874  19.602  0.00  0.00    +0.000 HD
BRANCH   4   6
ATOM      6  C   UNL     1       9.607  10.848  19.382  0.00  0.00    +0.000 A 
ATOM      7  S   UNL     1      10.502  11.382  18.043  0.00  0.00    +0.000 S 
ATOM      8  C   UNL     1      10.415  13.018  18.549  0.00  0.00    +0.000 A 
ATOM      9  C   UNL     1      10.973  14.099  17.678  0.00  0.00    +0.000 C 
ATOM     10  C   UNL     1       9.835  13.139  19.805  0.00  0.00    +0.000 A 
ATOM     11  C   UNL     1       9.732  14.420  20.581  0.00  0.00    +0.000 C 
ATOM     12  C   UNL     1       9.348  11.860  20.280  0.00  0.00    +0.000 A 
BRANCH  12  13
ATOM     13  C   UNL     1       8.770  11.652  21.580  0.00  0.00    +0.000 C 
ATOM     14  N   UNL     1       8.318  11.573  22.644  0.00  0.00    +0.000 NA
ENDBRANCH  12  13
ENDBRANCH   4   6
ENDBRANCH   1   2
BRANCH   1  15
ATOM     15  S   UNL     1       7.263   6.803  17.110  0.00  0.00    +0.000 S 
BRANCH  15  17
ATOM     16  N   UNL     1       5.695   4.550  17.260  0.00  0.00    +0.000 N 
ATOM     17  C   UNL     1       6.105   5.729  17.839  0.00  0.00    +0.000 A 
ATOM     18  N   UNL     1       5.458   5.925  18.960  0.00  0.00    +0.000 NA
ATOM     19  N   UNL     1       4.574   4.876  19.120  0.00  0.00    +0.000 NA
ATOM     20  C   UNL     1       4.704   4.051  18.095  0.00  0.00    +0.000 A 
BRANCH  20  21
ATOM     21  C   UNL     1       3.898   2.787  17.889  0.00  0.00    +0.000 C 
ATOM     22  C   UNL     1       3.768   1.999  19.194  0.00  0.00    +0.000 C 
ATOM     23  C   UNL     1       2.501   3.093  17.336  0.00  0.00    +0.000 C 
ENDBRANCH  20  21
BRANCH  16  24
ATOM     24  C   UNL     1       6.142   3.999  15.996  0.00  0.00    +0.000 C 
BRANCH  24  25
ATOM     25  C   UNL     1       5.350   4.480  14.778  0.00  0.00    +0.000 C 
BRANCH  25  27
ATOM     26  C   UNL     1       7.000   4.442  13.100  0.00  0.00    +0.000 C 
ATOM     27  O   UNL     1       5.812   3.831  13.596  0.00  0.00    +0.000 OA
ENDBRANCH  25  27
ENDBRANCH  24  25
ENDBRANCH  16  24
ENDBRANCH  15  17
ENDBRANCH   1  15
TORSDOF 9
ENDMDL
MODEL 4
REMARK VINA RESULT:      -5.8      2.177      3.557
REMARK  Name = 
REMARK  14 active torsions:
REMARK  status: ('A' for Active; 'I' for Inactive)
REMARK    1  A    between atoms: C_1  and  O_2
REMARK    2  A    between atoms: O_2  and  C_3
REMARK    3  A    between atoms: C_3  and  C_4
REMARK    4  A    between atoms: C_4  and  N_5
REMARK    5  A    between atoms: C_6  and  S_7
REMARK    6  A    between atoms: S_7  and  C_8
REMARK    7  A    between atoms: C_8  and  C_9
REMARK    8  A    between atoms: N_11  and  C_12
REMARK    9  A    between atoms: C_14  and  C_15
REMARK   10  A    between atoms: C_16  and  C_17
REMARK   11  A    between atoms: C_18  and  C_19
REMARK   12  A    between atoms: C_23  and  C_24
REMARK   13  A    between atoms: C_24  and  C_25
REMARK   14  A    between atoms: C_24  and  C_26
REMARK                            x       y       z     vdW  Elec       q    Type
REMARK                         _______ _______ _______ _____ _____    ______ ____
ROOT
ATOM      1  C   UNL     1       1.935   8.916  17.941  0.00  0.00    +0.000 C 
ENDROOT
BRANCH   1   2
ATOM      2  C   UNL     1       0.982   9.676  18.880  0.00  0.00    +0.000 C 
ATOM      3  O   UNL     1       0.706   9.228  19.992  0.00  0.00    +0.000 OA
ATOM      4  N   UNL     1       0.484  10.877  18.392  0.00  0.00    +0.000 N 
ATOM      5  H   UNL     1       0.375  10.920  17.385  0.00  0.00    +0.000 HD
BRANCH   4   6
ATOM      6  C   UNL     1      -0.403  11.633  19.138  0.00  0.00    +0.000 A 
ATOM      7  S   UNL     1      -2.014  11.503  18.618  0.00  0.00    +0.000 S 
ATOM      8  C   UNL     1      -2.581  12.484  19.905  0.00  0.00    +0.000 A 
ATOM      9  C   UNL     1      -4.051  12.697  20.089  0.00  0.00    +0.000 C 
ATOM     10  C   UNL     1      -1.536  13.026  20.640  0.00  0.00    +0.000 A 
ATOM     11  C   UNL     1      -1.695  14.029  21.746  0.00  0.00    +0.000 C 
ATOM     12  C   UNL     1      -0.259  12.507  20.192  0.00  0.00    +0.000 A 
BRANCH  12  13
ATOM     13  C   UNL     1       1.011  12.941  20.708  0.00  0.00    +0.000 C 
ATOM     14  N   UNL     1       2.021  13.235  21.194  0.00  0.00    +0.000 NA
ENDBRANCH  12  13
ENDBRANCH   4   6
ENDBRANCH   1   2
BRANCH   1  15
ATOM     15  S   UNL     1       2.481   7.325  18.640  0.00  0.00    +0.000 S 
BRANCH  15  17
ATOM     16  N   UNL     1       4.044   5.457  17.364  0.00  0.00    +0.000 N 
ATOM     17  C   UNL     1       3.704   6.780  17.528  0.00  0.00    +0.000 A 
ATOM     18  N   UNL     1       4.466   7.533  16.777  0.00  0.00    +0.000 NA
ATOM     19  N   UNL     1       5.356   6.705  16.121  0.00  0.00    +0.000 NA
ATOM     20  C   UNL     1       5.114   5.455  16.479  0.00  0.00    +0.000 A 
BRANCH  20  21
ATOM     21  C   UNL     1       5.887   4.247  15.995  0.00  0.00    +0.000 C 
ATOM     22  C   UNL     1       5.826   4.131  14.470  0.00  0.00    +0.000 C 
ATOM     23  C   UNL     1       7.351   4.298  16.445  0.00  0.00    +0.000 C 
ENDBRANCH  20  21
BRANCH  16  24
ATOM     24  C   UNL     1       3.464   4.317  18.047  0.00  0.00    +0.000 C 
BRANCH  24  25
ATOM     25  C   UNL     1       4.148   3.951  19.367  0.00  0.00    +0.000 C 
BRANCH  25  27
ATOM     26  C   UNL     1       2.332   4.164  20.850  0.00  0.00    +0.000 C 
ATOM     27  O   UNL     1       3.241   3.262  20.223  0.00  0.00    +0.000 OA
ENDBRANCH  25  27
ENDBRANCH  24  25
ENDBRANCH  16  24
ENDBRANCH  15  17
ENDBRANCH   1  15
TORSDOF 9
ENDMDL
MODEL 5
REMARK VINA RESULT:      -5.8      1.851      3.115
REMARK  Name = 
REMARK  14 active torsions:
REMARK  status: ('A' for Active; 'I' for Inactive)
REMARK    1  A    between atoms: C_1  and  O_2
REMARK    2  A    between atoms: O_2  and  C_3
REMARK    3  A    between atoms: C_3  and  C_4
REMARK    4  A    between atoms: C_4  and  N_5
REMARK    5  A    between atoms: C_6  and  S_7
REMARK    6  A    between atoms: S_7  and  C_8
REMARK    7  A    between atoms: C_8  and  C_9
REMARK    8  A    between atoms: N_11  and  C_12
REMARK    9  A    between atoms: C_14  and  C_15
REMARK   10  A    between atoms: C_16  and  C_17
REMARK   11  A    between atoms: C_18  and  C_19
REMARK   12  A    between atoms: C_23  and  C_24
REMARK   13  A    between atoms: C_24  and  C_25
REMARK   14  A    between atoms: C_24  and  C_26
REMARK                            x       y       z     vdW  Elec       q    Type
REMARK                         _______ _______ _______ _____ _____    ______ ____
ROOT
ATOM      1  C   UNL     1       1.847   9.274  18.310  0.00  0.00    +0.000 C 
ENDROOT
BRANCH   1   2
ATOM      2  C   UNL     1       0.597   9.885  18.967  0.00  0.00    +0.000 C 
ATOM      3  O   UNL     1      -0.530   9.571  18.586  0.00  0.00    +0.000 OA
ATOM      4  N   UNL     1       0.835  10.781  20.001  0.00  0.00    +0.000 N 
ATOM      5  H   UNL     1       1.698  11.307  19.924  0.00  0.00    +0.000 HD
BRANCH   4   6
ATOM      6  C   UNL     1      -0.212  11.413  20.647  0.00  0.00    +0.000 A 
ATOM      7  S   UNL     1      -0.881  12.701  19.766  0.00  0.00    +0.000 S 
ATOM      8  C   UNL     1      -2.101  12.963  20.941  0.00  0.00    +0.000 A 
ATOM      9  C   UNL     1      -3.168  13.983  20.694  0.00  0.00    +0.000 C 
ATOM     10  C   UNL     1      -1.912  12.173  22.067  0.00  0.00    +0.000 A 
ATOM     11  C   UNL     1      -2.730  12.261  23.323  0.00  0.00    +0.000 C 
ATOM     12  C   UNL     1      -0.809  11.252  21.878  0.00  0.00    +0.000 A 
BRANCH  12  13
ATOM     13  C   UNL     1      -0.322  10.362  22.897  0.00  0.00    +0.000 C 
ATOM     14  N   UNL     1       0.111   9.597  23.651  0.00  0.00    +0.000 NA
ENDBRANCH  12  13
ENDBRANCH   4   6
ENDBRANCH   1   2
BRANCH   1  15
ATOM     15  S   UNL     1       2.194   7.588  18.905  0.00  0.00    +0.000 S 
BRANCH  15  17
ATOM     16  N   UNL     1       3.702   5.668  17.638  0.00  0.00    +0.000 N 
ATOM     17  C   UNL     1       3.413   7.003  17.809  0.00  0.00    +0.000 A 
ATOM     18  N   UNL     1       4.218   7.731  17.078  0.00  0.00    +0.000 NA
ATOM     19  N   UNL     1       5.085   6.873  16.430  0.00  0.00    +0.000 NA
ATOM     20  C   UNL     1       4.786   5.631  16.772  0.00  0.00    +0.000 A 
BRANCH  20  21
ATOM     21  C   UNL     1       5.518   4.397  16.290  0.00  0.00    +0.000 C 
ATOM     22  C   UNL     1       5.517   4.320  14.762  0.00  0.00    +0.000 C 
ATOM     23  C   UNL     1       6.963   4.362  16.802  0.00  0.00    +0.000 C 
ENDBRANCH  20  21
BRANCH  16  24
ATOM     24  C   UNL     1       3.064   4.548  18.300  0.00  0.00    +0.000 C 
BRANCH  24  25
ATOM     25  C   UNL     1       3.829   4.006  19.511  0.00  0.00    +0.000 C 
BRANCH  25  27
ATOM     26  C   UNL     1       3.457   2.018  18.305  0.00  0.00    +0.000 C 
ATOM     27  O   UNL     1       4.285   2.679  19.259  0.00  0.00    +0.000 OA
ENDBRANCH  25  27
ENDBRANCH  24  25
ENDBRANCH  16  24
ENDBRANCH  15  17
ENDBRANCH   1  15
TORSDOF 9
ENDMDL
MODEL 6
REMARK VINA RESULT:      -5.8      1.198      1.345
REMARK  Name = 
REMARK  14 active torsions:
REMARK  status: ('A' for Active; 'I' for Inactive)
REMARK    1  A    between atoms: C_1  and  O_2
REMARK    2  A    between atoms: O_2  and  C_3
REMARK    3  A    between atoms: C_3  and  C_4
REMARK    4  A    between atoms: C_4  and  N_5
REMARK    5  A    between atoms: C_6  and  S_7
REMARK    6  A    between atoms: S_7  and  C_8
REMARK    7  A    between atoms: C_8  and  C_9
REMARK    8  A    between atoms: N_11  and  C_12
REMARK    9  A    between atoms: C_14  and  C_15
REMARK   10  A    between atoms: C_16  and  C_17
REMARK   11  A    between atoms: C_18  and  C_19
REMARK   12  A    between atoms: C_23  and  C_24
REMARK   13  A    between atoms: C_24  and  C_25
REMARK   14  A    between atoms: C_24  and  C_26
REMARK                            x       y       z     vdW  Elec       q    Type
REMARK                         _______ _______ _______ _____ _____    ______ ____
ROOT
ATOM      1  C   UNL     1       0.996   8.914  17.931  0.00  0.00    +0.000 C 
ENDROOT
BRANCH   1   2
ATOM      2  C   UNL     1       0.690  10.144  18.803  0.00  0.00    +0.000 C 
ATOM      3  O   UNL     1       1.517  11.046  18.928  0.00  0.00    +0.000 OA
ATOM      4  N   UNL     1      -0.559  10.160  19.409  0.00  0.00    +0.000 N 
ATOM      5  H   UNL     1      -0.938   9.247  19.636  0.00  0.00    +0.000 HD
BRANCH   4   6
ATOM      6  C   UNL     1      -0.933  11.203  20.238  0.00  0.00    +0.000 A 
ATOM      7  S   UNL     1      -1.538  12.553  19.406  0.00  0.00    +0.000 S 
ATOM      8  C   UNL     1      -1.909  13.373  20.865  0.00  0.00    +0.000 A 
ATOM      9  C   UNL     1      -2.616  14.691  20.821  0.00  0.00    +0.000 C 
ATOM     10  C   UNL     1      -1.441  12.686  21.977  0.00  0.00    +0.000 A 
ATOM     11  C   UNL     1      -1.489  13.201  23.386  0.00  0.00    +0.000 C 
ATOM     12  C   UNL     1      -0.883  11.403  21.600  0.00  0.00    +0.000 A 
BRANCH  12  13
ATOM     13  C   UNL     1      -0.248  10.500  22.522  0.00  0.00    +0.000 C 
ATOM     14  N   UNL     1       0.343   9.813  23.243  0.00  0.00    +0.000 NA
ENDBRANCH  12  13
ENDBRANCH   4   6
ENDBRANCH   1   2
BRANCH   1  15
ATOM     15  S   UNL     1       2.773   8.519  17.879  0.00  0.00    +0.000 S 
BRANCH  15  17
ATOM     16  N   UNL     1       3.646   5.913  17.950  0.00  0.00    +0.000 N 
ATOM     17  C   UNL     1       2.858   6.897  18.502  0.00  0.00    +0.000 A 
ATOM     18  N   UNL     1       2.166   6.408  19.499  0.00  0.00    +0.000 NA
ATOM     19  N   UNL     1       2.470   5.064  19.599  0.00  0.00    +0.000 NA
ATOM     20  C   UNL     1       3.352   4.758  18.663  0.00  0.00    +0.000 A 
BRANCH  20  21
ATOM     21  C   UNL     1       3.926   3.378  18.427  0.00  0.00    +0.000 C 
ATOM     22  C   UNL     1       4.369   2.734  19.742  0.00  0.00    +0.000 C 
ATOM     23  C   UNL     1       2.917   2.461  17.725  0.00  0.00    +0.000 C 
ENDBRANCH  20  21
BRANCH  16  24
ATOM     24  C   UNL     1       4.526   6.041  16.806  0.00  0.00    +0.000 C 
BRANCH  24  25
ATOM     25  C   UNL     1       5.961   6.449  17.149  0.00  0.00    +0.000 C 
BRANCH  25  27
ATOM     26  C   UNL     1       7.068   4.637  16.134  0.00  0.00    +0.000 C 
ATOM     27  O   UNL     1       6.855   6.046  16.115  0.00  0.00    +0.000 OA
ENDBRANCH  25  27
ENDBRANCH  24  25
ENDBRANCH  16  24
ENDBRANCH  15  17
ENDBRANCH   1  15
TORSDOF 9
ENDMDL
MODEL 7
REMARK VINA RESULT:      -5.7      6.693      8.125
REMARK  Name = 
REMARK  14 active torsions:
REMARK  status: ('A' for Active; 'I' for Inactive)
REMARK    1  A    between atoms: C_1  and  O_2
REMARK    2  A    between atoms: O_2  and  C_3
REMARK    3  A    between atoms: C_3  and  C_4
REMARK    4  A    between atoms: C_4  and  N_5
REMARK    5  A    between atoms: C_6  and  S_7
REMARK    6  A    between atoms: S_7  and  C_8
REMARK    7  A    between atoms: C_8  and  C_9
REMARK    8  A    between atoms: N_11  and  C_12
REMARK    9  A    between atoms: C_14  and  C_15
REMARK   10  A    between atoms: C_16  and  C_17
REMARK   11  A    between atoms: C_18  and  C_19
REMARK   12  A    between atoms: C_23  and  C_24
REMARK   13  A    between atoms: C_24  and  C_25
REMARK   14  A    between atoms: C_24  and  C_26
REMARK                            x       y       z     vdW  Elec       q    Type
REMARK                         _______ _______ _______ _____ _____    ______ ____
ROOT
ATOM      1  C   UNL     1       8.843   8.433  18.836  0.00  0.00    +0.000 C 
ENDROOT
BRANCH   1   2
ATOM      2  C   UNL     1       9.000   9.949  19.041  0.00  0.00    +0.000 C 
ATOM      3  O   UNL     1       8.578  10.744  18.202  0.00  0.00    +0.000 OA
ATOM      4  N   UNL     1       9.624  10.338  20.219  0.00  0.00    +0.000 N 
ATOM      5  H   UNL     1      10.313   9.686  20.576  0.00  0.00    +0.000 HD
BRANCH   4   6
ATOM      6  C   UNL     1       9.844  11.676  20.499  0.00  0.00    +0.000 A 
ATOM      7  S   UNL     1       8.868  12.280  21.749  0.00  0.00    +0.000 S 
ATOM      8  C   UNL     1       9.639  13.811  21.703  0.00  0.00    +0.000 A 
ATOM      9  C   UNL     1       9.277  14.859  22.709  0.00  0.00    +0.000 C 
ATOM     10  C   UNL     1      10.532  13.908  20.645  0.00  0.00    +0.000 A 
ATOM     11  C   UNL     1      11.265  15.158  20.254  0.00  0.00    +0.000 C 
ATOM     12  C   UNL     1      10.658  12.642  19.952  0.00  0.00    +0.000 A 
BRANCH  12  13
ATOM     13  C   UNL     1      11.449  12.450  18.766  0.00  0.00    +0.000 C 
ATOM     14  N   UNL     1      12.040  12.217  17.797  0.00  0.00    +0.000 NA
ENDBRANCH  12  13
ENDBRANCH   4   6
ENDBRANCH   1   2
BRANCH   1  15
ATOM     15  S   UNL     1       7.623   8.026  17.546  0.00  0.00    +0.000 S 
BRANCH  15  17
ATOM     16  N   UNL     1       5.719   6.043  17.593  0.00  0.00    +0.000 N 
ATOM     17  C   UNL     1       6.873   6.568  18.128  0.00  0.00    +0.000 A 
ATOM     18  N   UNL     1       7.263   5.843  19.145  0.00  0.00    +0.000 NA
ATOM     19  N   UNL     1       6.338   4.833  19.319  0.00  0.00    +0.000 NA
ATOM     20  C   UNL     1       5.400   4.954  18.394  0.00  0.00    +0.000 A 
BRANCH  20  21
ATOM     21  C   UNL     1       4.194   4.050  18.255  0.00  0.00    +0.000 C 
ATOM     22  C   UNL     1       4.329   2.814  19.147  0.00  0.00    +0.000 C 
ATOM     23  C   UNL     1       2.895   4.788  18.597  0.00  0.00    +0.000 C 
ENDBRANCH  20  21
BRANCH  16  24
ATOM     24  C   UNL     1       4.952   6.575  16.484  0.00  0.00    +0.000 C 
BRANCH  24  25
ATOM     25  C   UNL     1       5.195   5.871  15.147  0.00  0.00    +0.000 C 
BRANCH  25  27
ATOM     26  C   UNL     1       6.763   4.351  14.267  0.00  0.00    +0.000 C 
ATOM     27  O   UNL     1       6.578   5.567  14.988  0.00  0.00    +0.000 OA
ENDBRANCH  25  27
ENDBRANCH  24  25
ENDBRANCH  16  24
ENDBRANCH  15  17
ENDBRANCH   1  15
TORSDOF 9
ENDMDL
MODEL 8
REMARK VINA RESULT:      -5.7      2.406      3.742
REMARK  Name = 
REMARK  14 active torsions:
REMARK  status: ('A' for Active; 'I' for Inactive)
REMARK    1  A    between atoms: C_1  and  O_2
REMARK    2  A    between atoms: O_2  and  C_3
REMARK    3  A    between atoms: C_3  and  C_4
REMARK    4  A    between atoms: C_4  and  N_5
REMARK    5  A    between atoms: C_6  and  S_7
REMARK    6  A    between atoms: S_7  and  C_8
REMARK    7  A    between atoms: C_8  and  C_9
REMARK    8  A    between atoms: N_11  and  C_12
REMARK    9  A    between atoms: C_14  and  C_15
REMARK   10  A    between atoms: C_16  and  C_17
REMARK   11  A    between atoms: C_18  and  C_19
REMARK   12  A    between atoms: C_23  and  C_24
REMARK   13  A    between atoms: C_24  and  C_25
REMARK   14  A    between atoms: C_24  and  C_26
REMARK                            x       y       z     vdW  Elec       q    Type
REMARK                         _______ _______ _______ _____ _____    ______ ____
ROOT
ATOM      1  C   UNL     1       2.262   7.410  19.989  0.00  0.00    +0.000 C 
ENDROOT
BRANCH   1   2
ATOM      2  C   UNL     1       1.155   8.461  20.179  0.00  0.00    +0.000 C 
ATOM      3  O   UNL     1       0.444   8.450  21.182  0.00  0.00    +0.000 OA
ATOM      4  N   UNL     1       1.035   9.402  19.165  0.00  0.00    +0.000 N 
ATOM      5  H   UNL     1       1.296   9.075  18.241  0.00  0.00    +0.000 HD
BRANCH   4   6
ATOM      6  C   UNL     1       0.056  10.379  19.215  0.00  0.00    +0.000 A 
ATOM      7  S   UNL     1      -1.267  10.072  18.197  0.00  0.00    +0.000 S 
ATOM      8  C   UNL     1      -2.110  11.455  18.760  0.00  0.00    +0.000 A 
ATOM      9  C   UNL     1      -3.504  11.722  18.287  0.00  0.00    +0.000 C 
ATOM     10  C   UNL     1      -1.327  12.226  19.608  0.00  0.00    +0.000 A 
ATOM     11  C   UNL     1      -1.726  13.563  20.163  0.00  0.00    +0.000 C 
ATOM     12  C   UNL     1      -0.061  11.577  19.883  0.00  0.00    +0.000 A 
BRANCH  12  13
ATOM     13  C   UNL     1       0.992  12.168  20.665  0.00  0.00    +0.000 C 
ATOM     14  N   UNL     1       1.892  12.641  21.220  0.00  0.00    +0.000 NA
ENDBRANCH  12  13
ENDBRANCH   4   6
ENDBRANCH   1   2
BRANCH   1  15
ATOM     15  S   UNL     1       1.973   6.347  18.538  0.00  0.00    +0.000 S 
BRANCH  15  17
ATOM     16  N   UNL     1       4.141   5.080  17.418  0.00  0.00    +0.000 N 
ATOM     17  C   UNL     1       3.530   6.263  17.767  0.00  0.00    +0.000 A 
ATOM     18  N   UNL     1       4.315   7.271  17.483  0.00  0.00    +0.000 NA
ATOM     19  N   UNL     1       5.487   6.755  16.965  0.00  0.00    +0.000 NA
ATOM     20  C   UNL     1       5.392   5.437  16.933  0.00  0.00    +0.000 A 
BRANCH  20  21
ATOM     21  C   UNL     1       6.477   4.499  16.450  0.00  0.00    +0.000 C 
ATOM     22  C   UNL     1       6.918   4.855  15.028  0.00  0.00    +0.000 C 
ATOM     23  C   UNL     1       7.694   4.517  17.382  0.00  0.00    +0.000 C 
ENDBRANCH  20  21
BRANCH  16  24
ATOM     24  C   UNL     1       3.618   3.741  17.607  0.00  0.00    +0.000 C 
BRANCH  24  25
ATOM     25  C   UNL     1       4.007   3.088  18.936  0.00  0.00    +0.000 C 
BRANCH  25  27
ATOM     26  C   UNL     1       1.833   2.187  19.000  0.00  0.00    +0.000 C 
ATOM     27  O   UNL     1       3.223   1.920  19.164  0.00  0.00    +0.000 OA
ENDBRANCH  25  27
ENDBRANCH  24  25
ENDBRANCH  16  24
ENDBRANCH  15  17
ENDBRANCH   1  15
TORSDOF 9
ENDMDL
MODEL 9
REMARK VINA RESULT:      -5.6      2.470      4.040
REMARK  Name = 
REMARK  14 active torsions:
REMARK  status: ('A' for Active; 'I' for Inactive)
REMARK    1  A    between atoms: C_1  and  O_2
REMARK    2  A    between atoms: O_2  and  C_3
REMARK    3  A    between atoms: C_3  and  C_4
REMARK    4  A    between atoms: C_4  and  N_5
REMARK    5  A    between atoms: C_6  and  S_7
REMARK    6  A    between atoms: S_7  and  C_8
REMARK    7  A    between atoms: C_8  and  C_9
REMARK    8  A    between atoms: N_11  and  C_12
REMARK    9  A    between atoms: C_14  and  C_15
REMARK   10  A    between atoms: C_16  and  C_17
REMARK   11  A    between atoms: C_18  and  C_19
REMARK   12  A    between atoms: C_23  and  C_24
REMARK   13  A    between atoms: C_24  and  C_25
REMARK   14  A    between atoms: C_24  and  C_26
REMARK                            x       y       z     vdW  Elec       q    Type
REMARK                         _______ _______ _______ _____ _____    ______ ____
ROOT
ATOM      1  C   UNL     1       2.233   8.975  18.289  0.00  0.00    +0.000 C 
ENDROOT
BRANCH   1   2
ATOM      2  C   UNL     1       0.905   9.537  18.826  0.00  0.00    +0.000 C 
ATOM      3  O   UNL     1       0.481   9.198  19.930  0.00  0.00    +0.000 OA
ATOM      4  N   UNL     1       0.251  10.438  17.997  0.00  0.00    +0.000 N 
ATOM      5  H   UNL     1       0.396  10.293  17.004  0.00  0.00    +0.000 HD
BRANCH   4   6
ATOM      6  C   UNL     1      -0.966  10.987  18.364  0.00  0.00    +0.000 A 
ATOM      7  S   UNL     1      -0.910  11.857  19.820  0.00  0.00    +0.000 S 
ATOM      8  C   UNL     1      -2.546  12.347  19.670  0.00  0.00    +0.000 A 
ATOM      9  C   UNL     1      -3.135  13.294  20.668  0.00  0.00    +0.000 C 
ATOM     10  C   UNL     1      -3.173  11.731  18.595  0.00  0.00    +0.000 A 
ATOM     11  C   UNL     1      -4.635  11.847  18.275  0.00  0.00    +0.000 C 
ATOM     12  C   UNL     1      -2.231  10.946  17.823  0.00  0.00    +0.000 A 
BRANCH  12  13
ATOM     13  C   UNL     1      -2.598  10.130  16.697  0.00  0.00    +0.000 C 
ATOM     14  N   UNL     1      -2.923   9.548  15.750  0.00  0.00    +0.000 NA
ENDBRANCH  12  13
ENDBRANCH   4   6
ENDBRANCH   1   2
BRANCH   1  15
ATOM     15  S   UNL     1       2.156   7.183  17.974  0.00  0.00    +0.000 S 
BRANCH  15  17
ATOM     16  N   UNL     1       4.523   5.855  18.411  0.00  0.00    +0.000 N 
ATOM     17  C   UNL     1       3.808   6.747  17.646  0.00  0.00    +0.000 A 
ATOM     18  N   UNL     1       4.570   7.235  16.700  0.00  0.00    +0.000 NA
ATOM     19  N   UNL     1       5.828   6.687  16.853  0.00  0.00    +0.000 NA
ATOM     20  C   UNL     1       5.809   5.864  17.887  0.00  0.00    +0.000 A 
BRANCH  20  21
ATOM     21  C   UNL     1       6.999   5.079  18.396  0.00  0.00    +0.000 C 
ATOM     22  C   UNL     1       7.741   4.398  17.244  0.00  0.00    +0.000 C 
ATOM     23  C   UNL     1       7.974   5.973  19.172  0.00  0.00    +0.000 C 
ENDBRANCH  20  21
BRANCH  16  24
ATOM     24  C   UNL     1       4.052   5.132  19.575  0.00  0.00    +0.000 C 
BRANCH  24  25
ATOM     25  C   UNL     1       3.672   3.673  19.308  0.00  0.00    +0.000 C 
BRANCH  25  27
ATOM     26  C   UNL     1       2.516   2.242  17.840  0.00  0.00    +0.000 C 
ATOM     27  O   UNL     1       2.724   3.592  18.247  0.00  0.00    +0.000 OA
ENDBRANCH  25  27
ENDBRANCH  24  25
ENDBRANCH  16  24
ENDBRANCH  15  17
ENDBRANCH   1  15
TORSDOF 9
ENDMDL
