MODEL 1
REMARK VINA RESULT:      -8.3      0.000      0.000
REMARK  Name = 
REMARK  15 active torsions:
REMARK  status: ('A' for Active; 'I' for Inactive)
REMARK    1  A    between atoms: C_1  and  C_2
REMARK    2  A    between atoms: C_2  and  O_4
REMARK    3  A    between atoms: O_4  and  C_5
REMARK    4  A    between atoms: C_5  and  C_6
REMARK    5  A    between atoms: C_5  and  C_7
REMARK    6  A    between atoms: C_8  and  C_9
REMARK    7  A    between atoms: N_11  and  C_12
REMARK    8  A    between atoms: C_14  and  C_15
REMARK    9  A    between atoms: C_16  and  C_17
REMARK   10  A    between atoms: C_17  and  C_18
REMARK   11  A    between atoms: C_19  and  C_20
REMARK   12  A    between atoms: C_19  and  C_21
REMARK   13  A    between atoms: C_22  and  C_23
REMARK   14  A    between atoms: C_30  and  O_31
REMARK   15  A    between atoms: C_33  and  C_34
REMARK                            x       y       z     vdW  Elec       q    Type
REMARK                         _______ _______ _______ _____ _____    ______ ____
ROOT
ATOM      1  C   UNL     1       5.180   5.324  17.211  0.00  0.00    +0.000 C 
ATOM      2  C   UNL     1       6.562   4.645  17.338  0.00  0.00    +0.000 C 
ATOM      3  C   UNL     1       7.625   5.520  18.040  0.00  0.00    +0.000 C 
ATOM      4  C   UNL     1       7.410   5.426  19.546  0.00  0.00    +0.000 C 
ATOM      5  C   UNL     1       7.631   6.986  17.536  0.00  0.00    +0.000 C 
ATOM      6  O   UNL     1       6.286   7.485  17.376  0.00  0.00    +0.000 OA
ATOM      7  C   UNL     1       5.472   6.675  16.519  0.00  0.00    +0.000 C 
ATOM      8  C   UNL     1       4.209   7.460  16.197  0.00  0.00    +0.000 C 
ENDROOT
BRANCH   1  11
ATOM      9  C   UNL     1       3.075   5.455  18.647  0.00  0.00    +0.000 C 
ATOM     10  O   UNL     1       2.291   5.265  17.713  0.00  0.00    +0.000 OA
ATOM     11  N   UNL     1       4.445   5.516  18.487  0.00  0.00    +0.000 N 
ATOM     12  H   UNL     1       4.998   5.855  19.266  0.00  0.00    +0.000 HD
BRANCH   9  14
ATOM     13  C   UNL     1       1.994   4.815  20.888  0.00  0.00    +0.000 C 
ATOM     14  C   UNL     1       2.590   5.697  20.048  0.00  0.00    +0.000 C 
BRANCH  13  15
ATOM     15  C   UNL     1       1.728   3.336  20.667  0.00  0.00    +0.000 C 
ATOM     16  C   UNL     1       1.360   2.575  21.952  0.00  0.00    +0.000 C 
BRANCH  15  17
ATOM     17  O   UNL     1       2.930   2.723  20.132  0.00  0.00    +0.000 OA
BRANCH  17  19
ATOM     18  C   UNL     1       1.301   2.070  18.528  0.00  0.00    +0.000 C 
ATOM     19  C   UNL     1       2.715   1.987  19.005  0.00  0.00    +0.000 C 
ATOM     20  O   UNL     1       3.568   1.324  18.420  0.00  0.00    +0.000 OA
ENDBRANCH  17  19
ENDBRANCH  15  17
ENDBRANCH  13  15
ENDBRANCH   9  14
ENDBRANCH   1  11
BRANCH   5  21
ATOM     21  C   UNL     1       8.325   7.993  18.484  0.00  0.00    +0.000 C 
BRANCH  21  22
ATOM     22  C   UNL     1       8.478   9.411  17.998  0.00  0.00    +0.000 C 
ATOM     23  C   UNL     1       9.019  10.435  18.700  0.00  0.00    +0.000 C 
ATOM     24  C   UNL     1       9.656  10.295  20.061  0.00  0.00    +0.000 C 
BRANCH  23  25
ATOM     25  C   UNL     1       8.882  11.791  18.169  0.00  0.00    +0.000 C 
ATOM     26  C   UNL     1       9.897  12.643  17.953  0.00  0.00    +0.000 C 
BRANCH  26  27
ATOM     27  C   UNL     1       9.738  14.085  17.578  0.00  0.00    +0.000 C 
ATOM     28  O   UNL     1       8.438  14.457  18.068  0.00  0.00    +0.000 OA
ATOM     29  C   UNL     1       8.103  15.799  17.712  0.00  0.00    +0.000 C 
ATOM     30  C   UNL     1       9.059  16.778  18.382  0.00  0.00    +0.000 C 
ATOM     31  C   UNL     1      10.482  16.421  18.060  0.00  0.00    +0.000 C 
ATOM     32  C   UNL     1      11.555  17.477  18.159  0.00  0.00    +0.000 C 
ATOM     33  O   UNL     1      11.012  17.064  16.891  0.00  0.00    +0.000 OA
ATOM     34  C   UNL     1      10.840  14.963  18.222  0.00  0.00    +0.000 C 
BRANCH  34  35
ATOM     35  O   UNL     1      12.119  14.689  17.641  0.00  0.00    +0.000 OA
ATOM     36  H   UNL     1      12.743  14.597  18.384  0.00  0.00    +0.000 HD
ENDBRANCH  34  35
ENDBRANCH  26  27
ENDBRANCH  23  25
ENDBRANCH  21  22
ENDBRANCH   5  21
TORSDOF 10
ENDMDL
MODEL 2
REMARK VINA RESULT:      -7.4      5.808      9.211
REMARK  Name = 
REMARK  15 active torsions:
REMARK  status: ('A' for Active; 'I' for Inactive)
REMARK    1  A    between atoms: C_1  and  C_2
REMARK    2  A    between atoms: C_2  and  O_4
REMARK    3  A    between atoms: O_4  and  C_5
REMARK    4  A    between atoms: C_5  and  C_6
REMARK    5  A    between atoms: C_5  and  C_7
REMARK    6  A    between atoms: C_8  and  C_9
REMARK    7  A    between atoms: N_11  and  C_12
REMARK    8  A    between atoms: C_14  and  C_15
REMARK    9  A    between atoms: C_16  and  C_17
REMARK   10  A    between atoms: C_17  and  C_18
REMARK   11  A    between atoms: C_19  and  C_20
REMARK   12  A    between atoms: C_19  and  C_21
REMARK   13  A    between atoms: C_22  and  C_23
REMARK   14  A    between atoms: C_30  and  O_31
REMARK   15  A    between atoms: C_33  and  C_34
REMARK                            x       y       z     vdW  Elec       q    Type
REMARK                         _______ _______ _______ _____ _____    ______ ____
ROOT
ATOM      1  C   UNL     1       2.354   3.924  19.034  0.00  0.00    +0.000 C 
ATOM      2  C   UNL     1       1.632   4.940  18.121  0.00  0.00    +0.000 C 
ATOM      3  C   UNL     1       1.682   6.394  18.643  0.00  0.00    +0.000 C 
ATOM      4  C   UNL     1       3.037   6.990  18.280  0.00  0.00    +0.000 C 
ATOM      5  C   UNL     1       1.375   6.503  20.158  0.00  0.00    +0.000 C 
ATOM      6  O   UNL     1       2.037   5.455  20.899  0.00  0.00    +0.000 OA
ATOM      7  C   UNL     1       1.724   4.138  20.429  0.00  0.00    +0.000 C 
ATOM      8  C   UNL     1       2.226   3.142  21.464  0.00  0.00    +0.000 C 
ENDROOT
BRANCH   1  11
ATOM      9  C   UNL     1       4.704   3.716  18.065  0.00  0.00    +0.000 C 
ATOM     10  O   UNL     1       4.339   3.231  16.990  0.00  0.00    +0.000 OA
ATOM     11  N   UNL     1       3.833   4.049  19.082  0.00  0.00    +0.000 N 
ATOM     12  H   UNL     1       4.226   4.267  19.991  0.00  0.00    +0.000 HD
BRANCH   9  14
ATOM     13  C   UNL     1       7.063   4.661  17.681  0.00  0.00    +0.000 C 
ATOM     14  C   UNL     1       6.157   3.932  18.380  0.00  0.00    +0.000 C 
BRANCH  13  15
ATOM     15  C   UNL     1       6.835   5.509  16.442  0.00  0.00    +0.000 C 
ATOM     16  C   UNL     1       7.155   4.779  15.126  0.00  0.00    +0.000 C 
BRANCH  15  17
ATOM     17  O   UNL     1       7.700   6.673  16.511  0.00  0.00    +0.000 OA
BRANCH  17  19
ATOM     18  C   UNL     1       8.274   8.447  17.985  0.00  0.00    +0.000 C 
ATOM     19  C   UNL     1       7.202   7.681  17.281  0.00  0.00    +0.000 C 
ATOM     20  O   UNL     1       6.011   7.958  17.400  0.00  0.00    +0.000 OA
ENDBRANCH  17  19
ENDBRANCH  15  17
ENDBRANCH  13  15
ENDBRANCH   9  14
ENDBRANCH   1  11
BRANCH   5  21
ATOM     21  C   UNL     1       1.846   7.821  20.819  0.00  0.00    +0.000 C 
BRANCH  21  22
ATOM     22  C   UNL     1       0.784   8.753  21.342  0.00  0.00    +0.000 C 
ATOM     23  C   UNL     1       0.330   9.868  20.720  0.00  0.00    +0.000 C 
ATOM     24  C   UNL     1       0.751  10.304  19.338  0.00  0.00    +0.000 C 
BRANCH  23  25
ATOM     25  C   UNL     1      -0.535  10.778  21.468  0.00  0.00    +0.000 C 
ATOM     26  C   UNL     1      -1.193  11.824  20.944  0.00  0.00    +0.000 C 
BRANCH  26  27
ATOM     27  C   UNL     1      -1.934  12.855  21.741  0.00  0.00    +0.000 C 
ATOM     28  O   UNL     1      -3.133  12.195  22.181  0.00  0.00    +0.000 OA
ATOM     29  C   UNL     1      -3.995  13.083  22.895  0.00  0.00    +0.000 C 
ATOM     30  C   UNL     1      -3.322  13.553  24.180  0.00  0.00    +0.000 C 
ATOM     31  C   UNL     1      -1.978  14.151  23.877  0.00  0.00    +0.000 C 
ATOM     32  C   UNL     1      -1.357  15.119  24.854  0.00  0.00    +0.000 C 
ATOM     33  O   UNL     1      -1.991  15.567  23.642  0.00  0.00    +0.000 OA
ATOM     34  C   UNL     1      -1.100  13.344  22.951  0.00  0.00    +0.000 C 
BRANCH  34  35
ATOM     35  O   UNL     1       0.026  14.116  22.521  0.00  0.00    +0.000 OA
ATOM     36  H   UNL     1       0.635  14.159  23.280  0.00  0.00    +0.000 HD
ENDBRANCH  34  35
ENDBRANCH  26  27
ENDBRANCH  23  25
ENDBRANCH  21  22
ENDBRANCH   5  21
TORSDOF 10
ENDMDL
MODEL 3
REMARK VINA RESULT:      -7.3      6.553     10.071
REMARK  Name = 
REMARK  15 active torsions:
REMARK  status: ('A' for Active; 'I' for Inactive)
REMARK    1  A    between atoms: C_1  and  C_2
REMARK    2  A    between atoms: C_2  and  O_4
REMARK    3  A    between atoms: O_4  and  C_5
REMARK    4  A    between atoms: C_5  and  C_6
REMARK    5  A    between atoms: C_5  and  C_7
REMARK    6  A    between atoms: C_8  and  C_9
REMARK    7  A    between atoms: N_11  and  C_12
REMARK    8  A    between atoms: C_14  and  C_15
REMARK    9  A    between atoms: C_16  and  C_17
REMARK   10  A    between atoms: C_17  and  C_18
REMARK   11  A    between atoms: C_19  and  C_20
REMARK   12  A    between atoms: C_19  and  C_21
REMARK   13  A    between atoms: C_22  and  C_23
REMARK   14  A    between atoms: C_30  and  O_31
REMARK   15  A    between atoms: C_33  and  C_34
REMARK                            x       y       z     vdW  Elec       q    Type
REMARK                         _______ _______ _______ _____ _____    ______ ____
ROOT
ATOM      1  C   UNL     1       2.907   5.150  18.945  0.00  0.00    +0.000 C 
ATOM      2  C   UNL     1       2.279   6.001  17.818  0.00  0.00    +0.000 C 
ATOM      3  C   UNL     1       2.026   7.473  18.215  0.00  0.00    +0.000 C 
ATOM      4  C   UNL     1       3.340   8.237  18.096  0.00  0.00    +0.000 C 
ATOM      5  C   UNL     1       1.384   7.619  19.618  0.00  0.00    +0.000 C 
ATOM      6  O   UNL     1       1.995   6.718  20.566  0.00  0.00    +0.000 OA
ATOM      7  C   UNL     1       1.964   5.346  20.153  0.00  0.00    +0.000 C 
ATOM      8  C   UNL     1       2.350   4.490  21.350  0.00  0.00    +0.000 C 
ENDROOT
BRANCH   1  11
ATOM      9  C   UNL     1       5.394   4.638  19.192  0.00  0.00    +0.000 C 
ATOM     10  O   UNL     1       5.302   3.462  18.829  0.00  0.00    +0.000 OA
ATOM     11  N   UNL     1       4.311   5.488  19.291  0.00  0.00    +0.000 N 
ATOM     12  H   UNL     1       4.444   6.372  19.768  0.00  0.00    +0.000 HD
BRANCH   9  14
ATOM     13  C   UNL     1       7.527   6.042  18.904  0.00  0.00    +0.000 C 
ATOM     14  C   UNL     1       6.706   5.232  19.618  0.00  0.00    +0.000 C 
BRANCH  13  15
ATOM     15  C   UNL     1       7.305   6.621  17.518  0.00  0.00    +0.000 C 
ATOM     16  C   UNL     1       7.706   8.101  17.394  0.00  0.00    +0.000 C 
BRANCH  15  17
ATOM     17  O   UNL     1       5.891   6.530  17.198  0.00  0.00    +0.000 OA
BRANCH  17  19
ATOM     18  C   UNL     1       6.186   4.828  15.565  0.00  0.00    +0.000 C 
ATOM     19  C   UNL     1       5.643   6.178  15.904  0.00  0.00    +0.000 C 
ATOM     20  O   UNL     1       5.041   6.869  15.087  0.00  0.00    +0.000 OA
ENDBRANCH  17  19
ENDBRANCH  15  17
ENDBRANCH  13  15
ENDBRANCH   9  14
ENDBRANCH   1  11
BRANCH   5  21
ATOM     21  C   UNL     1       1.525   9.025  20.250  0.00  0.00    +0.000 C 
BRANCH  21  22
ATOM     22  C   UNL     1       0.331   9.579  20.983  0.00  0.00    +0.000 C 
ATOM     23  C   UNL     1       0.072  10.892  21.199  0.00  0.00    +0.000 C 
ATOM     24  C   UNL     1       0.898  12.027  20.645  0.00  0.00    +0.000 C 
BRANCH  23  25
ATOM     25  C   UNL     1      -1.006  11.245  22.121  0.00  0.00    +0.000 C 
ATOM     26  C   UNL     1      -2.007  12.097  21.850  0.00  0.00    +0.000 C 
BRANCH  26  27
ATOM     27  C   UNL     1      -3.006  12.590  22.853  0.00  0.00    +0.000 C 
ATOM     28  O   UNL     1      -2.309  13.592  23.612  0.00  0.00    +0.000 OA
ATOM     29  C   UNL     1      -3.113  14.106  24.674  0.00  0.00    +0.000 C 
ATOM     30  C   UNL     1      -4.331  14.831  24.112  0.00  0.00    +0.000 C 
ATOM     31  C   UNL     1      -5.089  13.930  23.179  0.00  0.00    +0.000 C 
ATOM     32  C   UNL     1      -6.548  14.202  22.905  0.00  0.00    +0.000 C 
ATOM     33  O   UNL     1      -6.127  13.159  23.804  0.00  0.00    +0.000 OA
ATOM     34  C   UNL     1      -4.253  13.194  22.160  0.00  0.00    +0.000 C 
BRANCH  34  35
ATOM     35  O   UNL     1      -5.024  12.177  21.513  0.00  0.00    +0.000 OA
ATOM     36  H   UNL     1      -5.116  12.454  20.583  0.00  0.00    +0.000 HD
ENDBRANCH  34  35
ENDBRANCH  26  27
ENDBRANCH  23  25
ENDBRANCH  21  22
ENDBRANCH   5  21
TORSDOF 10
ENDMDL
MODEL 4
REMARK VINA RESULT:      -7.2      6.441      9.633
REMARK  Name = 
REMARK  15 active torsions:
REMARK  status: ('A' for Active; 'I' for Inactive)
REMARK    1  A    between atoms: C_1  and  C_2
REMARK    2  A    between atoms: C_2  and  O_4
REMARK    3  A    between atoms: O_4  and  C_5
REMARK    4  A    between atoms: C_5  and  C_6
REMARK    5  A    between atoms: C_5  and  C_7
REMARK    6  A    between atoms: C_8  and  C_9
REMARK    7  A    between atoms: N_11  and  C_12
REMARK    8  A    between atoms: C_14  and  C_15
REMARK    9  A    between atoms: C_16  and  C_17
REMARK   10  A    between atoms: C_17  and  C_18
REMARK   11  A    between atoms: C_19  and  C_20
REMARK   12  A    between atoms: C_19  and  C_21
REMARK   13  A    between atoms: C_22  and  C_23
REMARK   14  A    between atoms: C_30  and  O_31
REMARK   15  A    between atoms: C_33  and  C_34
REMARK                            x       y       z     vdW  Elec       q    Type
REMARK                         _______ _______ _______ _____ _____    ______ ____
ROOT
ATOM      1  C   UNL     1       2.413   4.623  18.858  0.00  0.00    +0.000 C 
ATOM      2  C   UNL     1       1.681   5.702  18.026  0.00  0.00    +0.000 C 
ATOM      3  C   UNL     1       1.652   7.093  18.698  0.00  0.00    +0.000 C 
ATOM      4  C   UNL     1       2.994   7.775  18.453  0.00  0.00    +0.000 C 
ATOM      5  C   UNL     1       1.288   7.031  20.203  0.00  0.00    +0.000 C 
ATOM      6  O   UNL     1       1.966   5.936  20.857  0.00  0.00    +0.000 OA
ATOM      7  C   UNL     1       1.725   4.665  20.241  0.00  0.00    +0.000 C 
ATOM      8  C   UNL     1       2.231   3.585  21.186  0.00  0.00    +0.000 C 
ENDROOT
BRANCH   1  11
ATOM      9  C   UNL     1       4.841   4.010  18.373  0.00  0.00    +0.000 C 
ATOM     10  O   UNL     1       4.571   3.026  17.679  0.00  0.00    +0.000 OA
ATOM     11  N   UNL     1       3.882   4.798  18.976  0.00  0.00    +0.000 N 
ATOM     12  H   UNL     1       4.189   5.469  19.672  0.00  0.00    +0.000 HD
BRANCH   9  14
ATOM     13  C   UNL     1       7.142   5.025  17.848  0.00  0.00    +0.000 C 
ATOM     14  C   UNL     1       6.260   4.401  18.669  0.00  0.00    +0.000 C 
BRANCH  13  15
ATOM     15  C   UNL     1       6.908   5.558  16.445  0.00  0.00    +0.000 C 
ATOM     16  C   UNL     1       5.684   6.481  16.331  0.00  0.00    +0.000 C 
BRANCH  15  17
ATOM     17  O   UNL     1       6.685   4.434  15.553  0.00  0.00    +0.000 OA
BRANCH  17  19
ATOM     18  C   UNL     1       6.219   3.862  13.293  0.00  0.00    +0.000 C 
ATOM     19  C   UNL     1       7.005   4.694  14.254  0.00  0.00    +0.000 C 
ATOM     20  O   UNL     1       7.839   5.516  13.882  0.00  0.00    +0.000 OA
ENDBRANCH  17  19
ENDBRANCH  15  17
ENDBRANCH  13  15
ENDBRANCH   9  14
ENDBRANCH   1  11
BRANCH   5  21
ATOM     21  C   UNL     1       1.679   8.289  21.015  0.00  0.00    +0.000 C 
BRANCH  21  22
ATOM     22  C   UNL     1       0.733   9.461  20.979  0.00  0.00    +0.000 C 
ATOM     23  C   UNL     1       0.031   9.946  22.031  0.00  0.00    +0.000 C 
ATOM     24  C   UNL     1       0.163   9.446  23.449  0.00  0.00    +0.000 C 
BRANCH  23  25
ATOM     25  C   UNL     1      -1.010  10.940  21.773  0.00  0.00    +0.000 C 
ATOM     26  C   UNL     1      -1.653  11.649  22.714  0.00  0.00    +0.000 C 
BRANCH  26  27
ATOM     27  C   UNL     1      -2.836  12.533  22.461  0.00  0.00    +0.000 C 
ATOM     28  O   UNL     1      -3.798  12.164  23.464  0.00  0.00    +0.000 OA
ATOM     29  C   UNL     1      -5.028  12.871  23.302  0.00  0.00    +0.000 C 
ATOM     30  C   UNL     1      -4.811  14.366  23.512  0.00  0.00    +0.000 C 
ATOM     31  C   UNL     1      -3.719  14.865  22.609  0.00  0.00    +0.000 C 
ATOM     32  C   UNL     1      -3.661  16.331  22.253  0.00  0.00    +0.000 C 
ATOM     33  O   UNL     1      -4.170  15.347  21.334  0.00  0.00    +0.000 OA
ATOM     34  C   UNL     1      -2.461  14.031  22.583  0.00  0.00    +0.000 C 
BRANCH  34  35
ATOM     35  O   UNL     1      -1.607  14.436  21.509  0.00  0.00    +0.000 OA
ATOM     36  H   UNL     1      -1.235  13.619  21.131  0.00  0.00    +0.000 HD
ENDBRANCH  34  35
ENDBRANCH  26  27
ENDBRANCH  23  25
ENDBRANCH  21  22
ENDBRANCH   5  21
TORSDOF 10
ENDMDL
MODEL 5
REMARK VINA RESULT:      -7.2      1.642      1.941
REMARK  Name = 
REMARK  15 active torsions:
REMARK  status: ('A' for Active; 'I' for Inactive)
REMARK    1  A    between atoms: C_1  and  C_2
REMARK    2  A    between atoms: C_2  and  O_4
REMARK    3  A    between atoms: O_4  and  C_5
REMARK    4  A    between atoms: C_5  and  C_6
REMARK    5  A    between atoms: C_5  and  C_7
REMARK    6  A    between atoms: C_8  and  C_9
REMARK    7  A    between atoms: N_11  and  C_12
REMARK    8  A    between atoms: C_14  and  C_15
REMARK    9  A    between atoms: C_16  and  C_17
REMARK   10  A    between atoms: C_17  and  C_18
REMARK   11  A    between atoms: C_19  and  C_20
REMARK   12  A    between atoms: C_19  and  C_21
REMARK   13  A    between atoms: C_22  and  C_23
REMARK   14  A    between atoms: C_30  and  O_31
REMARK   15  A    between atoms: C_33  and  C_34
REMARK                            x       y       z     vdW  Elec       q    Type
REMARK                         _______ _______ _______ _____ _____    ______ ____
ROOT
ATOM      1  C   UNL     1       5.397   5.250  17.261  0.00  0.00    +0.000 C 
ATOM      2  C   UNL     1       6.738   4.619  17.700  0.00  0.00    +0.000 C 
ATOM      3  C   UNL     1       7.713   5.621  18.357  0.00  0.00    +0.000 C 
ATOM      4  C   UNL     1       7.298   5.816  19.811  0.00  0.00    +0.000 C 
ATOM      5  C   UNL     1       7.813   6.962  17.587  0.00  0.00    +0.000 C 
ATOM      6  O   UNL     1       6.510   7.411  17.156  0.00  0.00    +0.000 OA
ATOM      7  C   UNL     1       5.803   6.445  16.369  0.00  0.00    +0.000 C 
ATOM      8  C   UNL     1       4.609   7.143  15.735  0.00  0.00    +0.000 C 
ENDROOT
BRANCH   1  11
ATOM      9  C   UNL     1       4.098   4.892  19.427  0.00  0.00    +0.000 C 
ATOM     10  O   UNL     1       4.418   3.707  19.554  0.00  0.00    +0.000 OA
ATOM     11  N   UNL     1       4.502   5.677  18.366  0.00  0.00    +0.000 N 
ATOM     12  H   UNL     1       4.049   6.576  18.242  0.00  0.00    +0.000 HD
BRANCH   9  14
ATOM     13  C   UNL     1       1.898   5.247  20.706  0.00  0.00    +0.000 C 
ATOM     14  C   UNL     1       3.179   5.571  20.403  0.00  0.00    +0.000 C 
BRANCH  13  15
ATOM     15  C   UNL     1       1.078   4.074  20.199  0.00  0.00    +0.000 C 
ATOM     16  C   UNL     1       1.405   2.743  20.897  0.00  0.00    +0.000 C 
BRANCH  15  17
ATOM     17  O   UNL     1       1.349   3.896  18.784  0.00  0.00    +0.000 OA
BRANCH  17  19
ATOM     18  C   UNL     1       2.407   2.063  17.699  0.00  0.00    +0.000 C 
ATOM     19  C   UNL     1       1.180   2.614  18.350  0.00  0.00    +0.000 C 
ATOM     20  O   UNL     1       0.149   1.957  18.471  0.00  0.00    +0.000 OA
ENDBRANCH  17  19
ENDBRANCH  15  17
ENDBRANCH  13  15
ENDBRANCH   9  14
ENDBRANCH   1  11
BRANCH   5  21
ATOM     21  C   UNL     1       8.392   8.138  18.410  0.00  0.00    +0.000 C 
BRANCH  21  22
ATOM     22  C   UNL     1       8.147   9.533  17.894  0.00  0.00    +0.000 C 
ATOM     23  C   UNL     1       8.904  10.623  18.167  0.00  0.00    +0.000 C 
ATOM     24  C   UNL     1      10.187  10.595  18.960  0.00  0.00    +0.000 C 
BRANCH  23  25
ATOM     25  C   UNL     1       8.397  11.937  17.773  0.00  0.00    +0.000 C 
ATOM     26  C   UNL     1       8.571  13.072  18.466  0.00  0.00    +0.000 C 
BRANCH  26  27
ATOM     27  C   UNL     1       7.904  14.377  18.153  0.00  0.00    +0.000 C 
ATOM     28  O   UNL     1       6.499  14.077  18.109  0.00  0.00    +0.000 OA
ATOM     29  C   UNL     1       5.725  15.218  17.737  0.00  0.00    +0.000 C 
ATOM     30  C   UNL     1       5.851  16.310  18.794  0.00  0.00    +0.000 C 
ATOM     31  C   UNL     1       7.297  16.632  19.042  0.00  0.00    +0.000 C 
ATOM     32  C   UNL     1       7.670  17.972  19.627  0.00  0.00    +0.000 C 
ATOM     33  O   UNL     1       7.824  17.688  18.224  0.00  0.00    +0.000 OA
ATOM     34  C   UNL     1       8.205  15.442  19.237  0.00  0.00    +0.000 C 
BRANCH  34  35
ATOM     35  O   UNL     1       9.578  15.843  19.197  0.00  0.00    +0.000 OA
ATOM     36  H   UNL     1       9.903  15.801  20.114  0.00  0.00    +0.000 HD
ENDBRANCH  34  35
ENDBRANCH  26  27
ENDBRANCH  23  25
ENDBRANCH  21  22
ENDBRANCH   5  21
TORSDOF 10
ENDMDL
MODEL 6
REMARK VINA RESULT:      -7.2      6.335      9.410
REMARK  Name = 
REMARK  15 active torsions:
REMARK  status: ('A' for Active; 'I' for Inactive)
REMARK    1  A    between atoms: C_1  and  C_2
REMARK    2  A    between atoms: C_2  and  O_4
REMARK    3  A    between atoms: O_4  and  C_5
REMARK    4  A    between atoms: C_5  and  C_6
REMARK    5  A    between atoms: C_5  and  C_7
REMARK    6  A    between atoms: C_8  and  C_9
REMARK    7  A    between atoms: N_11  and  C_12
REMARK    8  A    between atoms: C_14  and  C_15
REMARK    9  A    between atoms: C_16  and  C_17
REMARK   10  A    between atoms: C_17  and  C_18
REMARK   11  A    between atoms: C_19  and  C_20
REMARK   12  A    between atoms: C_19  and  C_21
REMARK   13  A    between atoms: C_22  and  C_23
REMARK   14  A    between atoms: C_30  and  O_31
REMARK   15  A    between atoms: C_33  and  C_34
REMARK                            x       y       z     vdW  Elec       q    Type
REMARK                         _______ _______ _______ _____ _____    ______ ____
ROOT
ATOM      1  C   UNL     1       2.897   3.736  18.661  0.00  0.00    +0.000 C 
ATOM      2  C   UNL     1       1.861   4.608  17.915  0.00  0.00    +0.000 C 
ATOM      3  C   UNL     1       1.674   6.015  18.527  0.00  0.00    +0.000 C 
ATOM      4  C   UNL     1       2.813   6.906  18.042  0.00  0.00    +0.000 C 
ATOM      5  C   UNL     1       1.559   5.992  20.072  0.00  0.00    +0.000 C 
ATOM      6  O   UNL     1       2.520   5.083  20.652  0.00  0.00    +0.000 OA
ATOM      7  C   UNL     1       2.430   3.749  20.134  0.00  0.00    +0.000 C 
ATOM      8  C   UNL     1       3.264   2.845  21.028  0.00  0.00    +0.000 C 
ENDROOT
BRANCH   1  11
ATOM      9  C   UNL     1       5.205   3.751  17.576  0.00  0.00    +0.000 C 
ATOM     10  O   UNL     1       4.931   2.907  16.718  0.00  0.00    +0.000 OA
ATOM     11  N   UNL     1       4.309   4.177  18.535  0.00  0.00    +0.000 N 
ATOM     12  H   UNL     1       4.667   4.729  19.306  0.00  0.00    +0.000 HD
BRANCH   9  14
ATOM     13  C   UNL     1       7.219   5.134  16.780  0.00  0.00    +0.000 C 
ATOM     14  C   UNL     1       6.578   4.350  17.682  0.00  0.00    +0.000 C 
BRANCH  13  15
ATOM     15  C   UNL     1       6.693   5.675  15.462  0.00  0.00    +0.000 C 
ATOM     16  C   UNL     1       5.346   6.405  15.587  0.00  0.00    +0.000 C 
BRANCH  15  17
ATOM     17  O   UNL     1       6.498   4.563  14.549  0.00  0.00    +0.000 OA
BRANCH  17  19
ATOM     18  C   UNL     1       6.681   3.717  12.334  0.00  0.00    +0.000 C 
ATOM     19  C   UNL     1       7.121   4.724  13.347  0.00  0.00    +0.000 C 
ATOM     20  O   UNL     1       7.952   5.592  13.093  0.00  0.00    +0.000 OA
ENDBRANCH  17  19
ENDBRANCH  15  17
ENDBRANCH  13  15
ENDBRANCH   9  14
ENDBRANCH   1  11
BRANCH   5  21
ATOM     21  C   UNL     1       1.827   7.353  20.760  0.00  0.00    +0.000 C 
BRANCH  21  22
ATOM     22  C   UNL     1       0.664   8.299  20.904  0.00  0.00    +0.000 C 
ATOM     23  C   UNL     1       0.435   9.396  20.142  0.00  0.00    +0.000 C 
ATOM     24  C   UNL     1       1.267   9.795  18.948  0.00  0.00    +0.000 C 
BRANCH  23  25
ATOM     25  C   UNL     1      -0.611  10.327  20.562  0.00  0.00    +0.000 C 
ATOM     26  C   UNL     1      -0.453  11.652  20.709  0.00  0.00    +0.000 C 
BRANCH  26  27
ATOM     27  C   UNL     1      -1.473  12.574  21.306  0.00  0.00    +0.000 C 
ATOM     28  O   UNL     1      -2.437  12.789  20.261  0.00  0.00    +0.000 OA
ATOM     29  C   UNL     1      -3.443  13.724  20.655  0.00  0.00    +0.000 C 
ATOM     30  C   UNL     1      -4.256  13.167  21.818  0.00  0.00    +0.000 C 
ATOM     31  C   UNL     1      -3.348  12.768  22.946  0.00  0.00    +0.000 C 
ATOM     32  C   UNL     1      -3.898  12.680  24.348  0.00  0.00    +0.000 C 
ATOM     33  O   UNL     1      -3.106  13.801  23.913  0.00  0.00    +0.000 OA
ATOM     34  C   UNL     1      -2.144  11.947  22.553  0.00  0.00    +0.000 C 
BRANCH  34  35
ATOM     35  O   UNL     1      -1.219  11.852  23.641  0.00  0.00    +0.000 OA
ATOM     36  H   UNL     1      -1.448  12.571  24.258  0.00  0.00    +0.000 HD
ENDBRANCH  34  35
ENDBRANCH  26  27
ENDBRANCH  23  25
ENDBRANCH  21  22
ENDBRANCH   5  21
TORSDOF 10
ENDMDL
MODEL 7
REMARK VINA RESULT:      -7.1      6.220     12.505
REMARK  Name = 
REMARK  15 active torsions:
REMARK  status: ('A' for Active; 'I' for Inactive)
REMARK    1  A    between atoms: C_1  and  C_2
REMARK    2  A    between atoms: C_2  and  O_4
REMARK    3  A    between atoms: O_4  and  C_5
REMARK    4  A    between atoms: C_5  and  C_6
REMARK    5  A    between atoms: C_5  and  C_7
REMARK    6  A    between atoms: C_8  and  C_9
REMARK    7  A    between atoms: N_11  and  C_12
REMARK    8  A    between atoms: C_14  and  C_15
REMARK    9  A    between atoms: C_16  and  C_17
REMARK   10  A    between atoms: C_17  and  C_18
REMARK   11  A    between atoms: C_19  and  C_20
REMARK   12  A    between atoms: C_19  and  C_21
REMARK   13  A    between atoms: C_22  and  C_23
REMARK   14  A    between atoms: C_30  and  O_31
REMARK   15  A    between atoms: C_33  and  C_34
REMARK                            x       y       z     vdW  Elec       q    Type
REMARK                         _______ _______ _______ _____ _____    ______ ____
ROOT
ATOM      1  C   UNL     1      -1.663  13.959  21.333  0.00  0.00    +0.000 C 
ATOM      2  C   UNL     1      -0.421  13.348  22.021  0.00  0.00    +0.000 C 
ATOM      3  C   UNL     1       0.284  12.258  21.181  0.00  0.00    +0.000 C 
ATOM      4  C   UNL     1       1.163  12.944  20.141  0.00  0.00    +0.000 C 
ATOM      5  C   UNL     1      -0.707  11.250  20.545  0.00  0.00    +0.000 C 
ATOM      6  O   UNL     1      -1.864  11.927  20.010  0.00  0.00    +0.000 OA
ATOM      7  C   UNL     1      -2.546  12.743  20.971  0.00  0.00    +0.000 C 
ATOM      8  C   UNL     1      -3.888  13.142  20.377  0.00  0.00    +0.000 C 
ENDROOT
BRANCH   1  11
ATOM      9  C   UNL     1      -1.248  16.174  20.137  0.00  0.00    +0.000 C 
ATOM     10  O   UNL     1      -1.386  16.872  21.145  0.00  0.00    +0.000 OA
ATOM     11  N   UNL     1      -1.382  14.800  20.142  0.00  0.00    +0.000 N 
ATOM     12  H   UNL     1      -1.435  14.326  19.248  0.00  0.00    +0.000 HD
BRANCH   9  14
ATOM     13  C   UNL     1       0.213  17.199  18.289  0.00  0.00    +0.000 C 
ATOM     14  C   UNL     1      -0.975  16.778  18.790  0.00  0.00    +0.000 C 
BRANCH  13  15
ATOM     15  C   UNL     1       1.590  17.102  18.924  0.00  0.00    +0.000 C 
ATOM     16  C   UNL     1       1.817  18.111  20.063  0.00  0.00    +0.000 C 
BRANCH  15  17
ATOM     17  O   UNL     1       2.590  17.369  17.906  0.00  0.00    +0.000 OA
BRANCH  17  19
ATOM     18  C   UNL     1       3.612  15.233  17.686  0.00  0.00    +0.000 C 
ATOM     19  C   UNL     1       3.747  16.668  18.079  0.00  0.00    +0.000 C 
ATOM     20  O   UNL     1       4.801  17.137  18.502  0.00  0.00    +0.000 OA
ENDBRANCH  17  19
ENDBRANCH  15  17
ENDBRANCH  13  15
ENDBRANCH   9  14
ENDBRANCH   1  11
BRANCH   5  21
ATOM     21  C   UNL     1      -0.131  10.440  19.359  0.00  0.00    +0.000 C 
BRANCH  21  22
ATOM     22  C   UNL     1       0.786   9.289  19.685  0.00  0.00    +0.000 C 
ATOM     23  C   UNL     1       1.783   8.822  18.897  0.00  0.00    +0.000 C 
ATOM     24  C   UNL     1       2.206   9.452  17.592  0.00  0.00    +0.000 C 
BRANCH  23  25
ATOM     25  C   UNL     1       2.424   7.559  19.261  0.00  0.00    +0.000 C 
ATOM     26  C   UNL     1       1.798   6.377  19.367  0.00  0.00    +0.000 C 
BRANCH  26  27
ATOM     27  C   UNL     1       2.419   5.125  19.910  0.00  0.00    +0.000 C 
ATOM     28  O   UNL     1       1.528   4.689  20.951  0.00  0.00    +0.000 OA
ATOM     29  C   UNL     1       2.031   3.536  21.628  0.00  0.00    +0.000 C 
ATOM     30  C   UNL     1       2.109   2.352  20.670  0.00  0.00    +0.000 C 
ATOM     31  C   UNL     1       2.910   2.718  19.453  0.00  0.00    +0.000 C 
ATOM     32  C   UNL     1       3.553   1.628  18.631  0.00  0.00    +0.000 C 
ATOM     33  O   UNL     1       4.313   2.432  19.552  0.00  0.00    +0.000 OA
ATOM     34  C   UNL     1       2.556   4.039  18.814  0.00  0.00    +0.000 C 
BRANCH  34  35
ATOM     35  O   UNL     1       3.540   4.410  17.843  0.00  0.00    +0.000 OA
ATOM     36  H   UNL     1       3.587   3.675  17.205  0.00  0.00    +0.000 HD
ENDBRANCH  34  35
ENDBRANCH  26  27
ENDBRANCH  23  25
ENDBRANCH  21  22
ENDBRANCH   5  21
TORSDOF 10
ENDMDL
MODEL 8
REMARK VINA RESULT:      -7.1      1.633      2.925
REMARK  Name = 
REMARK  15 active torsions:
REMARK  status: ('A' for Active; 'I' for Inactive)
REMARK    1  A    between atoms: C_1  and  C_2
REMARK    2  A    between atoms: C_2  and  O_4
REMARK    3  A    between atoms: O_4  and  C_5
REMARK    4  A    between atoms: C_5  and  C_6
REMARK    5  A    between atoms: C_5  and  C_7
REMARK    6  A    between atoms: C_8  and  C_9
REMARK    7  A    between atoms: N_11  and  C_12
REMARK    8  A    between atoms: C_14  and  C_15
REMARK    9  A    between atoms: C_16  and  C_17
REMARK   10  A    between atoms: C_17  and  C_18
REMARK   11  A    between atoms: C_19  and  C_20
REMARK   12  A    between atoms: C_19  and  C_21
REMARK   13  A    between atoms: C_22  and  C_23
REMARK   14  A    between atoms: C_30  and  O_31
REMARK   15  A    between atoms: C_33  and  C_34
REMARK                            x       y       z     vdW  Elec       q    Type
REMARK                         _______ _______ _______ _____ _____    ______ ____
ROOT
ATOM      1  C   UNL     1       5.120   5.217  17.128  0.00  0.00    +0.000 C 
ATOM      2  C   UNL     1       6.522   4.585  17.285  0.00  0.00    +0.000 C 
ATOM      3  C   UNL     1       7.539   5.496  18.010  0.00  0.00    +0.000 C 
ATOM      4  C   UNL     1       7.294   5.392  19.512  0.00  0.00    +0.000 C 
ATOM      5  C   UNL     1       7.505   6.961  17.508  0.00  0.00    +0.000 C 
ATOM      6  O   UNL     1       6.147   7.415  17.319  0.00  0.00    +0.000 OA
ATOM      7  C   UNL     1       5.381   6.579  16.443  0.00  0.00    +0.000 C 
ATOM      8  C   UNL     1       4.100   7.320  16.093  0.00  0.00    +0.000 C 
ENDROOT
BRANCH   1  11
ATOM      9  C   UNL     1       2.987   5.222  18.527  0.00  0.00    +0.000 C 
ATOM     10  O   UNL     1       2.236   4.953  17.585  0.00  0.00    +0.000 OA
ATOM     11  N   UNL     1       4.351   5.381  18.387  0.00  0.00    +0.000 N 
ATOM     12  H   UNL     1       4.864   5.779  19.166  0.00  0.00    +0.000 HD
BRANCH   9  14
ATOM     13  C   UNL     1       2.115   6.638  20.486  0.00  0.00    +0.000 C 
ATOM     14  C   UNL     1       2.461   5.458  19.914  0.00  0.00    +0.000 C 
BRANCH  13  15
ATOM     15  C   UNL     1       2.097   8.019  19.855  0.00  0.00    +0.000 C 
ATOM     16  C   UNL     1       1.402   9.084  20.720  0.00  0.00    +0.000 C 
BRANCH  15  17
ATOM     17  O   UNL     1       1.375   7.947  18.598  0.00  0.00    +0.000 OA
BRANCH  17  19
ATOM     18  C   UNL     1      -0.118   9.593  17.752  0.00  0.00    +0.000 C 
ATOM     19  C   UNL     1       1.293   9.140  17.943  0.00  0.00    +0.000 C 
ATOM     20  O   UNL     1       2.253   9.795  17.545  0.00  0.00    +0.000 OA
ENDBRANCH  17  19
ENDBRANCH  15  17
ENDBRANCH  13  15
ENDBRANCH   9  14
ENDBRANCH   1  11
BRANCH   5  21
ATOM     21  C   UNL     1       8.143   7.990  18.472  0.00  0.00    +0.000 C 
BRANCH  21  22
ATOM     22  C   UNL     1       8.412   9.372  17.934  0.00  0.00    +0.000 C 
ATOM     23  C   UNL     1       8.984  10.392  18.617  0.00  0.00    +0.000 C 
ATOM     24  C   UNL     1       9.542  10.276  20.015  0.00  0.00    +0.000 C 
BRANCH  23  25
ATOM     25  C   UNL     1       8.962  11.727  18.022  0.00  0.00    +0.000 C 
ATOM     26  C   UNL     1       9.866  12.691  18.253  0.00  0.00    +0.000 C 
BRANCH  26  27
ATOM     27  C   UNL     1       9.744  14.109  17.782  0.00  0.00    +0.000 C 
ATOM     28  O   UNL     1       8.482  14.566  18.297  0.00  0.00    +0.000 OA
ATOM     29  C   UNL     1       8.181  15.892  17.859  0.00  0.00    +0.000 C 
ATOM     30  C   UNL     1       9.201  16.877  18.417  0.00  0.00    +0.000 C 
ATOM     31  C   UNL     1      10.595  16.441  18.064  0.00  0.00    +0.000 C 
ATOM     32  C   UNL     1      11.709  17.459  18.042  0.00  0.00    +0.000 C 
ATOM     33  O   UNL     1      11.096  16.979  16.831  0.00  0.00    +0.000 OA
ATOM     34  C   UNL     1      10.905  14.985  18.315  0.00  0.00    +0.000 C 
BRANCH  34  35
ATOM     35  O   UNL     1      12.146  14.620  17.704  0.00  0.00    +0.000 OA
ATOM     36  H   UNL     1      12.321  15.289  17.018  0.00  0.00    +0.000 HD
ENDBRANCH  34  35
ENDBRANCH  26  27
ENDBRANCH  23  25
ENDBRANCH  21  22
ENDBRANCH   5  21
TORSDOF 10
ENDMDL
MODEL 9
REMARK VINA RESULT:      -7.0      6.243      9.410
REMARK  Name = 
REMARK  15 active torsions:
REMARK  status: ('A' for Active; 'I' for Inactive)
REMARK    1  A    between atoms: C_1  and  C_2
REMARK    2  A    between atoms: C_2  and  O_4
REMARK    3  A    between atoms: O_4  and  C_5
REMARK    4  A    between atoms: C_5  and  C_6
REMARK    5  A    between atoms: C_5  and  C_7
REMARK    6  A    between atoms: C_8  and  C_9
REMARK    7  A    between atoms: N_11  and  C_12
REMARK    8  A    between atoms: C_14  and  C_15
REMARK    9  A    between atoms: C_16  and  C_17
REMARK   10  A    between atoms: C_17  and  C_18
REMARK   11  A    between atoms: C_19  and  C_20
REMARK   12  A    between atoms: C_19  and  C_21
REMARK   13  A    between atoms: C_22  and  C_23
REMARK   14  A    between atoms: C_30  and  O_31
REMARK   15  A    between atoms: C_33  and  C_34
REMARK                            x       y       z     vdW  Elec       q    Type
REMARK                         _______ _______ _______ _____ _____    ______ ____
ROOT
ATOM      1  C   UNL     1       3.139   5.023  18.997  0.00  0.00    +0.000 C 
ATOM      2  C   UNL     1       2.622   5.628  17.672  0.00  0.00    +0.000 C 
ATOM      3  C   UNL     1       2.374   7.152  17.737  0.00  0.00    +0.000 C 
ATOM      4  C   UNL     1       3.711   7.866  17.572  0.00  0.00    +0.000 C 
ATOM      5  C   UNL     1       1.626   7.589  19.021  0.00  0.00    +0.000 C 
ATOM      6  O   UNL     1       2.139   6.899  20.181  0.00  0.00    +0.000 OA
ATOM      7  C   UNL     1       2.108   5.471  20.058  0.00  0.00    +0.000 C 
ATOM      8  C   UNL     1       2.378   4.878  21.433  0.00  0.00    +0.000 C 
ENDROOT
BRANCH   1  11
ATOM      9  C   UNL     1       5.661   4.672  19.162  0.00  0.00    +0.000 C 
ATOM     10  O   UNL     1       5.652   3.554  18.641  0.00  0.00    +0.000 OA
ATOM     11  N   UNL     1       4.519   5.416  19.381  0.00  0.00    +0.000 N 
ATOM     12  H   UNL     1       4.593   6.234  19.975  0.00  0.00    +0.000 HD
BRANCH   9  14
ATOM     13  C   UNL     1       7.788   6.102  18.982  0.00  0.00    +0.000 C 
ATOM     14  C   UNL     1       6.931   5.300  19.661  0.00  0.00    +0.000 C 
BRANCH  13  15
ATOM     15  C   UNL     1       7.655   6.638  17.567  0.00  0.00    +0.000 C 
ATOM     16  C   UNL     1       7.573   8.172  17.492  0.00  0.00    +0.000 C 
BRANCH  15  17
ATOM     17  O   UNL     1       6.433   6.112  16.984  0.00  0.00    +0.000 OA
BRANCH  17  19
ATOM     18  C   UNL     1       5.391   4.784  15.311  0.00  0.00    +0.000 C 
ATOM     19  C   UNL     1       6.623   5.478  15.792  0.00  0.00    +0.000 C 
ATOM     20  O   UNL     1       7.675   5.465  15.158  0.00  0.00    +0.000 OA
ENDBRANCH  17  19
ENDBRANCH  15  17
ENDBRANCH  13  15
ENDBRANCH   9  14
ENDBRANCH   1  11
BRANCH   5  21
ATOM     21  C   UNL     1       1.750   9.094  19.361  0.00  0.00    +0.000 C 
BRANCH  21  22
ATOM     22  C   UNL     1       0.685   9.696  20.241  0.00  0.00    +0.000 C 
ATOM     23  C   UNL     1      -0.446  10.307  19.812  0.00  0.00    +0.000 C 
ATOM     24  C   UNL     1      -0.874  10.393  18.368  0.00  0.00    +0.000 C 
BRANCH  23  25
ATOM     25  C   UNL     1      -1.255  11.035  20.788  0.00  0.00    +0.000 C 
ATOM     26  C   UNL     1      -0.959  12.244  21.290  0.00  0.00    +0.000 C 
BRANCH  26  27
ATOM     27  C   UNL     1      -1.694  12.906  22.416  0.00  0.00    +0.000 C 
ATOM     28  O   UNL     1      -0.772  13.875  22.944  0.00  0.00    +0.000 OA
ATOM     29  C   UNL     1      -1.304  14.542  24.090  0.00  0.00    +0.000 C 
ATOM     30  C   UNL     1      -2.535  15.354  23.705  0.00  0.00    +0.000 C 
ATOM     31  C   UNL     1      -3.540  14.481  23.010  0.00  0.00    +0.000 C 
ATOM     32  C   UNL     1      -4.993  14.890  22.991  0.00  0.00    +0.000 C 
ATOM     33  O   UNL     1      -4.504  13.869  23.881  0.00  0.00    +0.000 OA
ATOM     34  C   UNL     1      -2.990  13.594  21.920  0.00  0.00    +0.000 C 
BRANCH  34  35
ATOM     35  O   UNL     1      -3.963  12.626  21.516  0.00  0.00    +0.000 OA
ATOM     36  H   UNL     1      -4.830  13.066  21.579  0.00  0.00    +0.000 HD
ENDBRANCH  34  35
ENDBRANCH  26  27
ENDBRANCH  23  25
ENDBRANCH  21  22
ENDBRANCH   5  21
TORSDOF 10
ENDMDL
