MODEL 1
REMARK VINA RESULT:      -8.2      0.000      0.000
REMARK  Name = 
REMARK  11 active torsions:
REMARK  status: ('A' for Active; 'I' for Inactive)
REMARK    1  A    between atoms: C_1  and  C_2
REMARK    2  A    between atoms: C_2  and  N_3
REMARK    3  A    between atoms: N_3  and  C_4
REMARK    4  A    between atoms: N_3  and  C_6
REMARK    5  A    between atoms: C_4  and  C_5
REMARK    6  A    between atoms: C_6  and  C_7
REMARK    7  A    between atoms: C_7  and  N_8
REMARK    8  A    between atoms: C_13  and  O_14
REMARK    9  A    between atoms: O_14  and  C_15
REMARK   10  A    between atoms: C_15  and  C_16
REMARK   11  A    between atoms: C_27  and  N_28
REMARK                            x       y       z     vdW  Elec       q    Type
REMARK                         _______ _______ _______ _____ _____    ______ ____
ROOT
ATOM      1  N   UNL     1       4.116   6.666  17.599  0.00  0.00    +0.000 N 
ATOM      2  N   UNL     1       3.374   7.799  17.997  0.00  0.00    +0.000 N 
ATOM      3  C   UNL     1       2.547   7.417  19.054  0.00  0.00    +0.000 A 
ATOM      4  C   UNL     1       1.685   8.153  19.835  0.00  0.00    +0.000 A 
ATOM      5  C   UNL     1       1.537   9.502  19.580  0.00  0.00    +0.000 A 
ATOM      6  C   UNL     1       0.564  10.207  20.261  0.00  0.00    +0.000 A 
ATOM      7  C   UNL     1      -0.151   9.580  21.280  0.00  0.00    +0.000 A 
ATOM      8  C   UNL     1       0.055   8.211  21.551  0.00  0.00    +0.000 A 
ATOM      9  C   UNL     1       0.963   7.449  20.820  0.00  0.00    +0.000 A 
ATOM     10  N   UNL     1       1.144   6.114  21.028  0.00  0.00    +0.000 NA
ATOM     11  C   UNL     1       2.040   5.416  20.256  0.00  0.00    +0.000 A 
ATOM     12  C   UNL     1       2.415   4.075  20.321  0.00  0.00    +0.000 A 
ATOM     13  C   UNL     1       3.349   3.477  19.429  0.00  0.00    +0.000 A 
ATOM     14  C   UNL     1       3.985   4.232  18.410  0.00  0.00    +0.000 A 
ATOM     15  C   UNL     1       3.647   5.576  18.370  0.00  0.00    +0.000 A 
ATOM     16  C   UNL     1       2.708   6.074  19.268  0.00  0.00    +0.000 A 
ATOM     17  H   UNL     1       3.863   8.693  17.965  0.00  0.00    +0.000 HD
ENDROOT
BRANCH  12  18
ATOM     18  N   UNL     1       1.848   3.275  21.381  0.00  0.00    +0.000 N 
ATOM     19  O   UNL     1       2.455   3.238  22.461  0.00  0.00    +0.000 OA
ATOM     20  O   UNL     1       0.834   2.618  21.105  0.00  0.00    +0.000 OA
ENDBRANCH  12  18
BRANCH   1  21
ATOM     21  C   UNL     1       4.675   6.714  16.235  0.00  0.00    +0.000 C 
BRANCH  21  22
ATOM     22  C   UNL     1       6.190   6.411  16.215  0.00  0.00    +0.000 C 
BRANCH  22  23
ATOM     23  N   UNL     1       6.600   4.979  16.302  0.00  0.00    +0.000 NA
BRANCH  23  25
ATOM     24  C   UNL     1       6.004   4.120  13.975  0.00  0.00    +0.000 C 
ATOM     25  C   UNL     1       7.084   4.524  14.981  0.00  0.00    +0.000 C 
ENDBRANCH  23  25
BRANCH  23  26
ATOM     26  C   UNL     1       7.499   4.654  17.414  0.00  0.00    +0.000 C 
ATOM     27  C   UNL     1       7.659   5.722  18.485  0.00  0.00    +0.000 C 
ENDBRANCH  23  26
ENDBRANCH  22  23
ENDBRANCH  21  22
ENDBRANCH   1  21
BRANCH   6  28
ATOM     28  O   UNL     1       0.259  11.508  19.965  0.00  0.00    +0.000 OA
BRANCH  28  29
ATOM     29  C   UNL     1       0.004  11.719  18.568  0.00  0.00    +0.000 C 
BRANCH  29  30
ATOM     30  C   UNL     1      -1.386  11.281  18.243  0.00  0.00    +0.000 A 
ATOM     31  C   UNL     1      -2.476  11.976  18.775  0.00  0.00    +0.000 A 
ATOM     32  C   UNL     1      -3.772  11.561  18.489  0.00  0.00    +0.000 A 
ATOM     33  C   UNL     1      -3.983  10.455  17.666  0.00  0.00    +0.000 A 
ATOM     34  C   UNL     1      -2.898   9.765  17.123  0.00  0.00    +0.000 A 
ATOM     35  C   UNL     1      -1.605  10.175  17.409  0.00  0.00    +0.000 A 
ENDBRANCH  29  30
ENDBRANCH  28  29
ENDBRANCH   6  28
TORSDOF 9
ENDMDL
MODEL 2
REMARK VINA RESULT:      -8.2      0.339      1.431
REMARK  Name = 
REMARK  11 active torsions:
REMARK  status: ('A' for Active; 'I' for Inactive)
REMARK    1  A    between atoms: C_1  and  C_2
REMARK    2  A    between atoms: C_2  and  N_3
REMARK    3  A    between atoms: N_3  and  C_4
REMARK    4  A    between atoms: N_3  and  C_6
REMARK    5  A    between atoms: C_4  and  C_5
REMARK    6  A    between atoms: C_6  and  C_7
REMARK    7  A    between atoms: C_7  and  N_8
REMARK    8  A    between atoms: C_13  and  O_14
REMARK    9  A    between atoms: O_14  and  C_15
REMARK   10  A    between atoms: C_15  and  C_16
REMARK   11  A    between atoms: C_27  and  N_28
REMARK                            x       y       z     vdW  Elec       q    Type
REMARK                         _______ _______ _______ _____ _____    ______ ____
ROOT
ATOM      1  N   UNL     1       4.328   6.506  17.591  0.00  0.00    +0.000 N 
ATOM      2  N   UNL     1       3.576   7.635  17.979  0.00  0.00    +0.000 N 
ATOM      3  C   UNL     1       2.726   7.245  19.014  0.00  0.00    +0.000 A 
ATOM      4  C   UNL     1       1.845   7.976  19.781  0.00  0.00    +0.000 A 
ATOM      5  C   UNL     1       1.702   9.327  19.531  0.00  0.00    +0.000 A 
ATOM      6  C   UNL     1       0.713  10.026  20.195  0.00  0.00    +0.000 A 
ATOM      7  C   UNL     1      -0.025   9.392  21.193  0.00  0.00    +0.000 A 
ATOM      8  C   UNL     1       0.176   8.021  21.459  0.00  0.00    +0.000 A 
ATOM      9  C   UNL     1       1.101   7.265  20.744  0.00  0.00    +0.000 A 
ATOM     10  N   UNL     1       1.279   5.929  20.947  0.00  0.00    +0.000 NA
ATOM     11  C   UNL     1       2.192   5.236  20.191  0.00  0.00    +0.000 A 
ATOM     12  C   UNL     1       2.566   3.895  20.256  0.00  0.00    +0.000 A 
ATOM     13  C   UNL     1       3.521   3.303  19.380  0.00  0.00    +0.000 A 
ATOM     14  C   UNL     1       4.180   4.066  18.382  0.00  0.00    +0.000 A 
ATOM     15  C   UNL     1       3.842   5.410  18.343  0.00  0.00    +0.000 A 
ATOM     16  C   UNL     1       2.882   5.901  19.223  0.00  0.00    +0.000 A 
ATOM     17  H   UNL     1       4.065   8.529  17.965  0.00  0.00    +0.000 HD
ENDROOT
BRANCH  12  18
ATOM     18  N   UNL     1       1.976   3.087  21.297  0.00  0.00    +0.000 N 
ATOM     19  O   UNL     1       0.935   2.473  21.026  0.00  0.00    +0.000 OA
ATOM     20  O   UNL     1       2.515   3.131  22.412  0.00  0.00    +0.000 OA
ENDBRANCH  12  18
BRANCH   1  21
ATOM     21  C   UNL     1       4.918   6.563  16.241  0.00  0.00    +0.000 C 
BRANCH  21  22
ATOM     22  C   UNL     1       6.445   6.797  16.281  0.00  0.00    +0.000 C 
BRANCH  22  23
ATOM     23  N   UNL     1       7.321   5.628  15.976  0.00  0.00    +0.000 NA
BRANCH  23  25
ATOM     24  C   UNL     1       7.638   5.457  18.501  0.00  0.00    +0.000 C 
ATOM     25  C   UNL     1       7.404   4.752  17.163  0.00  0.00    +0.000 C 
ENDBRANCH  23  25
BRANCH  23  26
ATOM     26  C   UNL     1       7.008   4.922  14.730  0.00  0.00    +0.000 C 
ATOM     27  C   UNL     1       5.996   3.791  14.834  0.00  0.00    +0.000 C 
ENDBRANCH  23  26
ENDBRANCH  22  23
ENDBRANCH  21  22
ENDBRANCH   1  21
BRANCH   6  28
ATOM     28  O   UNL     1       0.414  11.329  19.901  0.00  0.00    +0.000 OA
BRANCH  28  29
ATOM     29  C   UNL     1       0.126  11.537  18.510  0.00  0.00    +0.000 C 
BRANCH  29  30
ATOM     30  C   UNL     1      -1.304  11.204  18.243  0.00  0.00    +0.000 A 
ATOM     31  C   UNL     1      -2.318  11.970  18.827  0.00  0.00    +0.000 A 
ATOM     32  C   UNL     1      -3.651  11.653  18.594  0.00  0.00    +0.000 A 
ATOM     33  C   UNL     1      -3.978  10.574  17.772  0.00  0.00    +0.000 A 
ATOM     34  C   UNL     1      -2.969   9.814  17.177  0.00  0.00    +0.000 A 
ATOM     35  C   UNL     1      -1.639  10.127  17.409  0.00  0.00    +0.000 A 
ENDBRANCH  29  30
ENDBRANCH  28  29
ENDBRANCH   6  28
TORSDOF 9
ENDMDL
MODEL 3
REMARK VINA RESULT:      -7.9      0.710      1.652
REMARK  Name = 
REMARK  11 active torsions:
REMARK  status: ('A' for Active; 'I' for Inactive)
REMARK    1  A    between atoms: C_1  and  C_2
REMARK    2  A    between atoms: C_2  and  N_3
REMARK    3  A    between atoms: N_3  and  C_4
REMARK    4  A    between atoms: N_3  and  C_6
REMARK    5  A    between atoms: C_4  and  C_5
REMARK    6  A    between atoms: C_6  and  C_7
REMARK    7  A    between atoms: C_7  and  N_8
REMARK    8  A    between atoms: C_13  and  O_14
REMARK    9  A    between atoms: O_14  and  C_15
REMARK   10  A    between atoms: C_15  and  C_16
REMARK   11  A    between atoms: C_27  and  N_28
REMARK                            x       y       z     vdW  Elec       q    Type
REMARK                         _______ _______ _______ _____ _____    ______ ____
ROOT
ATOM      1  N   UNL     1       4.259   6.478  17.509  0.00  0.00    +0.000 N 
ATOM      2  N   UNL     1       3.517   7.611  17.905  0.00  0.00    +0.000 N 
ATOM      3  C   UNL     1       2.684   7.228  18.957  0.00  0.00    +0.000 A 
ATOM      4  C   UNL     1       1.818   7.964  19.735  0.00  0.00    +0.000 A 
ATOM      5  C   UNL     1       1.675   9.314  19.483  0.00  0.00    +0.000 A 
ATOM      6  C   UNL     1       0.700  10.020  20.162  0.00  0.00    +0.000 A 
ATOM      7  C   UNL     1      -0.022   9.392  21.174  0.00  0.00    +0.000 A 
ATOM      8  C   UNL     1       0.179   8.021  21.442  0.00  0.00    +0.000 A 
ATOM      9  C   UNL     1       1.089   7.259  20.714  0.00  0.00    +0.000 A 
ATOM     10  N   UNL     1       1.266   5.923  20.919  0.00  0.00    +0.000 NA
ATOM     11  C   UNL     1       2.164   5.224  20.150  0.00  0.00    +0.000 A 
ATOM     12  C   UNL     1       2.535   3.883  20.213  0.00  0.00    +0.000 A 
ATOM     13  C   UNL     1       3.472   3.284  19.324  0.00  0.00    +0.000 A 
ATOM     14  C   UNL     1       4.116   4.041  18.312  0.00  0.00    +0.000 A 
ATOM     15  C   UNL     1       3.782   5.386  18.273  0.00  0.00    +0.000 A 
ATOM     16  C   UNL     1       2.839   5.884  19.168  0.00  0.00    +0.000 A 
ATOM     17  H   UNL     1       4.008   8.504  17.880  0.00  0.00    +0.000 HD
ENDROOT
BRANCH  12  18
ATOM     18  N   UNL     1       1.960   3.080  21.267  0.00  0.00    +0.000 N 
ATOM     19  O   UNL     1       0.912   2.469  21.018  0.00  0.00    +0.000 OA
ATOM     20  O   UNL     1       2.519   3.127  22.373  0.00  0.00    +0.000 OA
ENDBRANCH  12  18
BRANCH   1  21
ATOM     21  C   UNL     1       4.825   6.528  16.148  0.00  0.00    +0.000 C 
BRANCH  21  22
ATOM     22  C   UNL     1       6.162   5.761  16.045  0.00  0.00    +0.000 C 
BRANCH  22  23
ATOM     23  N   UNL     1       7.300   6.259  16.871  0.00  0.00    +0.000 NA
BRANCH  23  25
ATOM     24  C   UNL     1       8.208   8.433  17.849  0.00  0.00    +0.000 C 
ATOM     25  C   UNL     1       7.011   7.635  17.329  0.00  0.00    +0.000 C 
ENDBRANCH  23  25
BRANCH  23  26
ATOM     26  C   UNL     1       7.741   5.354  17.936  0.00  0.00    +0.000 C 
ATOM     27  C   UNL     1       7.177   5.620  19.323  0.00  0.00    +0.000 C 
ENDBRANCH  23  26
ENDBRANCH  22  23
ENDBRANCH  21  22
ENDBRANCH   1  21
BRANCH   6  28
ATOM     28  O   UNL     1       0.401  11.322  19.868  0.00  0.00    +0.000 OA
BRANCH  28  29
ATOM     29  C   UNL     1       0.092  11.526  18.480  0.00  0.00    +0.000 C 
BRANCH  29  30
ATOM     30  C   UNL     1      -1.338  11.178  18.232  0.00  0.00    +0.000 A 
ATOM     31  C   UNL     1      -1.657  10.083  17.422  0.00  0.00    +0.000 A 
ATOM     32  C   UNL     1      -2.987   9.765  17.175  0.00  0.00    +0.000 A 
ATOM     33  C   UNL     1      -4.004  10.535  17.739  0.00  0.00    +0.000 A 
ATOM     34  C   UNL     1      -3.691  11.622  18.558  0.00  0.00    +0.000 A 
ATOM     35  C   UNL     1      -2.365  11.943  18.804  0.00  0.00    +0.000 A 
ENDBRANCH  29  30
ENDBRANCH  28  29
ENDBRANCH   6  28
TORSDOF 9
ENDMDL
MODEL 4
REMARK VINA RESULT:      -7.8      0.469      1.571
REMARK  Name = 
REMARK  11 active torsions:
REMARK  status: ('A' for Active; 'I' for Inactive)
REMARK    1  A    between atoms: C_1  and  C_2
REMARK    2  A    between atoms: C_2  and  N_3
REMARK    3  A    between atoms: N_3  and  C_4
REMARK    4  A    between atoms: N_3  and  C_6
REMARK    5  A    between atoms: C_4  and  C_5
REMARK    6  A    between atoms: C_6  and  C_7
REMARK    7  A    between atoms: C_7  and  N_8
REMARK    8  A    between atoms: C_13  and  O_14
REMARK    9  A    between atoms: O_14  and  C_15
REMARK   10  A    between atoms: C_15  and  C_16
REMARK   11  A    between atoms: C_27  and  N_28
REMARK                            x       y       z     vdW  Elec       q    Type
REMARK                         _______ _______ _______ _____ _____    ______ ____
ROOT
ATOM      1  N   UNL     1       4.189   6.478  17.407  0.00  0.00    +0.000 N 
ATOM      2  N   UNL     1       3.453   7.599  17.844  0.00  0.00    +0.000 N 
ATOM      3  C   UNL     1       2.670   7.199  18.928  0.00  0.00    +0.000 A 
ATOM      4  C   UNL     1       1.831   7.920  19.748  0.00  0.00    +0.000 A 
ATOM      5  C   UNL     1       1.661   9.270  19.513  0.00  0.00    +0.000 A 
ATOM      6  C   UNL     1       0.709   9.959  20.237  0.00  0.00    +0.000 A 
ATOM      7  C   UNL     1       0.038   9.316  21.276  0.00  0.00    +0.000 A 
ATOM      8  C   UNL     1       0.267   7.946  21.525  0.00  0.00    +0.000 A 
ATOM      9  C   UNL     1       1.153   7.200  20.752  0.00  0.00    +0.000 A 
ATOM     10  N   UNL     1       1.354   5.865  20.940  0.00  0.00    +0.000 NA
ATOM     11  C   UNL     1       2.226   5.182  20.128  0.00  0.00    +0.000 A 
ATOM     12  C   UNL     1       2.615   3.844  20.166  0.00  0.00    +0.000 A 
ATOM     13  C   UNL     1       3.520   3.263  19.232  0.00  0.00    +0.000 A 
ATOM     14  C   UNL     1       4.111   4.034  18.198  0.00  0.00    +0.000 A 
ATOM     15  C   UNL     1       3.760   5.376  18.184  0.00  0.00    +0.000 A 
ATOM     16  C   UNL     1       2.851   5.856  19.122  0.00  0.00    +0.000 A 
ATOM     17  H   UNL     1       3.932   8.498  17.804  0.00  0.00    +0.000 HD
ENDROOT
BRANCH  12  18
ATOM     18  N   UNL     1       2.096   3.028  21.238  0.00  0.00    +0.000 N 
ATOM     19  O   UNL     1       2.896   2.631  22.096  0.00  0.00    +0.000 OA
ATOM     20  O   UNL     1       0.898   2.719  21.175  0.00  0.00    +0.000 OA
ENDBRANCH  12  18
BRANCH   1  21
ATOM     21  C   UNL     1       4.696   6.544  16.024  0.00  0.00    +0.000 C 
BRANCH  21  22
ATOM     22  C   UNL     1       6.177   6.979  15.966  0.00  0.00    +0.000 C 
BRANCH  22  23
ATOM     23  N   UNL     1       7.205   5.946  16.291  0.00  0.00    +0.000 NA
BRANCH  23  25
ATOM     24  C   UNL     1       7.764   4.667  18.426  0.00  0.00    +0.000 C 
ATOM     25  C   UNL     1       7.529   6.011  17.731  0.00  0.00    +0.000 C 
ENDBRANCH  23  25
BRANCH  23  26
ATOM     26  C   UNL     1       6.906   4.596  15.803  0.00  0.00    +0.000 C 
ATOM     27  C   UNL     1       6.759   4.440  14.298  0.00  0.00    +0.000 C 
ENDBRANCH  23  26
ENDBRANCH  22  23
ENDBRANCH  21  22
ENDBRANCH   1  21
BRANCH   6  28
ATOM     28  O   UNL     1       0.381  11.260  19.966  0.00  0.00    +0.000 OA
BRANCH  28  29
ATOM     29  C   UNL     1       0.115  11.492  18.574  0.00  0.00    +0.000 C 
BRANCH  29  30
ATOM     30  C   UNL     1      -1.310  11.158  18.278  0.00  0.00    +0.000 A 
ATOM     31  C   UNL     1      -1.612  10.081  17.439  0.00  0.00    +0.000 A 
ATOM     32  C   UNL     1      -2.937   9.778  17.147  0.00  0.00    +0.000 A 
ATOM     33  C   UNL     1      -3.965  10.545  17.697  0.00  0.00    +0.000 A 
ATOM     34  C   UNL     1      -3.668  11.614  18.545  0.00  0.00    +0.000 A 
ATOM     35  C   UNL     1      -2.347  11.919  18.835  0.00  0.00    +0.000 A 
ENDBRANCH  29  30
ENDBRANCH  28  29
ENDBRANCH   6  28
TORSDOF 9
ENDMDL
MODEL 5
REMARK VINA RESULT:      -7.8      0.980      1.652
REMARK  Name = 
REMARK  11 active torsions:
REMARK  status: ('A' for Active; 'I' for Inactive)
REMARK    1  A    between atoms: C_1  and  C_2
REMARK    2  A    between atoms: C_2  and  N_3
REMARK    3  A    between atoms: N_3  and  C_4
REMARK    4  A    between atoms: N_3  and  C_6
REMARK    5  A    between atoms: C_4  and  C_5
REMARK    6  A    between atoms: C_6  and  C_7
REMARK    7  A    between atoms: C_7  and  N_8
REMARK    8  A    between atoms: C_13  and  O_14
REMARK    9  A    between atoms: O_14  and  C_15
REMARK   10  A    between atoms: C_15  and  C_16
REMARK   11  A    between atoms: C_27  and  N_28
REMARK                            x       y       z     vdW  Elec       q    Type
REMARK                         _______ _______ _______ _____ _____    ______ ____
ROOT
ATOM      1  N   UNL     1       4.356   6.384  17.548  0.00  0.00    +0.000 N 
ATOM      2  N   UNL     1       3.589   7.495  17.958  0.00  0.00    +0.000 N 
ATOM      3  C   UNL     1       2.761   7.080  19.002  0.00  0.00    +0.000 A 
ATOM      4  C   UNL     1       1.878   7.788  19.787  0.00  0.00    +0.000 A 
ATOM      5  C   UNL     1       1.706   9.137  19.553  0.00  0.00    +0.000 A 
ATOM      6  C   UNL     1       0.714   9.812  20.237  0.00  0.00    +0.000 A 
ATOM      7  C   UNL     1       0.003   9.155  21.239  0.00  0.00    +0.000 A 
ATOM      8  C   UNL     1       0.234   7.786  21.490  0.00  0.00    +0.000 A 
ATOM      9  C   UNL     1       1.162   7.054  20.754  0.00  0.00    +0.000 A 
ATOM     10  N   UNL     1       1.367   5.719  20.943  0.00  0.00    +0.000 NA
ATOM     11  C   UNL     1       2.283   5.051  20.167  0.00  0.00    +0.000 A 
ATOM     12  C   UNL     1       2.683   3.717  20.215  0.00  0.00    +0.000 A 
ATOM     13  C   UNL     1       3.636   3.151  19.320  0.00  0.00    +0.000 A 
ATOM     14  C   UNL     1       4.266   3.935  18.319  0.00  0.00    +0.000 A 
ATOM     15  C   UNL     1       3.902   5.273  18.298  0.00  0.00    +0.000 A 
ATOM     16  C   UNL     1       2.946   5.738  19.196  0.00  0.00    +0.000 A 
ATOM     17  H   UNL     1       4.060   8.399  17.945  0.00  0.00    +0.000 HD
ENDROOT
BRANCH  12  18
ATOM     18  N   UNL     1       2.124   2.888  21.257  0.00  0.00    +0.000 N 
ATOM     19  O   UNL     1       0.914   2.629  21.197  0.00  0.00    +0.000 OA
ATOM     20  O   UNL     1       2.883   2.563  22.180  0.00  0.00    +0.000 OA
ENDBRANCH  12  18
BRANCH   1  21
ATOM     21  C   UNL     1       4.925   6.465  16.190  0.00  0.00    +0.000 C 
BRANCH  21  22
ATOM     22  C   UNL     1       6.444   6.745  16.210  0.00  0.00    +0.000 C 
BRANCH  22  23
ATOM     23  N   UNL     1       7.036   7.205  17.501  0.00  0.00    +0.000 NA
BRANCH  23  25
ATOM     24  C   UNL     1       7.304   5.635  19.494  0.00  0.00    +0.000 C 
ATOM     25  C   UNL     1       7.792   6.095  18.119  0.00  0.00    +0.000 C 
ENDBRANCH  23  25
BRANCH  23  26
ATOM     26  C   UNL     1       7.775   8.469  17.432  0.00  0.00    +0.000 C 
ATOM     27  C   UNL     1       8.570   8.852  18.671  0.00  0.00    +0.000 C 
ENDBRANCH  23  26
ENDBRANCH  22  23
ENDBRANCH  21  22
ENDBRANCH   1  21
BRANCH   6  28
ATOM     28  O   UNL     1       0.386  11.112  19.959  0.00  0.00    +0.000 OA
BRANCH  28  29
ATOM     29  C   UNL     1       0.152  11.343  18.562  0.00  0.00    +0.000 C 
BRANCH  29  30
ATOM     30  C   UNL     1      -1.284  11.084  18.248  0.00  0.00    +0.000 A 
ATOM     31  C   UNL     1      -2.276  11.897  18.806  0.00  0.00    +0.000 A 
ATOM     32  C   UNL     1      -3.615  11.649  18.529  0.00  0.00    +0.000 A 
ATOM     33  C   UNL     1      -3.970  10.593  17.690  0.00  0.00    +0.000 A 
ATOM     34  C   UNL     1      -2.982   9.786  17.121  0.00  0.00    +0.000 A 
ATOM     35  C   UNL     1      -1.646  10.030  17.397  0.00  0.00    +0.000 A 
ENDBRANCH  29  30
ENDBRANCH  28  29
ENDBRANCH   6  28
TORSDOF 9
ENDMDL
MODEL 6
REMARK VINA RESULT:      -7.7      1.770      2.918
REMARK  Name = 
REMARK  11 active torsions:
REMARK  status: ('A' for Active; 'I' for Inactive)
REMARK    1  A    between atoms: C_1  and  C_2
REMARK    2  A    between atoms: C_2  and  N_3
REMARK    3  A    between atoms: N_3  and  C_4
REMARK    4  A    between atoms: N_3  and  C_6
REMARK    5  A    between atoms: C_4  and  C_5
REMARK    6  A    between atoms: C_6  and  C_7
REMARK    7  A    between atoms: C_7  and  N_8
REMARK    8  A    between atoms: C_13  and  O_14
REMARK    9  A    between atoms: O_14  and  C_15
REMARK   10  A    between atoms: C_15  and  C_16
REMARK   11  A    between atoms: C_27  and  N_28
REMARK                            x       y       z     vdW  Elec       q    Type
REMARK                         _______ _______ _______ _____ _____    ______ ____
ROOT
ATOM      1  N   UNL     1       4.392   6.461  17.554  0.00  0.00    +0.000 N 
ATOM      2  N   UNL     1       3.640   7.612  17.870  0.00  0.00    +0.000 N 
ATOM      3  C   UNL     1       2.766   7.279  18.905  0.00  0.00    +0.000 A 
ATOM      4  C   UNL     1       1.874   8.052  19.616  0.00  0.00    +0.000 A 
ATOM      5  C   UNL     1       1.746   9.389  19.298  0.00  0.00    +0.000 A 
ATOM      6  C   UNL     1       0.749  10.127  19.906  0.00  0.00    +0.000 A 
ATOM      7  C   UNL     1      -0.014   9.547  20.917  0.00  0.00    +0.000 A 
ATOM      8  C   UNL     1       0.172   8.189  21.255  0.00  0.00    +0.000 A 
ATOM      9  C   UNL     1       1.106   7.393  20.597  0.00  0.00    +0.000 A 
ATOM     10  N   UNL     1       1.270   6.068  20.869  0.00  0.00    +0.000 NA
ATOM     11  C   UNL     1       2.194   5.333  20.167  0.00  0.00    +0.000 A 
ATOM     12  C   UNL     1       2.557   3.995  20.306  0.00  0.00    +0.000 A 
ATOM     13  C   UNL     1       3.526   3.355  19.481  0.00  0.00    +0.000 A 
ATOM     14  C   UNL     1       4.211   4.064  18.460  0.00  0.00    +0.000 A 
ATOM     15  C   UNL     1       3.883   5.406  18.348  0.00  0.00    +0.000 A 
ATOM     16  C   UNL     1       2.909   5.946  19.183  0.00  0.00    +0.000 A 
ATOM     17  H   UNL     1       4.135   8.502  17.823  0.00  0.00    +0.000 HD
ENDROOT
BRANCH  12  18
ATOM     18  N   UNL     1       1.940   3.242  21.373  0.00  0.00    +0.000 N 
ATOM     19  O   UNL     1       0.852   2.700  21.138  0.00  0.00    +0.000 OA
ATOM     20  O   UNL     1       2.510   3.262  22.473  0.00  0.00    +0.000 OA
ENDBRANCH  12  18
BRANCH   1  21
ATOM     21  C   UNL     1       5.010   6.448  16.215  0.00  0.00    +0.000 C 
BRANCH  21  22
ATOM     22  C   UNL     1       6.550   6.352  16.285  0.00  0.00    +0.000 C 
BRANCH  22  23
ATOM     23  N   UNL     1       7.153   4.989  16.205  0.00  0.00    +0.000 NA
BRANCH  23  25
ATOM     24  C   UNL     1       7.710   5.688  18.594  0.00  0.00    +0.000 C 
ATOM     25  C   UNL     1       7.616   4.576  17.546  0.00  0.00    +0.000 C 
ENDBRANCH  23  25
BRANCH  23  26
ATOM     26  C   UNL     1       6.335   3.985  15.518  0.00  0.00    +0.000 C 
ATOM     27  C   UNL     1       6.350   4.029  13.998  0.00  0.00    +0.000 C 
ENDBRANCH  23  26
ENDBRANCH  22  23
ENDBRANCH  21  22
ENDBRANCH   1  21
BRANCH   6  28
ATOM     28  O   UNL     1       0.465  11.415  19.542  0.00  0.00    +0.000 OA
BRANCH  28  29
ATOM     29  C   UNL     1       1.471  11.992  18.695  0.00  0.00    +0.000 C 
BRANCH  29  30
ATOM     30  C   UNL     1       1.333  13.478  18.699  0.00  0.00    +0.000 A 
ATOM     31  C   UNL     1       0.066  14.059  18.819  0.00  0.00    +0.000 A 
ATOM     32  C   UNL     1      -0.069  15.442  18.806  0.00  0.00    +0.000 A 
ATOM     33  C   UNL     1       1.060  16.251  18.679  0.00  0.00    +0.000 A 
ATOM     34  C   UNL     1       2.328  15.676  18.571  0.00  0.00    +0.000 A 
ATOM     35  C   UNL     1       2.465  14.297  18.582  0.00  0.00    +0.000 A 
ENDBRANCH  29  30
ENDBRANCH  28  29
ENDBRANCH   6  28
TORSDOF 9
ENDMDL
MODEL 7
REMARK VINA RESULT:      -7.6      1.834      3.288
REMARK  Name = 
REMARK  11 active torsions:
REMARK  status: ('A' for Active; 'I' for Inactive)
REMARK    1  A    between atoms: C_1  and  C_2
REMARK    2  A    between atoms: C_2  and  N_3
REMARK    3  A    between atoms: N_3  and  C_4
REMARK    4  A    between atoms: N_3  and  C_6
REMARK    5  A    between atoms: C_4  and  C_5
REMARK    6  A    between atoms: C_6  and  C_7
REMARK    7  A    between atoms: C_7  and  N_8
REMARK    8  A    between atoms: C_13  and  O_14
REMARK    9  A    between atoms: O_14  and  C_15
REMARK   10  A    between atoms: C_15  and  C_16
REMARK   11  A    between atoms: C_27  and  N_28
REMARK                            x       y       z     vdW  Elec       q    Type
REMARK                         _______ _______ _______ _____ _____    ______ ____
ROOT
ATOM      1  N   UNL     1       4.342   6.450  17.545  0.00  0.00    +0.000 N 
ATOM      2  N   UNL     1       3.600   7.610  17.852  0.00  0.00    +0.000 N 
ATOM      3  C   UNL     1       2.742   7.300  18.908  0.00  0.00    +0.000 A 
ATOM      4  C   UNL     1       1.865   8.090  19.619  0.00  0.00    +0.000 A 
ATOM      5  C   UNL     1       1.736   9.421  19.277  0.00  0.00    +0.000 A 
ATOM      6  C   UNL     1       0.752  10.174  19.887  0.00  0.00    +0.000 A 
ATOM      7  C   UNL     1       0.005   9.616  20.923  0.00  0.00    +0.000 A 
ATOM      8  C   UNL     1       0.191   8.265  21.283  0.00  0.00    +0.000 A 
ATOM      9  C   UNL     1       1.112   7.453  20.625  0.00  0.00    +0.000 A 
ATOM     10  N   UNL     1       1.275   6.132  20.920  0.00  0.00    +0.000 NA
ATOM     11  C   UNL     1       2.184   5.381  20.216  0.00  0.00    +0.000 A 
ATOM     12  C   UNL     1       2.546   4.044  20.375  0.00  0.00    +0.000 A 
ATOM     13  C   UNL     1       3.497   3.385  19.546  0.00  0.00    +0.000 A 
ATOM     14  C   UNL     1       4.168   4.071  18.501  0.00  0.00    +0.000 A 
ATOM     15  C   UNL     1       3.843   5.413  18.368  0.00  0.00    +0.000 A 
ATOM     16  C   UNL     1       2.885   5.972  19.209  0.00  0.00    +0.000 A 
ATOM     17  H   UNL     1       4.097   8.497  17.779  0.00  0.00    +0.000 HD
ENDROOT
BRANCH  12  18
ATOM     18  N   UNL     1       1.944   3.314  21.466  0.00  0.00    +0.000 N 
ATOM     19  O   UNL     1       2.483   3.396  22.578  0.00  0.00    +0.000 OA
ATOM     20  O   UNL     1       0.974   2.595  21.189  0.00  0.00    +0.000 OA
ENDBRANCH  12  18
BRANCH   1  21
ATOM     21  C   UNL     1       4.937   6.409  16.197  0.00  0.00    +0.000 C 
BRANCH  21  22
ATOM     22  C   UNL     1       6.482   6.405  16.241  0.00  0.00    +0.000 C 
BRANCH  22  23
ATOM     23  N   UNL     1       7.163   5.081  16.138  0.00  0.00    +0.000 NA
BRANCH  23  25
ATOM     24  C   UNL     1       7.719   5.746  18.538  0.00  0.00    +0.000 C 
ATOM     25  C   UNL     1       7.595   4.644  17.483  0.00  0.00    +0.000 C 
ENDBRANCH  23  25
BRANCH  23  26
ATOM     26  C   UNL     1       6.431   4.060  15.382  0.00  0.00    +0.000 C 
ATOM     27  C   UNL     1       6.569   4.115  13.869  0.00  0.00    +0.000 C 
ENDBRANCH  23  26
ENDBRANCH  22  23
ENDBRANCH  21  22
ENDBRANCH   1  21
BRANCH   6  28
ATOM     28  O   UNL     1       0.467  11.456  19.503  0.00  0.00    +0.000 OA
BRANCH  28  29
ATOM     29  C   UNL     1       0.777  12.426  20.516  0.00  0.00    +0.000 C 
BRANCH  29  30
ATOM     30  C   UNL     1       1.933  13.259  20.071  0.00  0.00    +0.000 A 
ATOM     31  C   UNL     1       2.609  14.061  20.995  0.00  0.00    +0.000 A 
ATOM     32  C   UNL     1       3.676  14.851  20.582  0.00  0.00    +0.000 A 
ATOM     33  C   UNL     1       4.074  14.839  19.245  0.00  0.00    +0.000 A 
ATOM     34  C   UNL     1       3.409  14.031  18.320  0.00  0.00    +0.000 A 
ATOM     35  C   UNL     1       2.344  13.244  18.730  0.00  0.00    +0.000 A 
ENDBRANCH  29  30
ENDBRANCH  28  29
ENDBRANCH   6  28
TORSDOF 9
ENDMDL
MODEL 8
REMARK VINA RESULT:      -7.5      0.960      1.577
REMARK  Name = 
REMARK  11 active torsions:
REMARK  status: ('A' for Active; 'I' for Inactive)
REMARK    1  A    between atoms: C_1  and  C_2
REMARK    2  A    between atoms: C_2  and  N_3
REMARK    3  A    between atoms: N_3  and  C_4
REMARK    4  A    between atoms: N_3  and  C_6
REMARK    5  A    between atoms: C_4  and  C_5
REMARK    6  A    between atoms: C_6  and  C_7
REMARK    7  A    between atoms: C_7  and  N_8
REMARK    8  A    between atoms: C_13  and  O_14
REMARK    9  A    between atoms: O_14  and  C_15
REMARK   10  A    between atoms: C_15  and  C_16
REMARK   11  A    between atoms: C_27  and  N_28
REMARK                            x       y       z     vdW  Elec       q    Type
REMARK                         _______ _______ _______ _____ _____    ______ ____
ROOT
ATOM      1  N   UNL     1       4.377   6.357  17.273  0.00  0.00    +0.000 N 
ATOM      2  N   UNL     1       3.635   7.467  17.728  0.00  0.00    +0.000 N 
ATOM      3  C   UNL     1       2.847   7.043  18.799  0.00  0.00    +0.000 A 
ATOM      4  C   UNL     1       2.002   7.745  19.630  0.00  0.00    +0.000 A 
ATOM      5  C   UNL     1       1.829   9.099  19.420  0.00  0.00    +0.000 A 
ATOM      6  C   UNL     1       0.870   9.770  20.154  0.00  0.00    +0.000 A 
ATOM      7  C   UNL     1       0.196   9.103  21.175  0.00  0.00    +0.000 A 
ATOM      8  C   UNL     1       0.428   7.729  21.398  0.00  0.00    +0.000 A 
ATOM      9  C   UNL     1       1.321   7.002  20.615  0.00  0.00    +0.000 A 
ATOM     10  N   UNL     1       1.525   5.664  20.777  0.00  0.00    +0.000 NA
ATOM     11  C   UNL     1       2.403   5.000  19.956  0.00  0.00    +0.000 A 
ATOM     12  C   UNL     1       2.797   3.664  19.969  0.00  0.00    +0.000 A 
ATOM     13  C   UNL     1       3.708   3.104  19.029  0.00  0.00    +0.000 A 
ATOM     14  C   UNL     1       4.302   3.898  18.014  0.00  0.00    +0.000 A 
ATOM     15  C   UNL     1       3.947   5.238  18.025  0.00  0.00    +0.000 A 
ATOM     16  C   UNL     1       3.031   5.697  18.968  0.00  0.00    +0.000 A 
ATOM     17  H   UNL     1       4.111   8.368  17.708  0.00  0.00    +0.000 HD
ENDROOT
BRANCH  12  18
ATOM     18  N   UNL     1       2.275   2.824  21.021  0.00  0.00    +0.000 N 
ATOM     19  O   UNL     1       3.027   2.556  21.969  0.00  0.00    +0.000 OA
ATOM     20  O   UNL     1       1.134   2.368  20.859  0.00  0.00    +0.000 OA
ENDBRANCH  12  18
BRANCH   1  21
ATOM     21  C   UNL     1       4.891   6.453  15.894  0.00  0.00    +0.000 C 
BRANCH  21  22
ATOM     22  C   UNL     1       6.163   5.602  15.685  0.00  0.00    +0.000 C 
BRANCH  22  23
ATOM     23  N   UNL     1       6.431   5.102  14.305  0.00  0.00    +0.000 NA
BRANCH  23  25
ATOM     24  C   UNL     1       8.206   5.774  12.600  0.00  0.00    +0.000 C 
ATOM     25  C   UNL     1       7.869   5.249  13.998  0.00  0.00    +0.000 C 
ENDBRANCH  23  25
BRANCH  23  26
ATOM     26  C   UNL     1       5.887   3.774  14.007  0.00  0.00    +0.000 C 
ATOM     27  C   UNL     1       5.431   3.538  12.575  0.00  0.00    +0.000 C 
ENDBRANCH  23  26
ENDBRANCH  22  23
ENDBRANCH  21  22
ENDBRANCH   1  21
BRANCH   6  28
ATOM     28  O   UNL     1       0.540  11.075  19.907  0.00  0.00    +0.000 OA
BRANCH  28  29
ATOM     29  C   UNL     1       0.264  11.330  18.521  0.00  0.00    +0.000 C 
BRANCH  29  30
ATOM     30  C   UNL     1      -1.182  11.080  18.247  0.00  0.00    +0.000 A 
ATOM     31  C   UNL     1      -2.152  11.909  18.819  0.00  0.00    +0.000 A 
ATOM     32  C   UNL     1      -3.500  11.670  18.580  0.00  0.00    +0.000 A 
ATOM     33  C   UNL     1      -3.885  10.606  17.764  0.00  0.00    +0.000 A 
ATOM     34  C   UNL     1      -2.920   9.783  17.181  0.00  0.00    +0.000 A 
ATOM     35  C   UNL     1      -1.574  10.018  17.420  0.00  0.00    +0.000 A 
ENDBRANCH  29  30
ENDBRANCH  28  29
ENDBRANCH   6  28
TORSDOF 9
ENDMDL
MODEL 9
REMARK VINA RESULT:      -7.5      1.808      2.636
REMARK  Name = 
REMARK  11 active torsions:
REMARK  status: ('A' for Active; 'I' for Inactive)
REMARK    1  A    between atoms: C_1  and  C_2
REMARK    2  A    between atoms: C_2  and  N_3
REMARK    3  A    between atoms: N_3  and  C_4
REMARK    4  A    between atoms: N_3  and  C_6
REMARK    5  A    between atoms: C_4  and  C_5
REMARK    6  A    between atoms: C_6  and  C_7
REMARK    7  A    between atoms: C_7  and  N_8
REMARK    8  A    between atoms: C_13  and  O_14
REMARK    9  A    between atoms: O_14  and  C_15
REMARK   10  A    between atoms: C_15  and  C_16
REMARK   11  A    between atoms: C_27  and  N_28
REMARK                            x       y       z     vdW  Elec       q    Type
REMARK                         _______ _______ _______ _____ _____    ______ ____
ROOT
ATOM      1  N   UNL     1       4.404   6.292  17.476  0.00  0.00    +0.000 N 
ATOM      2  N   UNL     1       3.650   7.420  17.862  0.00  0.00    +0.000 N 
ATOM      3  C   UNL     1       2.817   7.037  18.913  0.00  0.00    +0.000 A 
ATOM      4  C   UNL     1       1.941   7.771  19.684  0.00  0.00    +0.000 A 
ATOM      5  C   UNL     1       1.786   9.117  19.422  0.00  0.00    +0.000 A 
ATOM      6  C   UNL     1       0.802   9.818  20.091  0.00  0.00    +0.000 A 
ATOM      7  C   UNL     1       0.082   9.190  21.106  0.00  0.00    +0.000 A 
ATOM      8  C   UNL     1       0.295   7.823  21.384  0.00  0.00    +0.000 A 
ATOM      9  C   UNL     1       1.216   7.065  20.664  0.00  0.00    +0.000 A 
ATOM     10  N   UNL     1       1.404   5.732  20.880  0.00  0.00    +0.000 NA
ATOM     11  C   UNL     1       2.311   5.037  20.119  0.00  0.00    +0.000 A 
ATOM     12  C   UNL     1       2.695   3.699  20.193  0.00  0.00    +0.000 A 
ATOM     13  C   UNL     1       3.641   3.104  19.311  0.00  0.00    +0.000 A 
ATOM     14  C   UNL     1       4.282   3.860  18.296  0.00  0.00    +0.000 A 
ATOM     15  C   UNL     1       3.935   5.201  18.247  0.00  0.00    +0.000 A 
ATOM     16  C   UNL     1       2.984   5.696  19.135  0.00  0.00    +0.000 A 
ATOM     17  H   UNL     1       4.133   8.318  17.832  0.00  0.00    +0.000 HD
ENDROOT
BRANCH  12  18
ATOM     18  N   UNL     1       2.124   2.899  21.251  0.00  0.00    +0.000 N 
ATOM     19  O   UNL     1       0.898   2.721  21.239  0.00  0.00    +0.000 OA
ATOM     20  O   UNL     1       2.897   2.515  22.140  0.00  0.00    +0.000 OA
ENDBRANCH  12  18
BRANCH   1  21
ATOM     21  C   UNL     1       4.975   6.338  16.118  0.00  0.00    +0.000 C 
BRANCH  21  22
ATOM     22  C   UNL     1       6.519   6.291  16.133  0.00  0.00    +0.000 C 
BRANCH  22  23
ATOM     23  N   UNL     1       7.161   4.947  16.039  0.00  0.00    +0.000 NA
BRANCH  23  25
ATOM     24  C   UNL     1       7.707   5.627  18.436  0.00  0.00    +0.000 C 
ATOM     25  C   UNL     1       7.613   4.523  17.382  0.00  0.00    +0.000 C 
ENDBRANCH  23  25
BRANCH  23  26
ATOM     26  C   UNL     1       6.383   3.933  15.321  0.00  0.00    +0.000 C 
ATOM     27  C   UNL     1       6.395   4.026  13.803  0.00  0.00    +0.000 C 
ENDBRANCH  23  26
ENDBRANCH  22  23
ENDBRANCH  21  22
ENDBRANCH   1  21
BRANCH   6  28
ATOM     28  O   UNL     1       0.491  11.116  19.787  0.00  0.00    +0.000 OA
BRANCH  28  29
ATOM     29  C   UNL     1       0.846  12.036  20.830  0.00  0.00    +0.000 C 
BRANCH  29  30
ATOM     30  C   UNL     1      -0.385  12.709  21.340  0.00  0.00    +0.000 A 
ATOM     31  C   UNL     1      -1.020  13.681  20.560  0.00  0.00    +0.000 A 
ATOM     32  C   UNL     1      -2.157  14.323  21.038  0.00  0.00    +0.000 A 
ATOM     33  C   UNL     1      -2.668  13.992  22.293  0.00  0.00    +0.000 A 
ATOM     34  C   UNL     1      -2.044  13.013  23.070  0.00  0.00    +0.000 A 
ATOM     35  C   UNL     1      -0.909  12.374  22.597  0.00  0.00    +0.000 A 
ENDBRANCH  29  30
ENDBRANCH  28  29
ENDBRANCH   6  28
TORSDOF 9
ENDMDL
