MODEL 1
REMARK VINA RESULT:      -7.3      0.000      0.000
REMARK  Name = 
REMARK  4 active torsions:
REMARK  status: ('A' for Active; 'I' for Inactive)
REMARK    1  A    between atoms: C_2  and  N_3
REMARK    2  A    between atoms: C_2  and  N_12
REMARK    3  A    between atoms: N_3  and  N_4
REMARK    4  A    between atoms: N_12  and  C_13
REMARK                            x       y       z     vdW  Elec       q    Type
REMARK                         _______ _______ _______ _____ _____    ______ ____
ROOT
ATOM      1  N   UNL     1       6.864   4.363  18.416  0.00  0.00    +0.000 N 
ATOM      2  H   UNL     1       7.456   3.528  18.538  0.00  0.00    +0.000 HD
ENDROOT
BRANCH   1   3
ATOM      3  N   UNL     1       5.767   4.543  19.230  0.00  0.00    +0.000 NA
ATOM      4  C   UNL     1       4.626   3.950  19.069  0.00  0.00    +0.000 C 
ATOM      5  N   UNL     1       3.549   4.390  19.892  0.00  0.00    +0.000 N 
ATOM      6  C   UNL     1       2.155   4.402  19.490  0.00  0.00    +0.000 C 
ATOM      7  C   UNL     1       1.539   3.026  19.309  0.00  0.00    +0.000 C 
ATOM      8  C   UNL     1       2.042   2.306  18.065  0.00  0.00    +0.000 C 
ATOM      9  C   UNL     1       3.483   1.832  18.189  0.00  0.00    +0.000 C 
ATOM     10  N   UNL     1       4.483   2.882  18.120  0.00  0.00    +0.000 N 
ATOM     11  H   UNL     1       3.784   4.976  20.708  0.00  0.00    +0.000 HD
ATOM     12  H   UNL     1       5.263   2.663  17.489  0.00  0.00    +0.000 HD
ENDBRANCH   1   3
BRANCH   1  14
ATOM     13  S   UNL     1       7.207   6.693  17.617  0.00  0.00    +0.000 S 
ATOM     14  C   UNL     1       7.184   5.272  17.361  0.00  0.00    +0.000 C 
BRANCH  14  15
ATOM     15  N   UNL     1       7.729   4.775  16.137  0.00  0.00    +0.000 N 
ATOM     16  H   UNL     1       8.749   4.631  16.072  0.00  0.00    +0.000 HD
BRANCH  15  17
ATOM     17  C   UNL     1       6.941   4.443  14.991  0.00  0.00    +0.000 A 
ATOM     18  C   UNL     1       7.482   4.455  13.688  0.00  0.00    +0.000 A 
ATOM     19  C   UNL     1       6.691   4.104  12.588  0.00  0.00    +0.000 A 
ATOM     20  C   UNL     1       5.352   3.750  12.773  0.00  0.00    +0.000 A 
ATOM     21 CL   UNL     1       4.357   3.328  11.391  0.00  0.00    +0.000 Cl
ATOM     22  C   UNL     1       4.810   3.726  14.061  0.00  0.00    +0.000 A 
ATOM     23  C   UNL     1       5.603   4.055  15.165  0.00  0.00    +0.000 A 
ENDBRANCH  15  17
ENDBRANCH  14  15
ENDBRANCH   1  14
TORSDOF 4
ENDMDL
MODEL 2
REMARK VINA RESULT:      -7.1      0.294      1.147
REMARK  Name = 
REMARK  4 active torsions:
REMARK  status: ('A' for Active; 'I' for Inactive)
REMARK    1  A    between atoms: C_2  and  N_3
REMARK    2  A    between atoms: C_2  and  N_12
REMARK    3  A    between atoms: N_3  and  N_4
REMARK    4  A    between atoms: N_12  and  C_13
REMARK                            x       y       z     vdW  Elec       q    Type
REMARK                         _______ _______ _______ _____ _____    ______ ____
ROOT
ATOM      1  N   UNL     1       6.699   4.159  18.099  0.00  0.00    +0.000 N 
ATOM      2  H   UNL     1       7.056   3.226  17.843  0.00  0.00    +0.000 HD
ENDROOT
BRANCH   1   3
ATOM      3  N   UNL     1       5.746   4.273  19.087  0.00  0.00    +0.000 NA
ATOM      4  C   UNL     1       4.569   3.730  19.042  0.00  0.00    +0.000 C 
ATOM      5  N   UNL     1       3.648   4.102  20.064  0.00  0.00    +0.000 N 
ATOM      6  C   UNL     1       2.212   4.192  19.887  0.00  0.00    +0.000 C 
ATOM      7  C   UNL     1       1.519   2.861  19.657  0.00  0.00    +0.000 C 
ATOM      8  C   UNL     1       1.798   2.273  18.280  0.00  0.00    +0.000 C 
ATOM      9  C   UNL     1       3.220   1.753  18.127  0.00  0.00    +0.000 C 
ATOM     10  N   UNL     1       4.240   2.780  18.018  0.00  0.00    +0.000 N 
ATOM     11  H   UNL     1       4.029   4.585  20.892  0.00  0.00    +0.000 HD
ATOM     12  H   UNL     1       4.906   2.614  17.253  0.00  0.00    +0.000 HD
ENDBRANCH   1   3
BRANCH   1  14
ATOM     13  S   UNL     1       7.400   6.544  18.049  0.00  0.00    +0.000 S 
ATOM     14  C   UNL     1       7.175   5.291  17.368  0.00  0.00    +0.000 C 
BRANCH  14  15
ATOM     15  N   UNL     1       7.669   5.120  16.038  0.00  0.00    +0.000 N 
ATOM     16  H   UNL     1       8.660   5.340  15.846  0.00  0.00    +0.000 HD
BRANCH  15  17
ATOM     17  C   UNL     1       6.877   4.643  14.949  0.00  0.00    +0.000 A 
ATOM     18  C   UNL     1       5.509   4.330  15.104  0.00  0.00    +0.000 A 
ATOM     19  C   UNL     1       4.755   3.886  14.013  0.00  0.00    +0.000 A 
ATOM     20  C   UNL     1       5.355   3.737  12.760  0.00  0.00    +0.000 A 
ATOM     21 CL   UNL     1       4.412   3.163  11.397  0.00  0.00    +0.000 Cl
ATOM     22  C   UNL     1       6.706   4.054  12.594  0.00  0.00    +0.000 A 
ATOM     23  C   UNL     1       7.458   4.518  13.677  0.00  0.00    +0.000 A 
ENDBRANCH  15  17
ENDBRANCH  14  15
ENDBRANCH   1  14
TORSDOF 4
ENDMDL
MODEL 3
REMARK VINA RESULT:      -7.0      1.162      1.707
REMARK  Name = 
REMARK  4 active torsions:
REMARK  status: ('A' for Active; 'I' for Inactive)
REMARK    1  A    between atoms: C_2  and  N_3
REMARK    2  A    between atoms: C_2  and  N_12
REMARK    3  A    between atoms: N_3  and  N_4
REMARK    4  A    between atoms: N_12  and  C_13
REMARK                            x       y       z     vdW  Elec       q    Type
REMARK                         _______ _______ _______ _____ _____    ______ ____
ROOT
ATOM      1  N   UNL     1       6.751   4.981  18.856  0.00  0.00    +0.000 N 
ATOM      2  H   UNL     1       7.311   5.224  19.687  0.00  0.00    +0.000 HD
ENDROOT
BRANCH   1   3
ATOM      3  N   UNL     1       5.765   4.025  18.957  0.00  0.00    +0.000 NA
ATOM      4  C   UNL     1       4.559   4.254  19.376  0.00  0.00    +0.000 C 
ATOM      5  N   UNL     1       3.725   3.118  19.589  0.00  0.00    +0.000 N 
ATOM      6  C   UNL     1       2.694   3.031  20.605  0.00  0.00    +0.000 C 
ATOM      7  C   UNL     1       1.502   3.944  20.376  0.00  0.00    +0.000 C 
ATOM      8  C   UNL     1       1.821   5.413  20.619  0.00  0.00    +0.000 C 
ATOM      9  C   UNL     1       2.709   6.019  19.542  0.00  0.00    +0.000 C 
ATOM     10  N   UNL     1       4.098   5.597  19.582  0.00  0.00    +0.000 N 
ATOM     11  H   UNL     1       4.035   2.220  19.188  0.00  0.00    +0.000 HD
ATOM     12  H   UNL     1       4.763   6.376  19.502  0.00  0.00    +0.000 HD
ENDBRANCH   1   3
BRANCH   1  14
ATOM     13  S   UNL     1       7.095   7.057  17.530  0.00  0.00    +0.000 S 
ATOM     14  C   UNL     1       7.069   5.616  17.615  0.00  0.00    +0.000 C 
BRANCH  14  15
ATOM     15  N   UNL     1       7.606   4.843  16.541  0.00  0.00    +0.000 N 
ATOM     16  H   UNL     1       8.568   4.476  16.627  0.00  0.00    +0.000 HD
BRANCH  15  17
ATOM     17  C   UNL     1       6.885   4.526  15.348  0.00  0.00    +0.000 A 
ATOM     18  C   UNL     1       7.495   4.569  14.076  0.00  0.00    +0.000 A 
ATOM     19  C   UNL     1       6.768   4.232  12.929  0.00  0.00    +0.000 A 
ATOM     20  C   UNL     1       5.425   3.860  13.035  0.00  0.00    +0.000 A 
ATOM     21 CL   UNL     1       4.510   3.455  11.593  0.00  0.00    +0.000 Cl
ATOM     22  C   UNL     1       4.815   3.806  14.291  0.00  0.00    +0.000 A 
ATOM     23  C   UNL     1       5.544   4.122  15.441  0.00  0.00    +0.000 A 
ENDBRANCH  15  17
ENDBRANCH  14  15
ENDBRANCH   1  14
TORSDOF 4
ENDMDL
MODEL 4
REMARK VINA RESULT:      -7.0      1.079      1.629
REMARK  Name = 
REMARK  4 active torsions:
REMARK  status: ('A' for Active; 'I' for Inactive)
REMARK    1  A    between atoms: C_2  and  N_3
REMARK    2  A    between atoms: C_2  and  N_12
REMARK    3  A    between atoms: N_3  and  N_4
REMARK    4  A    between atoms: N_12  and  C_13
REMARK                            x       y       z     vdW  Elec       q    Type
REMARK                         _______ _______ _______ _____ _____    ______ ____
ROOT
ATOM      1  N   UNL     1       6.267   5.833  19.015  0.00  0.00    +0.000 N 
ATOM      2  H   UNL     1       6.720   5.704  19.932  0.00  0.00    +0.000 HD
ENDROOT
BRANCH   1   3
ATOM      3  N   UNL     1       4.903   5.675  18.902  0.00  0.00    +0.000 NA
ATOM      4  C   UNL     1       4.296   4.530  18.865  0.00  0.00    +0.000 C 
ATOM      5  N   UNL     1       2.904   4.548  18.562  0.00  0.00    +0.000 N 
ATOM      6  C   UNL     1       2.203   3.503  17.841  0.00  0.00    +0.000 C 
ATOM      7  C   UNL     1       2.088   2.187  18.590  0.00  0.00    +0.000 C 
ATOM      8  C   UNL     1       3.410   1.436  18.683  0.00  0.00    +0.000 C 
ATOM      9  C   UNL     1       4.402   2.088  19.635  0.00  0.00    +0.000 C 
ATOM     10  N   UNL     1       5.007   3.314  19.147  0.00  0.00    +0.000 N 
ATOM     11  H   UNL     1       2.418   5.456  18.618  0.00  0.00    +0.000 HD
ATOM     12  H   UNL     1       6.026   3.345  19.271  0.00  0.00    +0.000 HD
ENDBRANCH   1   3
BRANCH   1  14
ATOM     13  S   UNL     1       7.649   7.441  17.714  0.00  0.00    +0.000 S 
ATOM     14  C   UNL     1       7.095   6.119  17.885  0.00  0.00    +0.000 C 
BRANCH  14  15
ATOM     15  N   UNL     1       7.581   5.047  17.074  0.00  0.00    +0.000 N 
ATOM     16  H   UNL     1       8.414   4.525  17.391  0.00  0.00    +0.000 HD
BRANCH  15  17
ATOM     17  C   UNL     1       6.973   4.636  15.847  0.00  0.00    +0.000 A 
ATOM     18  C   UNL     1       5.805   3.844  15.825  0.00  0.00    +0.000 A 
ATOM     19  C   UNL     1       5.221   3.477  14.608  0.00  0.00    +0.000 A 
ATOM     20  C   UNL     1       5.797   3.884  13.403  0.00  0.00    +0.000 A 
ATOM     21 CL   UNL     1       5.073   3.407  11.877  0.00  0.00    +0.000 Cl
ATOM     22  C   UNL     1       6.948   4.677  13.415  0.00  0.00    +0.000 A 
ATOM     23  C   UNL     1       7.523   5.064  14.629  0.00  0.00    +0.000 A 
ENDBRANCH  15  17
ENDBRANCH  14  15
ENDBRANCH   1  14
TORSDOF 4
ENDMDL
MODEL 5
REMARK VINA RESULT:      -6.9      2.364      5.956
REMARK  Name = 
REMARK  4 active torsions:
REMARK  status: ('A' for Active; 'I' for Inactive)
REMARK    1  A    between atoms: C_2  and  N_3
REMARK    2  A    between atoms: C_2  and  N_12
REMARK    3  A    between atoms: N_3  and  N_4
REMARK    4  A    between atoms: N_12  and  C_13
REMARK                            x       y       z     vdW  Elec       q    Type
REMARK                         _______ _______ _______ _____ _____    ______ ____
ROOT
ATOM      1  N   UNL     1       6.831   4.521  17.380  0.00  0.00    +0.000 N 
ATOM      2  H   UNL     1       6.660   3.508  17.295  0.00  0.00    +0.000 HD
ENDROOT
BRANCH   1   3
ATOM      3  N   UNL     1       7.260   5.233  16.281  0.00  0.00    +0.000 NA
ATOM      4  C   UNL     1       7.074   4.870  15.051  0.00  0.00    +0.000 C 
ATOM      5  N   UNL     1       7.741   5.629  14.047  0.00  0.00    +0.000 N 
ATOM      6  C   UNL     1       8.230   5.090  12.793  0.00  0.00    +0.000 C 
ATOM      7  C   UNL     1       7.142   4.651  11.828  0.00  0.00    +0.000 C 
ATOM      8  C   UNL     1       6.434   3.376  12.267  0.00  0.00    +0.000 C 
ATOM      9  C   UNL     1       5.523   3.581  13.469  0.00  0.00    +0.000 C 
ATOM     10  N   UNL     1       6.209   3.768  14.735  0.00  0.00    +0.000 N 
ATOM     11  H   UNL     1       8.135   6.541  14.326  0.00  0.00    +0.000 HD
ATOM     12  H   UNL     1       5.823   3.197  15.496  0.00  0.00    +0.000 HD
ENDBRANCH   1   3
BRANCH   1  14
ATOM     13  S   UNL     1       7.821   5.547  19.418  0.00  0.00    +0.000 S 
ATOM     14  C   UNL     1       6.664   5.131  18.662  0.00  0.00    +0.000 C 
BRANCH  14  15
ATOM     15  N   UNL     1       5.366   5.561  19.078  0.00  0.00    +0.000 N 
ATOM     16  H   UNL     1       5.260   6.513  19.464  0.00  0.00    +0.000 HD
BRANCH  15  17
ATOM     17  C   UNL     1       4.189   4.755  18.978  0.00  0.00    +0.000 A 
ATOM     18  C   UNL     1       3.015   5.228  18.355  0.00  0.00    +0.000 A 
ATOM     19  C   UNL     1       1.886   4.407  18.254  0.00  0.00    +0.000 A 
ATOM     20  C   UNL     1       1.911   3.113  18.780  0.00  0.00    +0.000 A 
ATOM     21 CL   UNL     1       0.489   2.092  18.668  0.00  0.00    +0.000 Cl
ATOM     22  C   UNL     1       3.073   2.633  19.391  0.00  0.00    +0.000 A 
ATOM     23  C   UNL     1       4.210   3.442  19.475  0.00  0.00    +0.000 A 
ENDBRANCH  15  17
ENDBRANCH  14  15
ENDBRANCH   1  14
TORSDOF 4
ENDMDL
MODEL 6
REMARK VINA RESULT:      -6.9      4.049      6.468
REMARK  Name = 
REMARK  4 active torsions:
REMARK  status: ('A' for Active; 'I' for Inactive)
REMARK    1  A    between atoms: C_2  and  N_3
REMARK    2  A    between atoms: C_2  and  N_12
REMARK    3  A    between atoms: N_3  and  N_4
REMARK    4  A    between atoms: N_12  and  C_13
REMARK                            x       y       z     vdW  Elec       q    Type
REMARK                         _______ _______ _______ _____ _____    ______ ____
ROOT
ATOM      1  N   UNL     1       4.390   2.759  18.271  0.00  0.00    +0.000 N 
ATOM      2  H   UNL     1       4.831   2.002  17.729  0.00  0.00    +0.000 HD
ENDROOT
BRANCH   1   3
ATOM      3  N   UNL     1       5.171   3.569  19.067  0.00  0.00    +0.000 NA
ATOM      4  C   UNL     1       5.857   4.582  18.637  0.00  0.00    +0.000 C 
ATOM      5  N   UNL     1       6.750   5.196  19.563  0.00  0.00    +0.000 N 
ATOM      6  C   UNL     1       8.009   5.818  19.205  0.00  0.00    +0.000 C 
ATOM      7  C   UNL     1       7.874   7.094  18.391  0.00  0.00    +0.000 C 
ATOM      8  C   UNL     1       7.424   6.843  16.958  0.00  0.00    +0.000 C 
ATOM      9  C   UNL     1       5.967   6.419  16.854  0.00  0.00    +0.000 C 
ATOM     10  N   UNL     1       5.688   5.065  17.295  0.00  0.00    +0.000 N 
ATOM     11  H   UNL     1       6.635   4.959  20.560  0.00  0.00    +0.000 HD
ATOM     12  H   UNL     1       5.101   4.534  16.640  0.00  0.00    +0.000 HD
ENDBRANCH   1   3
BRANCH   1  14
ATOM     13  S   UNL     1       2.122   1.899  18.822  0.00  0.00    +0.000 S 
ATOM     14  C   UNL     1       2.969   2.897  18.212  0.00  0.00    +0.000 C 
BRANCH  14  15
ATOM     15  N   UNL     1       2.394   4.134  17.785  0.00  0.00    +0.000 N 
ATOM     16  H   UNL     1       2.084   4.223  16.804  0.00  0.00    +0.000 HD
BRANCH  15  17
ATOM     17  C   UNL     1       2.203   5.262  18.642  0.00  0.00    +0.000 A 
ATOM     18  C   UNL     1       2.477   6.578  18.212  0.00  0.00    +0.000 A 
ATOM     19  C   UNL     1       2.259   7.664  19.066  0.00  0.00    +0.000 A 
ATOM     20  C   UNL     1       1.776   7.451  20.360  0.00  0.00    +0.000 A 
ATOM     21 CL   UNL     1       1.520   8.812  21.437  0.00  0.00    +0.000 Cl
ATOM     22  C   UNL     1       1.493   6.152  20.792  0.00  0.00    +0.000 A 
ATOM     23  C   UNL     1       1.689   5.066  19.934  0.00  0.00    +0.000 A 
ENDBRANCH  15  17
ENDBRANCH  14  15
ENDBRANCH   1  14
TORSDOF 4
ENDMDL
MODEL 7
REMARK VINA RESULT:      -6.9      3.752      6.406
REMARK  Name = 
REMARK  4 active torsions:
REMARK  status: ('A' for Active; 'I' for Inactive)
REMARK    1  A    between atoms: C_2  and  N_3
REMARK    2  A    between atoms: C_2  and  N_12
REMARK    3  A    between atoms: N_3  and  N_4
REMARK    4  A    between atoms: N_12  and  C_13
REMARK                            x       y       z     vdW  Elec       q    Type
REMARK                         _______ _______ _______ _____ _____    ______ ____
ROOT
ATOM      1  N   UNL     1       4.535   2.610  17.362  0.00  0.00    +0.000 N 
ATOM      2  H   UNL     1       4.981   1.725  17.082  0.00  0.00    +0.000 HD
ENDROOT
BRANCH   1   3
ATOM      3  N   UNL     1       4.864   3.775  16.704  0.00  0.00    +0.000 NA
ATOM      4  C   UNL     1       5.738   4.636  17.124  0.00  0.00    +0.000 C 
ATOM      5  N   UNL     1       5.821   5.869  16.415  0.00  0.00    +0.000 N 
ATOM      6  C   UNL     1       6.162   7.144  17.014  0.00  0.00    +0.000 C 
ATOM      7  C   UNL     1       7.598   7.251  17.497  0.00  0.00    +0.000 C 
ATOM      8  C   UNL     1       7.871   6.426  18.747  0.00  0.00    +0.000 C 
ATOM      9  C   UNL     1       7.891   4.927  18.483  0.00  0.00    +0.000 C 
ATOM     10  N   UNL     1       6.591   4.330  18.238  0.00  0.00    +0.000 N 
ATOM     11  H   UNL     1       5.363   5.917  15.492  0.00  0.00    +0.000 HD
ATOM     12  H   UNL     1       6.431   3.467  18.771  0.00  0.00    +0.000 HD
ENDBRANCH   1   3
BRANCH   1  14
ATOM     13  S   UNL     1       4.048   2.045  19.734  0.00  0.00    +0.000 S 
ATOM     14  C   UNL     1       3.628   2.593  18.466  0.00  0.00    +0.000 C 
BRANCH  14  15
ATOM     15  N   UNL     1       2.413   3.342  18.397  0.00  0.00    +0.000 N 
ATOM     16  H   UNL     1       1.613   2.942  17.880  0.00  0.00    +0.000 HD
BRANCH  15  17
ATOM     17  C   UNL     1       2.225   4.616  19.019  0.00  0.00    +0.000 A 
ATOM     18  C   UNL     1       2.617   5.816  18.389  0.00  0.00    +0.000 A 
ATOM     19  C   UNL     1       2.400   7.049  19.014  0.00  0.00    +0.000 A 
ATOM     20  C   UNL     1       1.801   7.099  20.276  0.00  0.00    +0.000 A 
ATOM     21 CL   UNL     1       1.545   8.644  21.066  0.00  0.00    +0.000 Cl
ATOM     22  C   UNL     1       1.401   5.916  20.903  0.00  0.00    +0.000 A 
ATOM     23  C   UNL     1       1.597   4.684  20.273  0.00  0.00    +0.000 A 
ENDBRANCH  15  17
ENDBRANCH  14  15
ENDBRANCH   1  14
TORSDOF 4
ENDMDL
MODEL 8
REMARK VINA RESULT:      -6.9      3.656      6.616
REMARK  Name = 
REMARK  4 active torsions:
REMARK  status: ('A' for Active; 'I' for Inactive)
REMARK    1  A    between atoms: C_2  and  N_3
REMARK    2  A    between atoms: C_2  and  N_12
REMARK    3  A    between atoms: N_3  and  N_4
REMARK    4  A    between atoms: N_12  and  C_13
REMARK                            x       y       z     vdW  Elec       q    Type
REMARK                         _______ _______ _______ _____ _____    ______ ____
ROOT
ATOM      1  N   UNL     1       3.546   3.144  19.987  0.00  0.00    +0.000 N 
ATOM      2  H   UNL     1       3.943   2.597  20.764  0.00  0.00    +0.000 HD
ENDROOT
BRANCH   1   3
ATOM      3  N   UNL     1       4.177   3.141  18.762  0.00  0.00    +0.000 NA
ATOM      4  C   UNL     1       5.100   3.981  18.408  0.00  0.00    +0.000 C 
ATOM      5  N   UNL     1       5.512   3.947  17.044  0.00  0.00    +0.000 N 
ATOM      6  C   UNL     1       5.958   5.102  16.289  0.00  0.00    +0.000 C 
ATOM      7  C   UNL     1       7.287   5.679  16.744  0.00  0.00    +0.000 C 
ATOM      8  C   UNL     1       7.197   6.406  18.079  0.00  0.00    +0.000 C 
ATOM      9  C   UNL     1       7.005   5.466  19.261  0.00  0.00    +0.000 C 
ATOM     10  N   UNL     1       5.684   4.874  19.367  0.00  0.00    +0.000 N 
ATOM     11  H   UNL     1       5.234   3.127  16.484  0.00  0.00    +0.000 HD
ATOM     12  H   UNL     1       5.290   4.923  20.315  0.00  0.00    +0.000 HD
ENDBRANCH   1   3
BRANCH   1  14
ATOM     13  S   UNL     1       1.068   3.338  20.097  0.00  0.00    +0.000 S 
ATOM     14  C   UNL     1       2.378   3.929  20.237  0.00  0.00    +0.000 C 
BRANCH  14  15
ATOM     15  N   UNL     1       2.504   5.206  20.867  0.00  0.00    +0.000 N 
ATOM     16  H   UNL     1       2.847   5.245  21.841  0.00  0.00    +0.000 HD
BRANCH  15  17
ATOM     17  C   UNL     1       2.199   6.446  20.225  0.00  0.00    +0.000 A 
ATOM     18  C   UNL     1       1.535   7.491  20.902  0.00  0.00    +0.000 A 
ATOM     19  C   UNL     1       1.270   8.701  20.252  0.00  0.00    +0.000 A 
ATOM     20  C   UNL     1       1.654   8.880  18.920  0.00  0.00    +0.000 A 
ATOM     21 CL   UNL     1       1.305  10.392  18.101  0.00  0.00    +0.000 Cl
ATOM     22  C   UNL     1       2.320   7.854  18.244  0.00  0.00    +0.000 A 
ATOM     23  C   UNL     1       2.606   6.651  18.897  0.00  0.00    +0.000 A 
ENDBRANCH  15  17
ENDBRANCH  14  15
ENDBRANCH   1  14
TORSDOF 4
ENDMDL
MODEL 9
REMARK VINA RESULT:      -6.9      3.528      6.434
REMARK  Name = 
REMARK  4 active torsions:
REMARK  status: ('A' for Active; 'I' for Inactive)
REMARK    1  A    between atoms: C_2  and  N_3
REMARK    2  A    between atoms: C_2  and  N_12
REMARK    3  A    between atoms: N_3  and  N_4
REMARK    4  A    between atoms: N_12  and  C_13
REMARK                            x       y       z     vdW  Elec       q    Type
REMARK                         _______ _______ _______ _____ _____    ______ ____
ROOT
ATOM      1  N   UNL     1       3.679   3.294  20.208  0.00  0.00    +0.000 N 
ATOM      2  H   UNL     1       4.343   3.129  20.979  0.00  0.00    +0.000 HD
ENDROOT
BRANCH   1   3
ATOM      3  N   UNL     1       4.066   3.040  18.911  0.00  0.00    +0.000 NA
ATOM      4  C   UNL     1       4.981   3.701  18.273  0.00  0.00    +0.000 C 
ATOM      5  N   UNL     1       5.126   3.424  16.883  0.00  0.00    +0.000 N 
ATOM      6  C   UNL     1       5.530   4.396  15.886  0.00  0.00    +0.000 C 
ATOM      7  C   UNL     1       6.969   4.866  16.008  0.00  0.00    +0.000 C 
ATOM      8  C   UNL     1       7.198   5.781  17.203  0.00  0.00    +0.000 C 
ATOM      9  C   UNL     1       7.144   5.050  18.537  0.00  0.00    +0.000 C 
ATOM     10  N   UNL     1       5.816   4.645  18.961  0.00  0.00    +0.000 N 
ATOM     11  H   UNL     1       4.672   2.572  16.520  0.00  0.00    +0.000 HD
ATOM     12  H   UNL     1       5.613   4.875  19.942  0.00  0.00    +0.000 HD
ENDBRANCH   1   3
BRANCH   1  14
ATOM     13  S   UNL     1       1.235   2.976  20.543  0.00  0.00    +0.000 S 
ATOM     14  C   UNL     1       2.394   3.836  20.524  0.00  0.00    +0.000 C 
BRANCH  14  15
ATOM     15  N   UNL     1       2.295   5.154  21.068  0.00  0.00    +0.000 N 
ATOM     16  H   UNL     1       2.332   5.270  22.093  0.00  0.00    +0.000 HD
BRANCH  15  17
ATOM     17  C   UNL     1       2.164   6.335  20.274  0.00  0.00    +0.000 A 
ATOM     18  C   UNL     1       2.603   6.383  18.934  0.00  0.00    +0.000 A 
ATOM     19  C   UNL     1       2.440   7.548  18.176  0.00  0.00    +0.000 A 
ATOM     20  C   UNL     1       1.851   8.679  18.746  0.00  0.00    +0.000 A 
ATOM     21 CL   UNL     1       1.665  10.145  17.800  0.00  0.00    +0.000 Cl
ATOM     22  C   UNL     1       1.405   8.638  20.070  0.00  0.00    +0.000 A 
ATOM     23  C   UNL     1       1.546   7.469  20.824  0.00  0.00    +0.000 A 
ENDBRANCH  15  17
ENDBRANCH  14  15
ENDBRANCH   1  14
TORSDOF 4
ENDMDL
