MODEL 1
REMARK VINA RESULT:      -9.1      0.000      0.000
REMARK  Name = 
REMARK  8 active torsions:
REMARK  status: ('A' for Active; 'I' for Inactive)
REMARK    1  A    between atoms: C_1  and  O_2
REMARK    2  A    between atoms: O_2  and  C_3
REMARK    3  A    between atoms: C_8  and  C_9
REMARK    4  A    between atoms: C_11  and  C_12
REMARK    5  A    between atoms: C_15  and  S_16
REMARK    6  A    between atoms: S_16  and  C_17
REMARK    7  A    between atoms: C_20  and  C_21
REMARK    8  A    between atoms: C_23  and  C_24
REMARK                            x       y       z     vdW  Elec       q    Type
REMARK                         _______ _______ _______ _____ _____    ______ ____
ROOT
ATOM      1  C   UNL     1       2.159   7.013  19.454  0.00  0.00    +0.000 A 
ATOM      2  N   UNL     1       1.768   8.307  19.724  0.00  0.00    +0.000 NA
ATOM      3  C   UNL     1       0.880   8.243  20.697  0.00  0.00    +0.000 A 
ATOM      4  N   UNL     1       0.733   6.932  21.088  0.00  0.00    +0.000 N 
ATOM      5  C   UNL     1       1.551   6.120  20.330  0.00  0.00    +0.000 A 
ATOM      6  H   UNL     1       0.142   6.621  21.845  0.00  0.00    +0.000 HD
ENDROOT
BRANCH   1  12
ATOM      7  C   UNL     1       6.166   4.453  15.021  0.00  0.00    +0.000 A 
ATOM      8  C   UNL     1       5.629   3.436  15.805  0.00  0.00    +0.000 A 
ATOM      9  C   UNL     1       4.715   3.733  16.819  0.00  0.00    +0.000 A 
ATOM     10  C   UNL     1       4.328   5.058  17.070  0.00  0.00    +0.000 A 
ATOM     11  C   UNL     1       3.436   5.377  18.108  0.00  0.00    +0.000 A 
ATOM     12  C   UNL     1       3.084   6.707  18.371  0.00  0.00    +0.000 A 
ATOM     13  C   UNL     1       3.650   7.720  17.587  0.00  0.00    +0.000 A 
ATOM     14  C   UNL     1       4.502   7.417  16.526  0.00  0.00    +0.000 A 
ATOM     15  C   UNL     1       4.863   6.089  16.267  0.00  0.00    +0.000 A 
ATOM     16  C   UNL     1       5.768   5.775  15.243  0.00  0.00    +0.000 A 
BRANCH   7  18
ATOM     17  C   UNL     1       6.596   3.814  12.776  0.00  0.00    +0.000 C 
ATOM     18  O   UNL     1       7.087   4.298  14.021  0.00  0.00    +0.000 OA
ENDBRANCH   7  18
ENDBRANCH   1  12
BRANCH   3  19
ATOM     19  C   UNL     1       0.149   9.370  21.303  0.00  0.00    +0.000 A 
ATOM     20  C   UNL     1      -0.121   9.369  22.685  0.00  0.00    +0.000 A 
ATOM     21  C   UNL     1      -0.828  10.415  23.291  0.00  0.00    +0.000 A 
ATOM     22  C   UNL     1      -1.289  11.485  22.528  0.00  0.00    +0.000 A 
ATOM     23  C   UNL     1      -1.026  11.508  21.155  0.00  0.00    +0.000 A 
ATOM     24  C   UNL     1      -0.318  10.459  20.531  0.00  0.00    +0.000 A 
ATOM     25  C   UNL     1      -0.086  10.542  19.044  0.00  0.00    +0.000 C 
BRANCH  22  26
ATOM     26  S   UNL     1      -2.211  12.843  23.285  0.00  0.00    +0.000 S 
ATOM     27  C   UNL     1      -2.548  13.767  21.763  0.00  0.00    +0.000 C 
ATOM     28  O   UNL     1      -3.579  12.248  23.778  0.00  0.00    +0.000 OA
ENDBRANCH  22  26
ENDBRANCH   3  19
BRANCH   5  29
ATOM     29  C   UNL     1       1.654   4.672  20.540  0.00  0.00    +0.000 A 
ATOM     30  C   UNL     1       0.943   3.777  19.739  0.00  0.00    +0.000 A 
ATOM     31  C   UNL     1       1.118   2.415  19.945  0.00  0.00    +0.000 A 
ATOM     32  N   UNL     1       1.956   1.896  20.866  0.00  0.00    +0.000 NA
ATOM     33  C   UNL     1       2.631   2.772  21.631  0.00  0.00    +0.000 A 
ATOM     34  C   UNL     1       2.497   4.147  21.523  0.00  0.00    +0.000 A 
ENDBRANCH   5  29
TORSDOF 5
ENDMDL
MODEL 2
REMARK VINA RESULT:      -9.0      0.741      1.110
REMARK  Name = 
REMARK  8 active torsions:
REMARK  status: ('A' for Active; 'I' for Inactive)
REMARK    1  A    between atoms: C_1  and  O_2
REMARK    2  A    between atoms: O_2  and  C_3
REMARK    3  A    between atoms: C_8  and  C_9
REMARK    4  A    between atoms: C_11  and  C_12
REMARK    5  A    between atoms: C_15  and  S_16
REMARK    6  A    between atoms: S_16  and  C_17
REMARK    7  A    between atoms: C_20  and  C_21
REMARK    8  A    between atoms: C_23  and  C_24
REMARK                            x       y       z     vdW  Elec       q    Type
REMARK                         _______ _______ _______ _____ _____    ______ ____
ROOT
ATOM      1  C   UNL     1       2.217   7.162  19.368  0.00  0.00    +0.000 A 
ATOM      2  N   UNL     1       1.860   8.475  19.586  0.00  0.00    +0.000 NA
ATOM      3  C   UNL     1       0.978   8.474  20.565  0.00  0.00    +0.000 A 
ATOM      4  N   UNL     1       0.801   7.185  21.013  0.00  0.00    +0.000 N 
ATOM      5  C   UNL     1       1.594   6.322  20.284  0.00  0.00    +0.000 A 
ATOM      6  H   UNL     1       0.209   6.921  21.785  0.00  0.00    +0.000 HD
ENDROOT
BRANCH   1  12
ATOM      7  C   UNL     1       6.104   4.315  15.003  0.00  0.00    +0.000 A 
ATOM      8  C   UNL     1       5.524   3.343  15.813  0.00  0.00    +0.000 A 
ATOM      9  C   UNL     1       4.624   3.706  16.819  0.00  0.00    +0.000 A 
ATOM     10  C   UNL     1       4.297   5.052  17.036  0.00  0.00    +0.000 A 
ATOM     11  C   UNL     1       3.421   5.437  18.065  0.00  0.00    +0.000 A 
ATOM     12  C   UNL     1       3.127   6.788  18.293  0.00  0.00    +0.000 A 
ATOM     13  C   UNL     1       3.736   7.754  17.484  0.00  0.00    +0.000 A 
ATOM     14  C   UNL     1       4.573   7.387  16.430  0.00  0.00    +0.000 A 
ATOM     15  C   UNL     1       4.875   6.038  16.206  0.00  0.00    +0.000 A 
ATOM     16  C   UNL     1       5.764   5.658  15.191  0.00  0.00    +0.000 A 
BRANCH   7  18
ATOM     17  C   UNL     1       6.494   3.686  12.748  0.00  0.00    +0.000 C 
ATOM     18  O   UNL     1       7.016   4.093  14.007  0.00  0.00    +0.000 OA
ENDBRANCH   7  18
ENDBRANCH   1  12
BRANCH   3  19
ATOM     19  C   UNL     1       0.278   9.643  21.127  0.00  0.00    +0.000 A 
ATOM     20  C   UNL     1      -0.049   9.674  22.497  0.00  0.00    +0.000 A 
ATOM     21  C   UNL     1      -0.728  10.760  23.060  0.00  0.00    +0.000 A 
ATOM     22  C   UNL     1      -1.103  11.842  22.267  0.00  0.00    +0.000 A 
ATOM     23  C   UNL     1      -0.781  11.835  20.907  0.00  0.00    +0.000 A 
ATOM     24  C   UNL     1      -0.100  10.745  20.325  0.00  0.00    +0.000 A 
ATOM     25  C   UNL     1       0.199  10.797  18.848  0.00  0.00    +0.000 C 
BRANCH  22  26
ATOM     26  S   UNL     1      -1.987  13.254  22.970  0.00  0.00    +0.000 S 
ATOM     27  C   UNL     1      -3.278  12.312  23.824  0.00  0.00    +0.000 C 
ATOM     28  O   UNL     1      -1.056  13.871  24.075  0.00  0.00    +0.000 OA
ENDBRANCH  22  26
ENDBRANCH   3  19
BRANCH   5  29
ATOM     29  C   UNL     1       1.664   4.882  20.555  0.00  0.00    +0.000 A 
ATOM     30  C   UNL     1       2.522   4.376  21.533  0.00  0.00    +0.000 A 
ATOM     31  C   UNL     1       2.511   3.010  21.787  0.00  0.00    +0.000 A 
ATOM     32  N   UNL     1       1.700   2.136  21.157  0.00  0.00    +0.000 NA
ATOM     33  C   UNL     1       0.882   2.640  20.216  0.00  0.00    +0.000 A 
ATOM     34  C   UNL     1       0.846   3.981  19.869  0.00  0.00    +0.000 A 
ENDBRANCH   5  29
TORSDOF 5
ENDMDL
MODEL 3
REMARK VINA RESULT:      -8.9      3.322      6.308
REMARK  Name = 
REMARK  8 active torsions:
REMARK  status: ('A' for Active; 'I' for Inactive)
REMARK    1  A    between atoms: C_1  and  O_2
REMARK    2  A    between atoms: O_2  and  C_3
REMARK    3  A    between atoms: C_8  and  C_9
REMARK    4  A    between atoms: C_11  and  C_12
REMARK    5  A    between atoms: C_15  and  S_16
REMARK    6  A    between atoms: S_16  and  C_17
REMARK    7  A    between atoms: C_20  and  C_21
REMARK    8  A    between atoms: C_23  and  C_24
REMARK                            x       y       z     vdW  Elec       q    Type
REMARK                         _______ _______ _______ _____ _____    ______ ____
ROOT
ATOM      1  C   UNL     1       0.141  11.125  20.194  0.00  0.00    +0.000 A 
ATOM      2  N   UNL     1      -1.129  10.945  20.698  0.00  0.00    +0.000 NA
ATOM      3  C   UNL     1      -1.508  12.102  21.203  0.00  0.00    +0.000 A 
ATOM      4  N   UNL     1      -0.520  13.035  20.987  0.00  0.00    +0.000 N 
ATOM      5  C   UNL     1       0.541  12.450  20.325  0.00  0.00    +0.000 A 
ATOM      6  H   UNL     1      -0.584  14.008  21.241  0.00  0.00    +0.000 HD
ENDROOT
BRANCH   1  12
ATOM      7  C   UNL     1       3.322   5.637  18.771  0.00  0.00    +0.000 A 
ATOM      8  C   UNL     1       2.774   5.539  20.046  0.00  0.00    +0.000 A 
ATOM      9  C   UNL     1       2.018   6.590  20.573  0.00  0.00    +0.000 A 
ATOM     10  C   UNL     1       1.805   7.761  19.833  0.00  0.00    +0.000 A 
ATOM     11  C   UNL     1       1.076   8.841  20.361  0.00  0.00    +0.000 A 
ATOM     12  C   UNL     1       0.899  10.019  19.624  0.00  0.00    +0.000 A 
ATOM     13  C   UNL     1       1.476  10.109  18.352  0.00  0.00    +0.000 A 
ATOM     14  C   UNL     1       2.164   9.032  17.796  0.00  0.00    +0.000 A 
ATOM     15  C   UNL     1       2.350   7.856  18.533  0.00  0.00    +0.000 A 
ATOM     16  C   UNL     1       3.094   6.788  18.011  0.00  0.00    +0.000 A 
BRANCH   7  18
ATOM     17  C   UNL     1       4.322   3.487  18.873  0.00  0.00    +0.000 C 
ATOM     18  O   UNL     1       4.101   4.695  18.155  0.00  0.00    +0.000 OA
ENDBRANCH   7  18
ENDBRANCH   1  12
BRANCH   3  19
ATOM     19  C   UNL     1      -2.780  12.394  21.887  0.00  0.00    +0.000 A 
ATOM     20  C   UNL     1      -2.824  12.451  23.294  0.00  0.00    +0.000 A 
ATOM     21  C   UNL     1      -4.018  12.708  23.977  0.00  0.00    +0.000 A 
ATOM     22  C   UNL     1      -5.201  12.910  23.271  0.00  0.00    +0.000 A 
ATOM     23  C   UNL     1      -5.179  12.865  21.874  0.00  0.00    +0.000 A 
ATOM     24  C   UNL     1      -3.983  12.602  21.173  0.00  0.00    +0.000 A 
ATOM     25  C   UNL     1      -4.036  12.551  19.667  0.00  0.00    +0.000 C 
BRANCH  22  26
ATOM     26  S   UNL     1      -6.758  13.237  24.131  0.00  0.00    +0.000 S 
ATOM     27  C   UNL     1      -7.326  14.590  23.067  0.00  0.00    +0.000 C 
ATOM     28  O   UNL     1      -7.698  12.007  23.857  0.00  0.00    +0.000 OA
ENDBRANCH  22  26
ENDBRANCH   3  19
BRANCH   5  29
ATOM     29  C   UNL     1       1.731  13.199  19.909  0.00  0.00    +0.000 A 
ATOM     30  C   UNL     1       1.930  13.546  18.571  0.00  0.00    +0.000 A 
ATOM     31  C   UNL     1       3.047  14.302  18.239  0.00  0.00    +0.000 A 
ATOM     32  N   UNL     1       3.950  14.744  19.138  0.00  0.00    +0.000 NA
ATOM     33  C   UNL     1       3.745  14.398  20.421  0.00  0.00    +0.000 A 
ATOM     34  C   UNL     1       2.680  13.619  20.845  0.00  0.00    +0.000 A 
ENDBRANCH   5  29
TORSDOF 5
ENDMDL
MODEL 4
REMARK VINA RESULT:      -8.6      4.190     10.312
REMARK  Name = 
REMARK  8 active torsions:
REMARK  status: ('A' for Active; 'I' for Inactive)
REMARK    1  A    between atoms: C_1  and  O_2
REMARK    2  A    between atoms: O_2  and  C_3
REMARK    3  A    between atoms: C_8  and  C_9
REMARK    4  A    between atoms: C_11  and  C_12
REMARK    5  A    between atoms: C_15  and  S_16
REMARK    6  A    between atoms: S_16  and  C_17
REMARK    7  A    between atoms: C_20  and  C_21
REMARK    8  A    between atoms: C_23  and  C_24
REMARK                            x       y       z     vdW  Elec       q    Type
REMARK                         _______ _______ _______ _____ _____    ______ ____
ROOT
ATOM      1  C   UNL     1      -0.183  10.403  18.437  0.00  0.00    +0.000 A 
ATOM      2  N   UNL     1       0.262   9.113  18.242  0.00  0.00    +0.000 NA
ATOM      3  C   UNL     1       1.543   9.099  18.554  0.00  0.00    +0.000 A 
ATOM      4  N   UNL     1       1.914  10.349  18.994  0.00  0.00    +0.000 N 
ATOM      5  C   UNL     1       0.831  11.202  18.953  0.00  0.00    +0.000 A 
ATOM      6  H   UNL     1       2.833  10.589  19.332  0.00  0.00    +0.000 HD
ENDROOT
BRANCH   1  12
ATOM      7  C   UNL     1      -6.306  12.571  18.185  0.00  0.00    +0.000 A 
ATOM      8  C   UNL     1      -5.762  12.860  19.432  0.00  0.00    +0.000 A 
ATOM      9  C   UNL     1      -4.440  12.512  19.725  0.00  0.00    +0.000 A 
ATOM     10  C   UNL     1      -3.643  11.862  18.772  0.00  0.00    +0.000 A 
ATOM     11  C   UNL     1      -2.323  11.475  19.061  0.00  0.00    +0.000 A 
ATOM     12  C   UNL     1      -1.548  10.795  18.113  0.00  0.00    +0.000 A 
ATOM     13  C   UNL     1      -2.118  10.493  16.870  0.00  0.00    +0.000 A 
ATOM     14  C   UNL     1      -3.411  10.908  16.552  0.00  0.00    +0.000 A 
ATOM     15  C   UNL     1      -4.191  11.580  17.501  0.00  0.00    +0.000 A 
ATOM     16  C   UNL     1      -5.513  11.948  17.217  0.00  0.00    +0.000 A 
BRANCH   7  18
ATOM     17  C   UNL     1      -7.854  14.152  17.325  0.00  0.00    +0.000 C 
ATOM     18  O   UNL     1      -7.589  12.833  17.786  0.00  0.00    +0.000 OA
ENDBRANCH   7  18
ENDBRANCH   1  12
BRANCH   3  19
ATOM     19  C   UNL     1       2.462   7.950  18.470  0.00  0.00    +0.000 A 
ATOM     20  C   UNL     1       3.335   7.829  17.371  0.00  0.00    +0.000 A 
ATOM     21  C   UNL     1       4.208   6.741  17.250  0.00  0.00    +0.000 A 
ATOM     22  C   UNL     1       4.226   5.743  18.222  0.00  0.00    +0.000 A 
ATOM     23  C   UNL     1       3.372   5.848  19.324  0.00  0.00    +0.000 A 
ATOM     24  C   UNL     1       2.484   6.937  19.456  0.00  0.00    +0.000 A 
ATOM     25  C   UNL     1       1.580   6.976  20.662  0.00  0.00    +0.000 C 
BRANCH  22  26
ATOM     26  S   UNL     1       5.339   4.326  18.084  0.00  0.00    +0.000 S 
ATOM     27  C   UNL     1       6.892   5.259  18.037  0.00  0.00    +0.000 C 
ATOM     28  O   UNL     1       5.293   3.574  19.464  0.00  0.00    +0.000 OA
ENDBRANCH  22  26
ENDBRANCH   3  19
BRANCH   5  29
ATOM     29  C   UNL     1       0.896  12.596  19.406  0.00  0.00    +0.000 A 
ATOM     30  C   UNL     1       0.768  12.919  20.758  0.00  0.00    +0.000 A 
ATOM     31  C   UNL     1       0.891  14.249  21.139  0.00  0.00    +0.000 A 
ATOM     32  N   UNL     1       1.148  15.256  20.280  0.00  0.00    +0.000 NA
ATOM     33  C   UNL     1       1.265  14.928  18.981  0.00  0.00    +0.000 A 
ATOM     34  C   UNL     1       1.125  13.636  18.501  0.00  0.00    +0.000 A 
ENDBRANCH   5  29
TORSDOF 5
ENDMDL
MODEL 5
REMARK VINA RESULT:      -8.6      3.469     10.414
REMARK  Name = 
REMARK  8 active torsions:
REMARK  status: ('A' for Active; 'I' for Inactive)
REMARK    1  A    between atoms: C_1  and  O_2
REMARK    2  A    between atoms: O_2  and  C_3
REMARK    3  A    between atoms: C_8  and  C_9
REMARK    4  A    between atoms: C_11  and  C_12
REMARK    5  A    between atoms: C_15  and  S_16
REMARK    6  A    between atoms: S_16  and  C_17
REMARK    7  A    between atoms: C_20  and  C_21
REMARK    8  A    between atoms: C_23  and  C_24
REMARK                            x       y       z     vdW  Elec       q    Type
REMARK                         _______ _______ _______ _____ _____    ______ ____
ROOT
ATOM      1  C   UNL     1       0.154  10.543  19.727  0.00  0.00    +0.000 A 
ATOM      2  N   UNL     1       1.314   9.814  19.874  0.00  0.00    +0.000 NA
ATOM      3  C   UNL     1       1.333   8.924  18.902  0.00  0.00    +0.000 A 
ATOM      4  N   UNL     1       0.226   9.103  18.104  0.00  0.00    +0.000 N 
ATOM      5  C   UNL     1      -0.539  10.143  18.589  0.00  0.00    +0.000 A 
ATOM      6  H   UNL     1       0.030   8.574  17.268  0.00  0.00    +0.000 HD
ENDROOT
BRANCH   1  12
ATOM      7  C   UNL     1      -2.500  14.352  24.277  0.00  0.00    +0.000 A 
ATOM      8  C   UNL     1      -3.219  13.165  24.188  0.00  0.00    +0.000 A 
ATOM      9  C   UNL     1      -2.828  12.167  23.291  0.00  0.00    +0.000 A 
ATOM     10  C   UNL     1      -1.711  12.346  22.462  0.00  0.00    +0.000 A 
ATOM     11  C   UNL     1      -1.324  11.367  21.531  0.00  0.00    +0.000 A 
ATOM     12  C   UNL     1      -0.227  11.572  20.685  0.00  0.00    +0.000 A 
ATOM     13  C   UNL     1       0.473  12.781  20.772  0.00  0.00    +0.000 A 
ATOM     14  C   UNL     1       0.129  13.744  21.721  0.00  0.00    +0.000 A 
ATOM     15  C   UNL     1      -0.972  13.546  22.561  0.00  0.00    +0.000 A 
ATOM     16  C   UNL     1      -1.368  14.532  23.476  0.00  0.00    +0.000 A 
BRANCH   7  18
ATOM     17  C   UNL     1      -3.995  16.120  24.801  0.00  0.00    +0.000 C 
ATOM     18  O   UNL     1      -2.794  15.413  25.090  0.00  0.00    +0.000 OA
ENDBRANCH   7  18
ENDBRANCH   1  12
BRANCH   3  19
ATOM     19  C   UNL     1       2.360   7.893  18.666  0.00  0.00    +0.000 A 
ATOM     20  C   UNL     1       3.243   8.019  17.577  0.00  0.00    +0.000 A 
ATOM     21  C   UNL     1       4.219   7.050  17.313  0.00  0.00    +0.000 A 
ATOM     22  C   UNL     1       4.332   5.927  18.129  0.00  0.00    +0.000 A 
ATOM     23  C   UNL     1       3.470   5.787  19.220  0.00  0.00    +0.000 A 
ATOM     24  C   UNL     1       2.479   6.753  19.495  0.00  0.00    +0.000 A 
ATOM     25  C   UNL     1       1.572   6.528  20.678  0.00  0.00    +0.000 C 
BRANCH  22  26
ATOM     26  S   UNL     1       5.579   4.659  17.805  0.00  0.00    +0.000 S 
ATOM     27  C   UNL     1       6.637   5.652  16.719  0.00  0.00    +0.000 C 
ATOM     28  O   UNL     1       6.367   4.441  19.146  0.00  0.00    +0.000 OA
ENDBRANCH  22  26
ENDBRANCH   3  19
BRANCH   5  29
ATOM     29  C   UNL     1      -1.762  10.609  17.928  0.00  0.00    +0.000 A 
ATOM     30  C   UNL     1      -2.110  10.151  16.655  0.00  0.00    +0.000 A 
ATOM     31  C   UNL     1      -3.306  10.583  16.096  0.00  0.00    +0.000 A 
ATOM     32  N   UNL     1      -4.171  11.409  16.719  0.00  0.00    +0.000 NA
ATOM     33  C   UNL     1      -3.819  11.843  17.942  0.00  0.00    +0.000 A 
ATOM     34  C   UNL     1      -2.633  11.495  18.567  0.00  0.00    +0.000 A 
ENDBRANCH   5  29
TORSDOF 5
ENDMDL
MODEL 6
REMARK VINA RESULT:      -8.6      4.018      9.957
REMARK  Name = 
REMARK  8 active torsions:
REMARK  status: ('A' for Active; 'I' for Inactive)
REMARK    1  A    between atoms: C_1  and  O_2
REMARK    2  A    between atoms: O_2  and  C_3
REMARK    3  A    between atoms: C_8  and  C_9
REMARK    4  A    between atoms: C_11  and  C_12
REMARK    5  A    between atoms: C_15  and  S_16
REMARK    6  A    between atoms: S_16  and  C_17
REMARK    7  A    between atoms: C_20  and  C_21
REMARK    8  A    between atoms: C_23  and  C_24
REMARK                            x       y       z     vdW  Elec       q    Type
REMARK                         _______ _______ _______ _____ _____    ______ ____
ROOT
ATOM      1  C   UNL     1      -0.333   9.863  18.804  0.00  0.00    +0.000 A 
ATOM      2  N   UNL     1       0.362   8.854  18.172  0.00  0.00    +0.000 NA
ATOM      3  C   UNL     1       1.455   8.642  18.878  0.00  0.00    +0.000 A 
ATOM      4  N   UNL     1       1.446   9.464  19.982  0.00  0.00    +0.000 N 
ATOM      5  C   UNL     1       0.308  10.243  19.978  0.00  0.00    +0.000 A 
ATOM      6  H   UNL     1       2.151   9.464  20.703  0.00  0.00    +0.000 HD
ENDROOT
BRANCH   1  12
ATOM      7  C   UNL     1      -6.050  12.666  17.497  0.00  0.00    +0.000 A 
ATOM      8  C   UNL     1      -5.738  12.853  18.840  0.00  0.00    +0.000 A 
ATOM      9  C   UNL     1      -4.539  12.359  19.361  0.00  0.00    +0.000 A 
ATOM     10  C   UNL     1      -3.635  11.662  18.546  0.00  0.00    +0.000 A 
ATOM     11  C   UNL     1      -2.442  11.130  19.062  0.00  0.00    +0.000 A 
ATOM     12  C   UNL     1      -1.564  10.407  18.245  0.00  0.00    +0.000 A 
ATOM     13  C   UNL     1      -1.904  10.209  16.901  0.00  0.00    +0.000 A 
ATOM     14  C   UNL     1      -3.062  10.769  16.363  0.00  0.00    +0.000 A 
ATOM     15  C   UNL     1      -3.946  11.484  17.179  0.00  0.00    +0.000 A 
ATOM     16  C   UNL     1      -5.145  11.998  16.667  0.00  0.00    +0.000 A 
BRANCH   7  18
ATOM     17  C   UNL     1      -7.263  14.444  16.495  0.00  0.00    +0.000 C 
ATOM     18  O   UNL     1      -7.199  13.074  16.873  0.00  0.00    +0.000 OA
ENDBRANCH   7  18
ENDBRANCH   1  12
BRANCH   3  19
ATOM     19  C   UNL     1       2.531   7.681  18.576  0.00  0.00    +0.000 A 
ATOM     20  C   UNL     1       3.405   7.922  17.499  0.00  0.00    +0.000 A 
ATOM     21  C   UNL     1       4.427   7.023  17.173  0.00  0.00    +0.000 A 
ATOM     22  C   UNL     1       4.596   5.854  17.912  0.00  0.00    +0.000 A 
ATOM     23  C   UNL     1       3.743   5.599  18.989  0.00  0.00    +0.000 A 
ATOM     24  C   UNL     1       2.707   6.495  19.327  0.00  0.00    +0.000 A 
ATOM     25  C   UNL     1       1.814   6.146  20.490  0.00  0.00    +0.000 C 
BRANCH  22  26
ATOM     26  S   UNL     1       5.903   4.673  17.505  0.00  0.00    +0.000 S 
ATOM     27  C   UNL     1       6.959   5.813  16.573  0.00  0.00    +0.000 C 
ATOM     28  O   UNL     1       6.652   4.342  18.847  0.00  0.00    +0.000 OA
ENDBRANCH  22  26
ENDBRANCH   3  19
BRANCH   5  29
ATOM     29  C   UNL     1      -0.014  11.190  21.051  0.00  0.00    +0.000 A 
ATOM     30  C   UNL     1       0.352  12.535  20.956  0.00  0.00    +0.000 A 
ATOM     31  C   UNL     1      -0.024  13.400  21.975  0.00  0.00    +0.000 A 
ATOM     32  N   UNL     1      -0.745  13.025  23.051  0.00  0.00    +0.000 NA
ATOM     33  C   UNL     1      -1.085  11.726  23.129  0.00  0.00    +0.000 A 
ATOM     34  C   UNL     1      -0.728  10.782  22.180  0.00  0.00    +0.000 A 
ENDBRANCH   5  29
TORSDOF 5
ENDMDL
MODEL 7
REMARK VINA RESULT:      -8.5      3.882     11.275
REMARK  Name = 
REMARK  8 active torsions:
REMARK  status: ('A' for Active; 'I' for Inactive)
REMARK    1  A    between atoms: C_1  and  O_2
REMARK    2  A    between atoms: O_2  and  C_3
REMARK    3  A    between atoms: C_8  and  C_9
REMARK    4  A    between atoms: C_11  and  C_12
REMARK    5  A    between atoms: C_15  and  S_16
REMARK    6  A    between atoms: S_16  and  C_17
REMARK    7  A    between atoms: C_20  and  C_21
REMARK    8  A    between atoms: C_23  and  C_24
REMARK                            x       y       z     vdW  Elec       q    Type
REMARK                         _______ _______ _______ _____ _____    ______ ____
ROOT
ATOM      1  C   UNL     1      -0.799  11.737  20.238  0.00  0.00    +0.000 A 
ATOM      2  N   UNL     1      -0.456  10.410  20.098  0.00  0.00    +0.000 NA
ATOM      3  C   UNL     1       0.719  10.379  19.500  0.00  0.00    +0.000 A 
ATOM      4  N   UNL     1       1.157  11.667  19.299  0.00  0.00    +0.000 N 
ATOM      5  C   UNL     1       0.222  12.562  19.778  0.00  0.00    +0.000 A 
ATOM      6  H   UNL     1       2.048  11.914  18.897  0.00  0.00    +0.000 HD
ENDROOT
BRANCH   1  12
ATOM      7  C   UNL     1      -6.027  13.154  23.832  0.00  0.00    +0.000 A 
ATOM      8  C   UNL     1      -5.007  12.693  24.658  0.00  0.00    +0.000 A 
ATOM      9  C   UNL     1      -3.765  12.343  24.120  0.00  0.00    +0.000 A 
ATOM     10  C   UNL     1      -3.527  12.444  22.741  0.00  0.00    +0.000 A 
ATOM     11  C   UNL     1      -2.296  12.064  22.180  0.00  0.00    +0.000 A 
ATOM     12  C   UNL     1      -2.083  12.138  20.797  0.00  0.00    +0.000 A 
ATOM     13  C   UNL     1      -3.127  12.584  19.978  0.00  0.00    +0.000 A 
ATOM     14  C   UNL     1      -4.339  13.006  20.524  0.00  0.00    +0.000 A 
ATOM     15  C   UNL     1      -4.558  12.925  21.904  0.00  0.00    +0.000 A 
ATOM     16  C   UNL     1      -5.794  13.286  22.460  0.00  0.00    +0.000 A 
BRANCH   7  18
ATOM     17  C   UNL     1      -7.783  14.749  23.759  0.00  0.00    +0.000 C 
ATOM     18  O   UNL     1      -7.290  13.501  24.230  0.00  0.00    +0.000 OA
ENDBRANCH   7  18
ENDBRANCH   1  12
BRANCH   3  19
ATOM     19  C   UNL     1       1.478   9.179  19.103  0.00  0.00    +0.000 A 
ATOM     20  C   UNL     1       1.947   9.052  17.781  0.00  0.00    +0.000 A 
ATOM     21  C   UNL     1       2.656   7.919  17.365  0.00  0.00    +0.000 A 
ATOM     22  C   UNL     1       2.908   6.881  18.259  0.00  0.00    +0.000 A 
ATOM     23  C   UNL     1       2.458   6.991  19.577  0.00  0.00    +0.000 A 
ATOM     24  C   UNL     1       1.738   8.125  20.009  0.00  0.00    +0.000 A 
ATOM     25  C   UNL     1       1.267   8.168  21.441  0.00  0.00    +0.000 C 
BRANCH  22  26
ATOM     26  S   UNL     1       3.816   5.404  17.744  0.00  0.00    +0.000 S 
ATOM     27  C   UNL     1       4.808   5.210  19.248  0.00  0.00    +0.000 C 
ATOM     28  O   UNL     1       2.782   4.221  17.715  0.00  0.00    +0.000 OA
ENDBRANCH  22  26
ENDBRANCH   3  19
BRANCH   5  29
ATOM     29  C   UNL     1       0.422  14.014  19.752  0.00  0.00    +0.000 A 
ATOM     30  C   UNL     1       1.433  14.614  20.506  0.00  0.00    +0.000 A 
ATOM     31  C   UNL     1       1.613  15.988  20.403  0.00  0.00    +0.000 A 
ATOM     32  N   UNL     1       0.880  16.784  19.599  0.00  0.00    +0.000 NA
ATOM     33  C   UNL     1      -0.091  16.191  18.883  0.00  0.00    +0.000 A 
ATOM     34  C   UNL     1      -0.370  14.835  18.943  0.00  0.00    +0.000 A 
ENDBRANCH   5  29
TORSDOF 5
ENDMDL
MODEL 8
REMARK VINA RESULT:      -8.5      3.286      6.434
REMARK  Name = 
REMARK  8 active torsions:
REMARK  status: ('A' for Active; 'I' for Inactive)
REMARK    1  A    between atoms: C_1  and  O_2
REMARK    2  A    between atoms: O_2  and  C_3
REMARK    3  A    between atoms: C_8  and  C_9
REMARK    4  A    between atoms: C_11  and  C_12
REMARK    5  A    between atoms: C_15  and  S_16
REMARK    6  A    between atoms: S_16  and  C_17
REMARK    7  A    between atoms: C_20  and  C_21
REMARK    8  A    between atoms: C_23  and  C_24
REMARK                            x       y       z     vdW  Elec       q    Type
REMARK                         _______ _______ _______ _____ _____    ______ ____
ROOT
ATOM      1  C   UNL     1       0.085  11.196  19.825  0.00  0.00    +0.000 A 
ATOM      2  N   UNL     1      -1.247  11.072  20.154  0.00  0.00    +0.000 NA
ATOM      3  C   UNL     1      -1.646  12.251  20.589  0.00  0.00    +0.000 A 
ATOM      4  N   UNL     1      -0.602  13.143  20.497  0.00  0.00    +0.000 N 
ATOM      5  C   UNL     1       0.514  12.509  19.992  0.00  0.00    +0.000 A 
ATOM      6  H   UNL     1      -0.662  14.123  20.728  0.00  0.00    +0.000 HD
ENDROOT
BRANCH   1  12
ATOM      7  C   UNL     1       3.321   5.624  18.968  0.00  0.00    +0.000 A 
ATOM      8  C   UNL     1       2.704   5.616  20.214  0.00  0.00    +0.000 A 
ATOM      9  C   UNL     1       1.923   6.701  20.624  0.00  0.00    +0.000 A 
ATOM     10  C   UNL     1       1.755   7.817  19.793  0.00  0.00    +0.000 A 
ATOM     11  C   UNL     1       1.002   8.930  20.203  0.00  0.00    +0.000 A 
ATOM     12  C   UNL     1       0.870  10.054  19.377  0.00  0.00    +0.000 A 
ATOM     13  C   UNL     1       1.515  10.055  18.134  0.00  0.00    +0.000 A 
ATOM     14  C   UNL     1       2.229   8.941  17.694  0.00  0.00    +0.000 A 
ATOM     15  C   UNL     1       2.371   7.821  18.521  0.00  0.00    +0.000 A 
ATOM     16  C   UNL     1       3.139   6.719  18.117  0.00  0.00    +0.000 A 
BRANCH   7  18
ATOM     17  C   UNL     1       3.763   4.107  17.196  0.00  0.00    +0.000 C 
ATOM     18  O   UNL     1       4.130   4.641  18.463  0.00  0.00    +0.000 OA
ENDBRANCH   7  18
ENDBRANCH   1  12
BRANCH   3  19
ATOM     19  C   UNL     1      -2.986  12.602  21.092  0.00  0.00    +0.000 A 
ATOM     20  C   UNL     1      -3.990  13.005  20.190  0.00  0.00    +0.000 A 
ATOM     21  C   UNL     1      -5.269  13.362  20.634  0.00  0.00    +0.000 A 
ATOM     22  C   UNL     1      -5.575  13.331  21.993  0.00  0.00    +0.000 A 
ATOM     23  C   UNL     1      -4.595  12.926  22.903  0.00  0.00    +0.000 A 
ATOM     24  C   UNL     1      -3.301  12.567  22.470  0.00  0.00    +0.000 A 
ATOM     25  C   UNL     1      -2.289  12.158  23.510  0.00  0.00    +0.000 C 
BRANCH  22  26
ATOM     26  S   UNL     1      -7.216  13.794  22.591  0.00  0.00    +0.000 S 
ATOM     27  C   UNL     1      -7.775  12.128  23.037  0.00  0.00    +0.000 C 
ATOM     28  O   UNL     1      -7.006  14.586  23.932  0.00  0.00    +0.000 OA
ENDBRANCH  22  26
ENDBRANCH   3  19
BRANCH   5  29
ATOM     29  C   UNL     1       1.778  13.206  19.731  0.00  0.00    +0.000 A 
ATOM     30  C   UNL     1       2.169  13.520  18.428  0.00  0.00    +0.000 A 
ATOM     31  C   UNL     1       3.349  14.229  18.240  0.00  0.00    +0.000 A 
ATOM     32  N   UNL     1       4.138  14.655  19.247  0.00  0.00    +0.000 NA
ATOM     33  C   UNL     1       3.748  14.340  20.495  0.00  0.00    +0.000 A 
ATOM     34  C   UNL     1       2.607  13.609  20.781  0.00  0.00    +0.000 A 
ENDBRANCH   5  29
TORSDOF 5
ENDMDL
MODEL 9
REMARK VINA RESULT:      -8.5      3.483     10.321
REMARK  Name = 
REMARK  8 active torsions:
REMARK  status: ('A' for Active; 'I' for Inactive)
REMARK    1  A    between atoms: C_1  and  O_2
REMARK    2  A    between atoms: O_2  and  C_3
REMARK    3  A    between atoms: C_8  and  C_9
REMARK    4  A    between atoms: C_11  and  C_12
REMARK    5  A    between atoms: C_15  and  S_16
REMARK    6  A    between atoms: S_16  and  C_17
REMARK    7  A    between atoms: C_20  and  C_21
REMARK    8  A    between atoms: C_23  and  C_24
REMARK                            x       y       z     vdW  Elec       q    Type
REMARK                         _______ _______ _______ _____ _____    ______ ____
ROOT
ATOM      1  C   UNL     1       0.260  10.309  19.838  0.00  0.00    +0.000 A 
ATOM      2  N   UNL     1       1.416   9.568  19.959  0.00  0.00    +0.000 NA
ATOM      3  C   UNL     1       1.450   8.742  18.932  0.00  0.00    +0.000 A 
ATOM      4  N   UNL     1       0.359   8.977  18.127  0.00  0.00    +0.000 N 
ATOM      5  C   UNL     1      -0.412   9.987  18.664  0.00  0.00    +0.000 A 
ATOM      6  H   UNL     1       0.178   8.505  17.254  0.00  0.00    +0.000 HD
ENDROOT
BRANCH   1  12
ATOM      7  C   UNL     1      -0.821  15.436  23.685  0.00  0.00    +0.000 A 
ATOM      8  C   UNL     1      -0.056  15.829  22.591  0.00  0.00    +0.000 A 
ATOM      9  C   UNL     1       0.290  14.904  21.602  0.00  0.00    +0.000 A 
ATOM     10  C   UNL     1      -0.118  13.567  21.697  0.00  0.00    +0.000 A 
ATOM     11  C   UNL     1       0.250  12.617  20.729  0.00  0.00    +0.000 A 
ATOM     12  C   UNL     1      -0.136  11.276  20.853  0.00  0.00    +0.000 A 
ATOM     13  C   UNL     1      -0.887  10.893  21.971  0.00  0.00    +0.000 A 
ATOM     14  C   UNL     1      -1.299  11.831  22.917  0.00  0.00    +0.000 A 
ATOM     15  C   UNL     1      -0.906  13.170  22.801  0.00  0.00    +0.000 A 
ATOM     16  C   UNL     1      -1.259  14.112  23.777  0.00  0.00    +0.000 A 
BRANCH   7  18
ATOM     17  C   UNL     1      -1.697  15.572  25.887  0.00  0.00    +0.000 C 
ATOM     18  O   UNL     1      -1.202  16.235  24.730  0.00  0.00    +0.000 OA
ENDBRANCH   7  18
ENDBRANCH   1  12
BRANCH   3  19
ATOM     19  C   UNL     1       2.478   7.725  18.649  0.00  0.00    +0.000 A 
ATOM     20  C   UNL     1       3.366   7.905  17.571  0.00  0.00    +0.000 A 
ATOM     21  C   UNL     1       4.343   6.951  17.263  0.00  0.00    +0.000 A 
ATOM     22  C   UNL     1       4.453   5.789  18.022  0.00  0.00    +0.000 A 
ATOM     23  C   UNL     1       3.587   5.594  19.102  0.00  0.00    +0.000 A 
ATOM     24  C   UNL     1       2.595   6.545  19.421  0.00  0.00    +0.000 A 
ATOM     25  C   UNL     1       1.684   6.261  20.587  0.00  0.00    +0.000 C 
BRANCH  22  26
ATOM     26  S   UNL     1       5.702   4.538  17.640  0.00  0.00    +0.000 S 
ATOM     27  C   UNL     1       6.401   5.353  16.180  0.00  0.00    +0.000 C 
ATOM     28  O   UNL     1       6.786   4.615  18.776  0.00  0.00    +0.000 OA
ENDBRANCH  22  26
ENDBRANCH   3  19
BRANCH   5  29
ATOM     29  C   UNL     1      -1.621  10.500  18.011  0.00  0.00    +0.000 A 
ATOM     30  C   UNL     1      -1.974  10.085  16.725  0.00  0.00    +0.000 A 
ATOM     31  C   UNL     1      -3.157  10.561  16.174  0.00  0.00    +0.000 A 
ATOM     32  N   UNL     1      -4.005  11.389  16.816  0.00  0.00    +0.000 NA
ATOM     33  C   UNL     1      -3.648  11.782  18.051  0.00  0.00    +0.000 A 
ATOM     34  C   UNL     1      -2.473  11.389  18.671  0.00  0.00    +0.000 A 
ENDBRANCH   5  29
TORSDOF 5
ENDMDL
