MODEL 1
REMARK VINA RESULT:      -7.3      0.000      0.000
REMARK  Name = 
REMARK  9 active torsions:
REMARK  status: ('A' for Active; 'I' for Inactive)
REMARK    1  A    between atoms: C_1  and  C_2
REMARK    2  A    between atoms: C_8  and  N_9
REMARK    3  A    between atoms: C_10  and  C_12
REMARK    4  A    between atoms: C_12  and  C_13
REMARK    5  A    between atoms: C_13  and  C_14
REMARK    6  A    between atoms: C_21  and  C_22
REMARK    7  A    between atoms: C_21  and  C_23
REMARK    8  A    between atoms: C_30  and  C_31
REMARK    9  A    between atoms: C_30  and  C_32
REMARK                            x       y       z     vdW  Elec       q    Type
REMARK                         _______ _______ _______ _____ _____    ______ ____
ROOT
ATOM      1  C   UNL     1       2.474  15.950  18.427  0.00  0.00    +0.000 C 
ATOM      2  C   UNL     1       1.172  15.823  19.172  0.00  0.00    +0.000 C 
ATOM      3  O   UNL     1       0.749  16.891  19.618  0.00  0.00    +0.000 OA
ATOM      4  N   UNL     1       0.556  14.558  19.264  0.00  0.00    +0.000 N 
ATOM      5  C   UNL     1      -0.832  14.442  19.804  0.00  0.00    +0.000 A 
ATOM      6  C   UNL     1      -1.537  15.576  20.258  0.00  0.00    +0.000 A 
ATOM      7  C   UNL     1      -2.840  15.530  20.771  0.00  0.00    +0.000 A 
ATOM      8  C   UNL     1      -3.542  14.349  20.814  0.00  0.00    +0.000 A 
ATOM      9  C   UNL     1      -2.877  13.192  20.400  0.00  0.00    +0.000 A 
ATOM     10  C   UNL     1      -1.540  13.213  19.905  0.00  0.00    +0.000 A 
ATOM     11  C   UNL     1      -0.905  11.869  19.471  0.00  0.00    +0.000 C 
ATOM     12  C   UNL     1      -1.861  11.229  18.395  0.00  0.00    +0.000 C 
ATOM     13  C   UNL     1       0.408  12.131  18.722  0.00  0.00    +0.000 C 
ATOM     14  C   UNL     1       1.321  13.247  19.274  0.00  0.00    +0.000 C 
ATOM     15  C   UNL     1       1.848  13.036  20.698  0.00  0.00    +0.000 C 
ATOM     16  C   UNL     1       2.584  13.134  18.376  0.00  0.00    +0.000 C 
ENDROOT
BRANCH  11  17
ATOM     17  C   UNL     1      -0.736  10.871  20.647  0.00  0.00    +0.000 A 
ATOM     18  C   UNL     1      -1.047  11.243  21.968  0.00  0.00    +0.000 A 
ATOM     19  C   UNL     1      -0.583  10.501  23.060  0.00  0.00    +0.000 A 
ATOM     20  C   UNL     1       0.072   9.293  22.858  0.00  0.00    +0.000 A 
ATOM     21  C   UNL     1       0.212   8.805  21.567  0.00  0.00    +0.000 A 
ATOM     22  C   UNL     1      -0.158   9.599  20.477  0.00  0.00    +0.000 A 
ENDBRANCH  11  17
BRANCH   8  23
ATOM     23  N   UNL     1      -4.888  14.276  21.259  0.00  0.00    +0.000 N 
ATOM     24  C   UNL     1      -5.445  13.269  22.043  0.00  0.00    +0.000 C 
ATOM     25  O   UNL     1      -4.866  12.291  22.507  0.00  0.00    +0.000 OA
ATOM     26  H   UNL     1      -5.486  15.041  20.982  0.00  0.00    +0.000 HD
BRANCH  24  27
ATOM     27  C   UNL     1      -6.923  13.448  22.323  0.00  0.00    +0.000 C 
BRANCH  27  28
ATOM     28  C   UNL     1      -7.729  13.182  21.058  0.00  0.00    +0.000 C 
BRANCH  28  29
ATOM     29  C   UNL     1      -7.424  11.852  20.449  0.00  0.00    +0.000 A 
ATOM     30  C   UNL     1      -6.797  11.589  19.249  0.00  0.00    +0.000 A 
ATOM     31  C   UNL     1      -6.722  10.194  18.974  0.00  0.00    +0.000 A 
ATOM     32  C   UNL     1      -7.293   9.440  19.974  0.00  0.00    +0.000 A 
ATOM     33  S   UNL     1      -7.915  10.411  21.236  0.00  0.00    +0.000 S 
ENDBRANCH  28  29
ENDBRANCH  27  28
ENDBRANCH  24  27
ENDBRANCH   8  23
TORSDOF 5
ENDMDL
MODEL 2
REMARK VINA RESULT:      -7.3      6.181      8.417
REMARK  Name = 
REMARK  9 active torsions:
REMARK  status: ('A' for Active; 'I' for Inactive)
REMARK    1  A    between atoms: C_1  and  C_2
REMARK    2  A    between atoms: C_8  and  N_9
REMARK    3  A    between atoms: C_10  and  C_12
REMARK    4  A    between atoms: C_12  and  C_13
REMARK    5  A    between atoms: C_13  and  C_14
REMARK    6  A    between atoms: C_21  and  C_22
REMARK    7  A    between atoms: C_21  and  C_23
REMARK    8  A    between atoms: C_30  and  C_31
REMARK    9  A    between atoms: C_30  and  C_32
REMARK                            x       y       z     vdW  Elec       q    Type
REMARK                         _______ _______ _______ _____ _____    ______ ____
ROOT
ATOM      1  C   UNL     1       7.212   4.830  15.818  0.00  0.00    +0.000 C 
ATOM      2  C   UNL     1       6.268   5.834  16.426  0.00  0.00    +0.000 C 
ATOM      3  O   UNL     1       6.708   6.985  16.435  0.00  0.00    +0.000 OA
ATOM      4  N   UNL     1       5.007   5.400  16.882  0.00  0.00    +0.000 N 
ATOM      5  C   UNL     1       3.975   6.401  17.287  0.00  0.00    +0.000 A 
ATOM      6  C   UNL     1       4.247   7.785  17.253  0.00  0.00    +0.000 A 
ATOM      7  C   UNL     1       3.319   8.770  17.617  0.00  0.00    +0.000 A 
ATOM      8  C   UNL     1       2.040   8.434  17.990  0.00  0.00    +0.000 A 
ATOM      9  C   UNL     1       1.729   7.074  18.066  0.00  0.00    +0.000 A 
ATOM     10  C   UNL     1       2.669   6.054  17.730  0.00  0.00    +0.000 A 
ATOM     11  C   UNL     1       2.214   4.579  17.847  0.00  0.00    +0.000 C 
ATOM     12  C   UNL     1       0.919   4.421  16.965  0.00  0.00    +0.000 C 
ATOM     13  C   UNL     1       3.250   3.660  17.190  0.00  0.00    +0.000 C 
ATOM     14  C   UNL     1       4.739   4.005  17.417  0.00  0.00    +0.000 C 
ATOM     15  C   UNL     1       5.218   3.972  18.873  0.00  0.00    +0.000 C 
ATOM     16  C   UNL     1       5.474   2.813  16.744  0.00  0.00    +0.000 C 
ENDROOT
BRANCH  11  17
ATOM     17  C   UNL     1       1.880   4.163  19.305  0.00  0.00    +0.000 A 
ATOM     18  C   UNL     1       2.422   4.856  20.403  0.00  0.00    +0.000 A 
ATOM     19  C   UNL     1       2.420   4.299  21.686  0.00  0.00    +0.000 A 
ATOM     20  C   UNL     1       1.747   3.109  21.933  0.00  0.00    +0.000 A 
ATOM     21  C   UNL     1       1.031   2.510  20.906  0.00  0.00    +0.000 A 
ATOM     22  C   UNL     1       1.125   3.013  19.605  0.00  0.00    +0.000 A 
ENDBRANCH  11  17
BRANCH   8  23
ATOM     23  N   UNL     1       1.052   9.407  18.295  0.00  0.00    +0.000 N 
ATOM     24  C   UNL     1       0.664   9.819  19.567  0.00  0.00    +0.000 C 
ATOM     25  O   UNL     1       1.126   9.437  20.638  0.00  0.00    +0.000 OA
ATOM     26  H   UNL     1       0.603   9.843  17.502  0.00  0.00    +0.000 HD
BRANCH  24  27
ATOM     27  C   UNL     1      -0.448  10.848  19.573  0.00  0.00    +0.000 C 
BRANCH  27  28
ATOM     28  C   UNL     1      -1.799  10.157  19.434  0.00  0.00    +0.000 C 
BRANCH  28  29
ATOM     29  C   UNL     1      -2.435  10.399  18.104  0.00  0.00    +0.000 A 
ATOM     30  C   UNL     1      -2.034   9.928  16.871  0.00  0.00    +0.000 A 
ATOM     31  C   UNL     1      -2.861  10.406  15.816  0.00  0.00    +0.000 A 
ATOM     32  C   UNL     1      -3.866  11.225  16.280  0.00  0.00    +0.000 A 
ATOM     33  S   UNL     1      -3.809  11.414  17.978  0.00  0.00    +0.000 S 
ENDBRANCH  28  29
ENDBRANCH  27  28
ENDBRANCH  24  27
ENDBRANCH   8  23
TORSDOF 5
ENDMDL
MODEL 3
REMARK VINA RESULT:      -7.2      4.774      8.424
REMARK  Name = 
REMARK  9 active torsions:
REMARK  status: ('A' for Active; 'I' for Inactive)
REMARK    1  A    between atoms: C_1  and  C_2
REMARK    2  A    between atoms: C_8  and  N_9
REMARK    3  A    between atoms: C_10  and  C_12
REMARK    4  A    between atoms: C_12  and  C_13
REMARK    5  A    between atoms: C_13  and  C_14
REMARK    6  A    between atoms: C_21  and  C_22
REMARK    7  A    between atoms: C_21  and  C_23
REMARK    8  A    between atoms: C_30  and  C_31
REMARK    9  A    between atoms: C_30  and  C_32
REMARK                            x       y       z     vdW  Elec       q    Type
REMARK                         _______ _______ _______ _____ _____    ______ ____
ROOT
ATOM      1  C   UNL     1      -2.626  12.122  23.612  0.00  0.00    +0.000 C 
ATOM      2  C   UNL     1      -1.574  11.364  22.847  0.00  0.00    +0.000 C 
ATOM      3  O   UNL     1      -1.182  10.345  23.420  0.00  0.00    +0.000 OA
ATOM      4  N   UNL     1      -1.168  11.840  21.584  0.00  0.00    +0.000 N 
ATOM      5  C   UNL     1      -0.293  10.997  20.715  0.00  0.00    +0.000 A 
ATOM      6  C   UNL     1       0.167   9.735  21.145  0.00  0.00    +0.000 A 
ATOM      7  C   UNL     1       0.986   8.900  20.373  0.00  0.00    +0.000 A 
ATOM      8  C   UNL     1       1.355   9.253  19.098  0.00  0.00    +0.000 A 
ATOM      9  C   UNL     1       0.946  10.507  18.635  0.00  0.00    +0.000 A 
ATOM     10  C   UNL     1       0.140  11.385  19.416  0.00  0.00    +0.000 A 
ATOM     11  C   UNL     1      -0.257  12.749  18.800  0.00  0.00    +0.000 C 
ATOM     12  C   UNL     1      -0.971  12.449  17.428  0.00  0.00    +0.000 C 
ATOM     13  C   UNL     1      -1.333  13.419  19.663  0.00  0.00    +0.000 C 
ATOM     14  C   UNL     1      -1.173  13.307  21.196  0.00  0.00    +0.000 C 
ATOM     15  C   UNL     1       0.093  13.941  21.783  0.00  0.00    +0.000 C 
ATOM     16  C   UNL     1      -2.331  14.197  21.727  0.00  0.00    +0.000 C 
ENDROOT
BRANCH  11  17
ATOM     17  C   UNL     1       0.963  13.673  18.537  0.00  0.00    +0.000 A 
ATOM     18  C   UNL     1       2.223  13.139  18.210  0.00  0.00    +0.000 A 
ATOM     19  C   UNL     1       3.387  13.908  18.312  0.00  0.00    +0.000 A 
ATOM     20  C   UNL     1       3.306  15.265  18.599  0.00  0.00    +0.000 A 
ATOM     21  C   UNL     1       2.059  15.858  18.725  0.00  0.00    +0.000 A 
ATOM     22  C   UNL     1       0.906  15.066  18.727  0.00  0.00    +0.000 A 
ENDBRANCH  11  17
BRANCH   8  23
ATOM     23  N   UNL     1       2.122   8.401  18.261  0.00  0.00    +0.000 N 
ATOM     24  C   UNL     1       2.773   7.232  18.646  0.00  0.00    +0.000 C 
ATOM     25  O   UNL     1       2.773   6.723  19.763  0.00  0.00    +0.000 OA
ATOM     26  H   UNL     1       2.183   8.675  17.291  0.00  0.00    +0.000 HD
BRANCH  24  27
ATOM     27  C   UNL     1       3.548   6.559  17.532  0.00  0.00    +0.000 C 
BRANCH  27  28
ATOM     28  C   UNL     1       4.478   5.499  18.110  0.00  0.00    +0.000 C 
BRANCH  28  29
ATOM     29  C   UNL     1       3.848   4.145  18.156  0.00  0.00    +0.000 A 
ATOM     30  C   UNL     1       2.903   3.616  17.302  0.00  0.00    +0.000 A 
ATOM     31  C   UNL     1       2.500   2.306  17.687  0.00  0.00    +0.000 A 
ATOM     32  C   UNL     1       3.152   1.879  18.822  0.00  0.00    +0.000 A 
ATOM     33  S   UNL     1       4.242   3.054  19.417  0.00  0.00    +0.000 S 
ENDBRANCH  28  29
ENDBRANCH  27  28
ENDBRANCH  24  27
ENDBRANCH   8  23
TORSDOF 5
ENDMDL
MODEL 4
REMARK VINA RESULT:      -7.2      6.301      8.530
REMARK  Name = 
REMARK  9 active torsions:
REMARK  status: ('A' for Active; 'I' for Inactive)
REMARK    1  A    between atoms: C_1  and  C_2
REMARK    2  A    between atoms: C_8  and  N_9
REMARK    3  A    between atoms: C_10  and  C_12
REMARK    4  A    between atoms: C_12  and  C_13
REMARK    5  A    between atoms: C_13  and  C_14
REMARK    6  A    between atoms: C_21  and  C_22
REMARK    7  A    between atoms: C_21  and  C_23
REMARK    8  A    between atoms: C_30  and  C_31
REMARK    9  A    between atoms: C_30  and  C_32
REMARK                            x       y       z     vdW  Elec       q    Type
REMARK                         _______ _______ _______ _____ _____    ______ ____
ROOT
ATOM      1  C   UNL     1       7.126   5.117  15.371  0.00  0.00    +0.000 C 
ATOM      2  C   UNL     1       6.214   5.999  16.182  0.00  0.00    +0.000 C 
ATOM      3  O   UNL     1       6.600   7.167  16.266  0.00  0.00    +0.000 OA
ATOM      4  N   UNL     1       5.034   5.451  16.723  0.00  0.00    +0.000 N 
ATOM      5  C   UNL     1       4.011   6.346  17.341  0.00  0.00    +0.000 A 
ATOM      6  C   UNL     1       4.214   7.740  17.427  0.00  0.00    +0.000 A 
ATOM      7  C   UNL     1       3.290   8.629  17.992  0.00  0.00    +0.000 A 
ATOM      8  C   UNL     1       2.079   8.185  18.464  0.00  0.00    +0.000 A 
ATOM      9  C   UNL     1       1.840   6.809  18.427  0.00  0.00    +0.000 A 
ATOM     10  C   UNL     1       2.780   5.883  17.885  0.00  0.00    +0.000 A 
ATOM     11  C   UNL     1       2.408   4.380  17.892  0.00  0.00    +0.000 C 
ATOM     12  C   UNL     1       1.029   4.239  17.144  0.00  0.00    +0.000 C 
ATOM     13  C   UNL     1       3.403   3.592  17.032  0.00  0.00    +0.000 C 
ATOM     14  C   UNL     1       4.891   3.996  17.131  0.00  0.00    +0.000 C 
ATOM     15  C   UNL     1       5.533   3.844  18.515  0.00  0.00    +0.000 C 
ATOM     16  C   UNL     1       5.597   2.922  16.259  0.00  0.00    +0.000 C 
ENDROOT
BRANCH  11  17
ATOM     17  C   UNL     1       2.261   3.800  19.325  0.00  0.00    +0.000 A 
ATOM     18  C   UNL     1       1.661   2.547  19.544  0.00  0.00    +0.000 A 
ATOM     19  C   UNL     1       1.210   2.170  20.814  0.00  0.00    +0.000 A 
ATOM     20  C   UNL     1       1.481   2.968  21.919  0.00  0.00    +0.000 A 
ATOM     21  C   UNL     1       2.250   4.112  21.757  0.00  0.00    +0.000 A 
ATOM     22  C   UNL     1       2.606   4.537  20.473  0.00  0.00    +0.000 A 
ENDBRANCH  11  17
BRANCH   8  23
ATOM     23  N   UNL     1       1.090   9.065  18.976  0.00  0.00    +0.000 N 
ATOM     24  C   UNL     1       0.786   9.273  20.319  0.00  0.00    +0.000 C 
ATOM     25  O   UNL     1       1.337   8.758  21.288  0.00  0.00    +0.000 OA
ATOM     26  H   UNL     1       0.571   9.593  18.290  0.00  0.00    +0.000 HD
BRANCH  24  27
ATOM     27  C   UNL     1      -0.351  10.247  20.553  0.00  0.00    +0.000 C 
BRANCH  27  28
ATOM     28  C   UNL     1      -0.459  11.215  19.382  0.00  0.00    +0.000 C 
BRANCH  28  29
ATOM     29  C   UNL     1      -1.790  11.153  18.705  0.00  0.00    +0.000 A 
ATOM     30  C   UNL     1      -2.920  11.894  18.981  0.00  0.00    +0.000 A 
ATOM     31  C   UNL     1      -4.020  11.527  18.156  0.00  0.00    +0.000 A 
ATOM     32  C   UNL     1      -3.692  10.520  17.277  0.00  0.00    +0.000 A 
ATOM     33  S   UNL     1      -2.066  10.021  17.449  0.00  0.00    +0.000 S 
ENDBRANCH  28  29
ENDBRANCH  27  28
ENDBRANCH  24  27
ENDBRANCH   8  23
TORSDOF 5
ENDMDL
MODEL 5
REMARK VINA RESULT:      -7.1      5.260      8.884
REMARK  Name = 
REMARK  9 active torsions:
REMARK  status: ('A' for Active; 'I' for Inactive)
REMARK    1  A    between atoms: C_1  and  C_2
REMARK    2  A    between atoms: C_8  and  N_9
REMARK    3  A    between atoms: C_10  and  C_12
REMARK    4  A    between atoms: C_12  and  C_13
REMARK    5  A    between atoms: C_13  and  C_14
REMARK    6  A    between atoms: C_21  and  C_22
REMARK    7  A    between atoms: C_21  and  C_23
REMARK    8  A    between atoms: C_30  and  C_31
REMARK    9  A    between atoms: C_30  and  C_32
REMARK                            x       y       z     vdW  Elec       q    Type
REMARK                         _______ _______ _______ _____ _____    ______ ____
ROOT
ATOM      1  C   UNL     1      -2.712  12.152  23.781  0.00  0.00    +0.000 C 
ATOM      2  C   UNL     1      -1.660  11.418  22.991  0.00  0.00    +0.000 C 
ATOM      3  O   UNL     1      -1.317  10.348  23.497  0.00  0.00    +0.000 OA
ATOM      4  N   UNL     1      -1.202  11.972  21.779  0.00  0.00    +0.000 N 
ATOM      5  C   UNL     1      -0.328  11.168  20.874  0.00  0.00    +0.000 A 
ATOM      6  C   UNL     1       0.081   9.863  21.222  0.00  0.00    +0.000 A 
ATOM      7  C   UNL     1       0.897   9.061  20.413  0.00  0.00    +0.000 A 
ATOM      8  C   UNL     1       1.315   9.494  19.179  0.00  0.00    +0.000 A 
ATOM      9  C   UNL     1       0.959  10.791  18.799  0.00  0.00    +0.000 A 
ATOM     10  C   UNL     1       0.156  11.636  19.621  0.00  0.00    +0.000 A 
ATOM     11  C   UNL     1      -0.180  13.054  19.097  0.00  0.00    +0.000 C 
ATOM     12  C   UNL     1      -0.861  12.878  17.687  0.00  0.00    +0.000 C 
ATOM     13  C   UNL     1      -1.261  13.692  19.977  0.00  0.00    +0.000 C 
ATOM     14  C   UNL     1      -1.152  13.464  21.501  0.00  0.00    +0.000 C 
ATOM     15  C   UNL     1       0.115  14.011  22.169  0.00  0.00    +0.000 C 
ATOM     16  C   UNL     1      -2.297  14.349  22.064  0.00  0.00    +0.000 C 
ENDROOT
BRANCH  11  17
ATOM     17  C   UNL     1       1.074  13.954  18.938  0.00  0.00    +0.000 A 
ATOM     18  C   UNL     1       0.960  15.353  18.852  0.00  0.00    +0.000 A 
ATOM     19  C   UNL     1       2.012  16.139  18.368  0.00  0.00    +0.000 A 
ATOM     20  C   UNL     1       3.249  15.567  18.100  0.00  0.00    +0.000 A 
ATOM     21  C   UNL     1       3.445  14.220  18.371  0.00  0.00    +0.000 A 
ATOM     22  C   UNL     1       2.364  13.420  18.753  0.00  0.00    +0.000 A 
ENDBRANCH  11  17
BRANCH   8  23
ATOM     23  N   UNL     1       2.081   8.682  18.302  0.00  0.00    +0.000 N 
ATOM     24  C   UNL     1       2.651   7.448  18.606  0.00  0.00    +0.000 C 
ATOM     25  O   UNL     1       2.567   6.840  19.669  0.00  0.00    +0.000 OA
ATOM     26  H   UNL     1       2.207   9.040  17.366  0.00  0.00    +0.000 HD
BRANCH  24  27
ATOM     27  C   UNL     1       3.449   6.838  17.472  0.00  0.00    +0.000 C 
BRANCH  27  28
ATOM     28  C   UNL     1       4.477   5.859  18.024  0.00  0.00    +0.000 C 
BRANCH  28  29
ATOM     29  C   UNL     1       5.290   5.211  16.951  0.00  0.00    +0.000 A 
ATOM     30  C   UNL     1       4.935   4.157  16.134  0.00  0.00    +0.000 A 
ATOM     31  C   UNL     1       5.989   3.777  15.256  0.00  0.00    +0.000 A 
ATOM     32  C   UNL     1       7.112   4.554  15.432  0.00  0.00    +0.000 A 
ATOM     33  S   UNL     1       6.893   5.734  16.650  0.00  0.00    +0.000 S 
ENDBRANCH  28  29
ENDBRANCH  27  28
ENDBRANCH  24  27
ENDBRANCH   8  23
TORSDOF 5
ENDMDL
MODEL 6
REMARK VINA RESULT:      -7.0      4.068      7.720
REMARK  Name = 
REMARK  9 active torsions:
REMARK  status: ('A' for Active; 'I' for Inactive)
REMARK    1  A    between atoms: C_1  and  C_2
REMARK    2  A    between atoms: C_8  and  N_9
REMARK    3  A    between atoms: C_10  and  C_12
REMARK    4  A    between atoms: C_12  and  C_13
REMARK    5  A    between atoms: C_13  and  C_14
REMARK    6  A    between atoms: C_21  and  C_22
REMARK    7  A    between atoms: C_21  and  C_23
REMARK    8  A    between atoms: C_30  and  C_31
REMARK    9  A    between atoms: C_30  and  C_32
REMARK                            x       y       z     vdW  Elec       q    Type
REMARK                         _______ _______ _______ _____ _____    ______ ____
ROOT
ATOM      1  C   UNL     1      -3.874  13.316  23.480  0.00  0.00    +0.000 C 
ATOM      2  C   UNL     1      -2.777  12.363  23.084  0.00  0.00    +0.000 C 
ATOM      3  O   UNL     1      -2.771  11.317  23.736  0.00  0.00    +0.000 OA
ATOM      4  N   UNL     1      -1.912  12.714  22.029  0.00  0.00    +0.000 N 
ATOM      5  C   UNL     1      -0.962  11.704  21.475  0.00  0.00    +0.000 A 
ATOM      6  C   UNL     1      -0.887  10.400  22.011  0.00  0.00    +0.000 A 
ATOM      7  C   UNL     1      -0.019   9.410  21.532  0.00  0.00    +0.000 A 
ATOM      8  C   UNL     1       0.795   9.645  20.450  0.00  0.00    +0.000 A 
ATOM      9  C   UNL     1       0.778  10.930  19.901  0.00  0.00    +0.000 A 
ATOM     10  C   UNL     1      -0.075  11.962  20.393  0.00  0.00    +0.000 A 
ATOM     11  C   UNL     1      -0.013  13.347  19.704  0.00  0.00    +0.000 C 
ATOM     12  C   UNL     1      -0.288  13.116  18.171  0.00  0.00    +0.000 C 
ATOM     13  C   UNL     1      -1.178  14.221  20.184  0.00  0.00    +0.000 C 
ATOM     14  C   UNL     1      -1.542  14.145  21.683  0.00  0.00    +0.000 C 
ATOM     15  C   UNL     1      -0.443  14.582  22.659  0.00  0.00    +0.000 C 
ATOM     16  C   UNL     1      -2.639  15.236  21.826  0.00  0.00    +0.000 C 
ENDROOT
BRANCH  11  17
ATOM     17  C   UNL     1       1.365  14.043  19.866  0.00  0.00    +0.000 A 
ATOM     18  C   UNL     1       2.345  13.524  20.732  0.00  0.00    +0.000 A 
ATOM     19  C   UNL     1       3.429  14.303  21.151  0.00  0.00    +0.000 A 
ATOM     20  C   UNL     1       3.642  15.561  20.603  0.00  0.00    +0.000 A 
ATOM     21  C   UNL     1       2.801  16.012  19.595  0.00  0.00    +0.000 A 
ATOM     22  C   UNL     1       1.661  15.276  19.257  0.00  0.00    +0.000 A 
ENDBRANCH  11  17
BRANCH   8  23
ATOM     23  N   UNL     1       1.633   8.645  19.893  0.00  0.00    +0.000 N 
ATOM     24  C   UNL     1       1.922   8.468  18.542  0.00  0.00    +0.000 C 
ATOM     25  O   UNL     1       1.527   9.158  17.607  0.00  0.00    +0.000 OA
ATOM     26  H   UNL     1       2.066   8.015  20.552  0.00  0.00    +0.000 HD
BRANCH  24  27
ATOM     27  C   UNL     1       2.821   7.283  18.251  0.00  0.00    +0.000 C 
BRANCH  27  28
ATOM     28  C   UNL     1       2.712   6.257  19.372  0.00  0.00    +0.000 C 
BRANCH  28  29
ATOM     29  C   UNL     1       2.468   4.874  18.864  0.00  0.00    +0.000 A 
ATOM     30  C   UNL     1       2.687   4.383  17.593  0.00  0.00    +0.000 A 
ATOM     31  C   UNL     1       2.290   3.022  17.466  0.00  0.00    +0.000 A 
ATOM     32  C   UNL     1       1.784   2.520  18.643  0.00  0.00    +0.000 A 
ATOM     33  S   UNL     1       1.788   3.686  19.893  0.00  0.00    +0.000 S 
ENDBRANCH  28  29
ENDBRANCH  27  28
ENDBRANCH  24  27
ENDBRANCH   8  23
TORSDOF 5
ENDMDL
MODEL 7
REMARK VINA RESULT:      -7.0      4.586      8.334
REMARK  Name = 
REMARK  9 active torsions:
REMARK  status: ('A' for Active; 'I' for Inactive)
REMARK    1  A    between atoms: C_1  and  C_2
REMARK    2  A    between atoms: C_8  and  N_9
REMARK    3  A    between atoms: C_10  and  C_12
REMARK    4  A    between atoms: C_12  and  C_13
REMARK    5  A    between atoms: C_13  and  C_14
REMARK    6  A    between atoms: C_21  and  C_22
REMARK    7  A    between atoms: C_21  and  C_23
REMARK    8  A    between atoms: C_30  and  C_31
REMARK    9  A    between atoms: C_30  and  C_32
REMARK                            x       y       z     vdW  Elec       q    Type
REMARK                         _______ _______ _______ _____ _____    ______ ____
ROOT
ATOM      1  C   UNL     1      -3.074  12.468  23.574  0.00  0.00    +0.000 C 
ATOM      2  C   UNL     1      -1.987  11.642  22.936  0.00  0.00    +0.000 C 
ATOM      3  O   UNL     1      -1.711  10.618  23.564  0.00  0.00    +0.000 OA
ATOM      4  N   UNL     1      -1.428  12.071  21.716  0.00  0.00    +0.000 N 
ATOM      5  C   UNL     1      -0.511  11.168  20.958  0.00  0.00    +0.000 A 
ATOM      6  C   UNL     1      -0.164   9.894  21.454  0.00  0.00    +0.000 A 
ATOM      7  C   UNL     1       0.687   9.003  20.787  0.00  0.00    +0.000 A 
ATOM      8  C   UNL     1       1.205   9.310  19.552  0.00  0.00    +0.000 A 
ATOM      9  C   UNL     1       0.913  10.572  19.029  0.00  0.00    +0.000 A 
ATOM     10  C   UNL     1       0.075  11.506  19.706  0.00  0.00    +0.000 A 
ATOM     11  C   UNL     1      -0.185  12.874  19.029  0.00  0.00    +0.000 C 
ATOM     12  C   UNL     1      -0.765  12.581  17.595  0.00  0.00    +0.000 C 
ATOM     13  C   UNL     1      -1.309  13.615  19.763  0.00  0.00    +0.000 C 
ATOM     14  C   UNL     1      -1.317  13.528  21.305  0.00  0.00    +0.000 C 
ATOM     15  C   UNL     1      -0.089  14.111  22.013  0.00  0.00    +0.000 C 
ATOM     16  C   UNL     1      -2.477  14.485  21.697  0.00  0.00    +0.000 C 
ENDROOT
BRANCH  11  17
ATOM     17  C   UNL     1       1.102  13.731  18.882  0.00  0.00    +0.000 A 
ATOM     18  C   UNL     1       1.040  15.135  18.833  0.00  0.00    +0.000 A 
ATOM     19  C   UNL     1       2.117  15.894  18.360  0.00  0.00    +0.000 A 
ATOM     20  C   UNL     1       3.329  15.282  18.067  0.00  0.00    +0.000 A 
ATOM     21  C   UNL     1       3.477  13.923  18.302  0.00  0.00    +0.000 A 
ATOM     22  C   UNL     1       2.369  13.154  18.673  0.00  0.00    +0.000 A 
ENDBRANCH  11  17
BRANCH   8  23
ATOM     23  N   UNL     1       2.011   8.404  18.815  0.00  0.00    +0.000 N 
ATOM     24  C   UNL     1       2.382   7.120  19.208  0.00  0.00    +0.000 C 
ATOM     25  O   UNL     1       2.055   6.542  20.240  0.00  0.00    +0.000 OA
ATOM     26  H   UNL     1       2.330   8.730  17.914  0.00  0.00    +0.000 HD
BRANCH  24  27
ATOM     27  C   UNL     1       3.285   6.407  18.221  0.00  0.00    +0.000 C 
BRANCH  27  28
ATOM     28  C   UNL     1       2.601   5.148  17.703  0.00  0.00    +0.000 C 
BRANCH  28  29
ATOM     29  C   UNL     1       3.124   3.904  18.343  0.00  0.00    +0.000 A 
ATOM     30  C   UNL     1       4.086   3.792  19.326  0.00  0.00    +0.000 A 
ATOM     31  C   UNL     1       4.363   2.436  19.658  0.00  0.00    +0.000 A 
ATOM     32  C   UNL     1       3.602   1.559  18.918  0.00  0.00    +0.000 A 
ATOM     33  S   UNL     1       2.562   2.369  17.831  0.00  0.00    +0.000 S 
ENDBRANCH  28  29
ENDBRANCH  27  28
ENDBRANCH  24  27
ENDBRANCH   8  23
TORSDOF 5
ENDMDL
MODEL 8
REMARK VINA RESULT:      -7.0      6.176      8.669
REMARK  Name = 
REMARK  9 active torsions:
REMARK  status: ('A' for Active; 'I' for Inactive)
REMARK    1  A    between atoms: C_1  and  C_2
REMARK    2  A    between atoms: C_8  and  N_9
REMARK    3  A    between atoms: C_10  and  C_12
REMARK    4  A    between atoms: C_12  and  C_13
REMARK    5  A    between atoms: C_13  and  C_14
REMARK    6  A    between atoms: C_21  and  C_22
REMARK    7  A    between atoms: C_21  and  C_23
REMARK    8  A    between atoms: C_30  and  C_31
REMARK    9  A    between atoms: C_30  and  C_32
REMARK                            x       y       z     vdW  Elec       q    Type
REMARK                         _______ _______ _______ _____ _____    ______ ____
ROOT
ATOM      1  C   UNL     1       6.992   5.016  15.555  0.00  0.00    +0.000 C 
ATOM      2  C   UNL     1       6.079   5.954  16.299  0.00  0.00    +0.000 C 
ATOM      3  O   UNL     1       6.504   7.109  16.365  0.00  0.00    +0.000 OA
ATOM      4  N   UNL     1       4.859   5.465  16.806  0.00  0.00    +0.000 N 
ATOM      5  C   UNL     1       3.844   6.414  17.353  0.00  0.00    +0.000 A 
ATOM      6  C   UNL     1       4.094   7.802  17.405  0.00  0.00    +0.000 A 
ATOM      7  C   UNL     1       3.181   8.740  17.904  0.00  0.00    +0.000 A 
ATOM      8  C   UNL     1       1.935   8.354  18.337  0.00  0.00    +0.000 A 
ATOM      9  C   UNL     1       1.649   6.986  18.331  0.00  0.00    +0.000 A 
ATOM     10  C   UNL     1       2.576   6.012  17.858  0.00  0.00    +0.000 A 
ATOM     11  C   UNL     1       2.150   4.524  17.894  0.00  0.00    +0.000 C 
ATOM     12  C   UNL     1       0.799   4.407  17.093  0.00  0.00    +0.000 C 
ATOM     13  C   UNL     1       3.151   3.675  17.102  0.00  0.00    +0.000 C 
ATOM     14  C   UNL     1       4.646   4.029  17.251  0.00  0.00    +0.000 C 
ATOM     15  C   UNL     1       5.225   3.898  18.665  0.00  0.00    +0.000 C 
ATOM     16  C   UNL     1       5.349   2.904  16.443  0.00  0.00    +0.000 C 
ENDROOT
BRANCH  11  17
ATOM     17  C   UNL     1       1.923   3.995  19.336  0.00  0.00    +0.000 A 
ATOM     18  C   UNL     1       2.280   4.764  20.459  0.00  0.00    +0.000 A 
ATOM     19  C   UNL     1       2.410   4.184  21.725  0.00  0.00    +0.000 A 
ATOM     20  C   UNL     1       2.042   2.860  21.930  0.00  0.00    +0.000 A 
ATOM     21  C   UNL     1       1.493   2.138  20.880  0.00  0.00    +0.000 A 
ATOM     22  C   UNL     1       1.466   2.689  19.595  0.00  0.00    +0.000 A 
ENDBRANCH  11  17
BRANCH   8  23
ATOM     23  N   UNL     1       0.958   9.283  18.780  0.00  0.00    +0.000 N 
ATOM     24  C   UNL     1       0.579   9.516  20.100  0.00  0.00    +0.000 C 
ATOM     25  O   UNL     1       1.040   8.982  21.104  0.00  0.00    +0.000 OA
ATOM     26  H   UNL     1       0.511   9.831  18.059  0.00  0.00    +0.000 HD
BRANCH  24  27
ATOM     27  C   UNL     1      -0.523  10.544  20.255  0.00  0.00    +0.000 C 
BRANCH  27  28
ATOM     28  C   UNL     1      -0.707  11.313  18.953  0.00  0.00    +0.000 C 
BRANCH  28  29
ATOM     29  C   UNL     1      -0.692  12.794  19.152  0.00  0.00    +0.000 A 
ATOM     30  C   UNL     1       0.111  13.728  18.530  0.00  0.00    +0.000 A 
ATOM     31  C   UNL     1      -0.126  15.047  19.010  0.00  0.00    +0.000 A 
ATOM     32  C   UNL     1      -1.102  15.075  19.980  0.00  0.00    +0.000 A 
ATOM     33  S   UNL     1      -1.727  13.519  20.309  0.00  0.00    +0.000 S 
ENDBRANCH  28  29
ENDBRANCH  27  28
ENDBRANCH  24  27
ENDBRANCH   8  23
TORSDOF 5
ENDMDL
MODEL 9
REMARK VINA RESULT:      -7.0      6.188      8.502
REMARK  Name = 
REMARK  9 active torsions:
REMARK  status: ('A' for Active; 'I' for Inactive)
REMARK    1  A    between atoms: C_1  and  C_2
REMARK    2  A    between atoms: C_8  and  N_9
REMARK    3  A    between atoms: C_10  and  C_12
REMARK    4  A    between atoms: C_12  and  C_13
REMARK    5  A    between atoms: C_13  and  C_14
REMARK    6  A    between atoms: C_21  and  C_22
REMARK    7  A    between atoms: C_21  and  C_23
REMARK    8  A    between atoms: C_30  and  C_31
REMARK    9  A    between atoms: C_30  and  C_32
REMARK                            x       y       z     vdW  Elec       q    Type
REMARK                         _______ _______ _______ _____ _____    ______ ____
ROOT
ATOM      1  C   UNL     1       7.009   4.913  15.550  0.00  0.00    +0.000 C 
ATOM      2  C   UNL     1       6.112   5.872  16.288  0.00  0.00    +0.000 C 
ATOM      3  O   UNL     1       6.557   7.020  16.347  0.00  0.00    +0.000 OA
ATOM      4  N   UNL     1       4.882   5.408  16.796  0.00  0.00    +0.000 N 
ATOM      5  C   UNL     1       3.884   6.379  17.335  0.00  0.00    +0.000 A 
ATOM      6  C   UNL     1       4.159   7.762  17.379  0.00  0.00    +0.000 A 
ATOM      7  C   UNL     1       3.262   8.719  17.871  0.00  0.00    +0.000 A 
ATOM      8  C   UNL     1       2.009   8.359  18.304  0.00  0.00    +0.000 A 
ATOM      9  C   UNL     1       1.698   6.996  18.306  0.00  0.00    +0.000 A 
ATOM     10  C   UNL     1       2.608   6.003  17.840  0.00  0.00    +0.000 A 
ATOM     11  C   UNL     1       2.155   4.523  17.885  0.00  0.00    +0.000 C 
ATOM     12  C   UNL     1       0.804   4.426  17.081  0.00  0.00    +0.000 C 
ATOM     13  C   UNL     1       3.141   3.651  17.098  0.00  0.00    +0.000 C 
ATOM     14  C   UNL     1       4.643   3.979  17.249  0.00  0.00    +0.000 C 
ATOM     15  C   UNL     1       5.217   3.846  18.664  0.00  0.00    +0.000 C 
ATOM     16  C   UNL     1       5.326   2.837  16.448  0.00  0.00    +0.000 C 
ENDROOT
BRANCH  11  17
ATOM     17  C   UNL     1       1.916   4.006  19.329  0.00  0.00    +0.000 A 
ATOM     18  C   UNL     1       2.291   4.773  20.447  0.00  0.00    +0.000 A 
ATOM     19  C   UNL     1       2.407   4.196  21.717  0.00  0.00    +0.000 A 
ATOM     20  C   UNL     1       2.009   2.882  21.929  0.00  0.00    +0.000 A 
ATOM     21  C   UNL     1       1.444   2.168  20.882  0.00  0.00    +0.000 A 
ATOM     22  C   UNL     1       1.429   2.713  19.594  0.00  0.00    +0.000 A 
ENDBRANCH  11  17
BRANCH   8  23
ATOM     23  N   UNL     1       1.049   9.308  18.740  0.00  0.00    +0.000 N 
ATOM     24  C   UNL     1       0.742   9.625  20.061  0.00  0.00    +0.000 C 
ATOM     25  O   UNL     1       1.265   9.163  21.071  0.00  0.00    +0.000 OA
ATOM     26  H   UNL     1       0.555   9.803  18.011  0.00  0.00    +0.000 HD
BRANCH  24  27
ATOM     27  C   UNL     1      -0.361  10.653  20.211  0.00  0.00    +0.000 C 
BRANCH  27  28
ATOM     28  C   UNL     1      -0.669  10.877  21.687  0.00  0.00    +0.000 C 
BRANCH  28  29
ATOM     29  C   UNL     1      -1.740  11.896  21.903  0.00  0.00    +0.000 A 
ATOM     30  C   UNL     1      -2.298  12.303  23.098  0.00  0.00    +0.000 A 
ATOM     31  C   UNL     1      -3.331  13.264  22.910  0.00  0.00    +0.000 A 
ATOM     32  C   UNL     1      -3.524  13.560  21.579  0.00  0.00    +0.000 A 
ATOM     33  S   UNL     1      -2.466  12.681  20.565  0.00  0.00    +0.000 S 
ENDBRANCH  28  29
ENDBRANCH  27  28
ENDBRANCH  24  27
ENDBRANCH   8  23
TORSDOF 5
ENDMDL
