MODEL 1
REMARK VINA RESULT:      -7.2      0.000      0.000
REMARK  Name = 
REMARK  8 active torsions:
REMARK  status: ('A' for Active; 'I' for Inactive)
REMARK    1  A    between atoms: C_1  and  O_2
REMARK    2  A    between atoms: O_2  and  C_3
REMARK    3  A    between atoms: C_5  and  C_6
REMARK    4  A    between atoms: C_9  and  C_10
REMARK    5  A    between atoms: C_11  and  S_12
REMARK    6  A    between atoms: S_12  and  N_15
REMARK    7  A    between atoms: N_15  and  C_16
REMARK    8  A    between atoms: C_16  and  C_17
REMARK                            x       y       z     vdW  Elec       q    Type
REMARK                         _______ _______ _______ _____ _____    ______ ____
ROOT
ATOM      1  S   UNL     1       3.125   6.227  18.296  0.00  0.00    +0.000 S 
ATOM      2  O   UNL     1       2.234   5.299  17.636  0.00  0.00    +0.000 OA
ATOM      3  O   UNL     1       3.911   7.192  17.553  0.00  0.00    +0.000 OA
ENDROOT
BRANCH   1  12
ATOM      4  C   UNL     1       1.687   6.667  20.670  0.00  0.00    +0.000 A 
ATOM      5  C   UNL     1       0.911   7.476  21.510  0.00  0.00    +0.000 A 
ATOM      6  C   UNL     1       0.554   8.780  21.155  0.00  0.00    +0.000 A 
ATOM      7  C   UNL     1      -0.267   9.588  22.128  0.00  0.00    +0.000 C 
ATOM      8  C   UNL     1       0.990   9.300  19.927  0.00  0.00    +0.000 A 
ATOM      9 CL   UNL     1       0.545  10.931  19.524  0.00  0.00    +0.000 Cl
ATOM     10  C   UNL     1       1.776   8.519  19.049  0.00  0.00    +0.000 A 
ATOM     11  C   UNL     1       2.250   9.082  17.725  0.00  0.00    +0.000 C 
ATOM     12  C   UNL     1       2.122   7.187  19.438  0.00  0.00    +0.000 A 
BRANCH   4  14
ATOM     13  C   UNL     1       1.206   4.337  20.757  0.00  0.00    +0.000 C 
ATOM     14  O   UNL     1       2.086   5.419  21.071  0.00  0.00    +0.000 OA
ENDBRANCH   4  14
ENDBRANCH   1  12
BRANCH   1  15
ATOM     15  N   UNL     1       4.235   5.314  19.180  0.00  0.00    +0.000 NA
ATOM     16  H   UNL     1       3.858   5.115  20.110  0.00  0.00    +0.000 HD
BRANCH  15  17
ATOM     17  C   UNL     1       4.700   4.088  18.506  0.00  0.00    +0.000 C 
BRANCH  17  18
ATOM     18  C   UNL     1       5.558   4.404  17.303  0.00  0.00    +0.000 A 
ATOM     19  C   UNL     1       6.656   5.286  17.431  0.00  0.00    +0.000 A 
ATOM     20  C   UNL     1       7.454   5.610  16.330  0.00  0.00    +0.000 A 
ATOM     21  C   UNL     1       7.132   5.043  15.117  0.00  0.00    +0.000 A 
ATOM     22  C   UNL     1       6.063   4.191  14.980  0.00  0.00    +0.000 A 
ATOM     23  C   UNL     1       5.255   3.858  16.045  0.00  0.00    +0.000 A 
ATOM     24  O   UNL     1       5.913   3.745  13.703  0.00  0.00    +0.000 OA
ATOM     25  C   UNL     1       6.968   4.476  13.040  0.00  0.00    +0.000 C 
ATOM     26  O   UNL     1       7.789   5.243  13.944  0.00  0.00    +0.000 OA
ENDBRANCH  17  18
ENDBRANCH  15  17
ENDBRANCH   1  15
TORSDOF 5
ENDMDL
MODEL 2
REMARK VINA RESULT:      -7.2      4.572      6.370
REMARK  Name = 
REMARK  8 active torsions:
REMARK  status: ('A' for Active; 'I' for Inactive)
REMARK    1  A    between atoms: C_1  and  O_2
REMARK    2  A    between atoms: O_2  and  C_3
REMARK    3  A    between atoms: C_5  and  C_6
REMARK    4  A    between atoms: C_9  and  C_10
REMARK    5  A    between atoms: C_11  and  S_12
REMARK    6  A    between atoms: S_12  and  N_15
REMARK    7  A    between atoms: N_15  and  C_16
REMARK    8  A    between atoms: C_16  and  C_17
REMARK                            x       y       z     vdW  Elec       q    Type
REMARK                         _______ _______ _______ _____ _____    ______ ____
ROOT
ATOM      1  S   UNL     1       5.958   6.337  16.347  0.00  0.00    +0.000 S 
ATOM      2  O   UNL     1       7.059   5.408  16.472  0.00  0.00    +0.000 OA
ATOM      3  O   UNL     1       5.446   6.748  15.055  0.00  0.00    +0.000 OA
ENDROOT
BRANCH   1  12
ATOM      4  C   UNL     1       3.626   6.387  17.915  0.00  0.00    +0.000 A 
ATOM      5  C   UNL     1       2.563   5.749  18.566  0.00  0.00    +0.000 A 
ATOM      6  C   UNL     1       2.413   4.359  18.543  0.00  0.00    +0.000 A 
ATOM      7  C   UNL     1       1.228   3.754  19.254  0.00  0.00    +0.000 C 
ATOM      8  C   UNL     1       3.347   3.579  17.843  0.00  0.00    +0.000 A 
ATOM      9 CL   UNL     1       3.120   1.856  17.819  0.00  0.00    +0.000 Cl
ATOM     10  C   UNL     1       4.434   4.184  17.172  0.00  0.00    +0.000 A 
ATOM     11  C   UNL     1       5.440   3.342  16.413  0.00  0.00    +0.000 C 
ATOM     12  C   UNL     1       4.563   5.607  17.216  0.00  0.00    +0.000 A 
BRANCH   4  14
ATOM     13  C   UNL     1       2.475   8.472  17.854  0.00  0.00    +0.000 C 
ATOM     14  O   UNL     1       3.712   7.755  17.890  0.00  0.00    +0.000 OA
ENDBRANCH   4  14
ENDBRANCH   1  12
BRANCH   1  15
ATOM     15  N   UNL     1       6.409   7.759  17.137  0.00  0.00    +0.000 NA
ATOM     16  H   UNL     1       5.697   8.012  17.827  0.00  0.00    +0.000 HD
BRANCH  15  17
ATOM     17  C   UNL     1       7.758   7.733  17.728  0.00  0.00    +0.000 C 
BRANCH  17  18
ATOM     18  C   UNL     1       8.242   9.121  18.077  0.00  0.00    +0.000 A 
ATOM     19  C   UNL     1       9.136   9.306  19.158  0.00  0.00    +0.000 A 
ATOM     20  C   UNL     1       9.584  10.582  19.513  0.00  0.00    +0.000 A 
ATOM     21  C   UNL     1       9.123  11.650  18.778  0.00  0.00    +0.000 A 
ATOM     22  C   UNL     1       8.249  11.483  17.731  0.00  0.00    +0.000 A 
ATOM     23  C   UNL     1       7.786  10.239  17.360  0.00  0.00    +0.000 A 
ATOM     24  O   UNL     1       7.913  12.661  17.139  0.00  0.00    +0.000 OA
ATOM     25  C   UNL     1       8.620  13.595  17.984  0.00  0.00    +0.000 C 
ATOM     26  O   UNL     1       9.446  12.956  18.978  0.00  0.00    +0.000 OA
ENDBRANCH  17  18
ENDBRANCH  15  17
ENDBRANCH   1  15
TORSDOF 5
ENDMDL
MODEL 3
REMARK VINA RESULT:      -7.2      3.636      5.548
REMARK  Name = 
REMARK  8 active torsions:
REMARK  status: ('A' for Active; 'I' for Inactive)
REMARK    1  A    between atoms: C_1  and  O_2
REMARK    2  A    between atoms: O_2  and  C_3
REMARK    3  A    between atoms: C_5  and  C_6
REMARK    4  A    between atoms: C_9  and  C_10
REMARK    5  A    between atoms: C_11  and  S_12
REMARK    6  A    between atoms: S_12  and  N_15
REMARK    7  A    between atoms: N_15  and  C_16
REMARK    8  A    between atoms: C_16  and  C_17
REMARK                            x       y       z     vdW  Elec       q    Type
REMARK                         _______ _______ _______ _____ _____    ______ ____
ROOT
ATOM      1  S   UNL     1       0.443   9.182  22.155  0.00  0.00    +0.000 S 
ATOM      2  O   UNL     1       1.038   9.675  23.377  0.00  0.00    +0.000 OA
ATOM      3  O   UNL     1      -0.827   8.484  22.150  0.00  0.00    +0.000 OA
ENDROOT
BRANCH   1  12
ATOM      4  C   UNL     1       0.803  10.660  19.792  0.00  0.00    +0.000 A 
ATOM      5  C   UNL     1       0.588  11.798  19.004  0.00  0.00    +0.000 A 
ATOM      6  C   UNL     1      -0.179  12.875  19.458  0.00  0.00    +0.000 A 
ATOM      7  C   UNL     1      -0.376  14.053  18.538  0.00  0.00    +0.000 C 
ATOM      8  C   UNL     1      -0.756  12.816  20.736  0.00  0.00    +0.000 A 
ATOM      9 CL   UNL     1      -1.718  14.164  21.263  0.00  0.00    +0.000 Cl
ATOM     10  C   UNL     1      -0.565  11.686  21.564  0.00  0.00    +0.000 A 
ATOM     11  C   UNL     1      -1.192  11.621  22.941  0.00  0.00    +0.000 C 
ATOM     12  C   UNL     1       0.227  10.601  21.073  0.00  0.00    +0.000 A 
BRANCH   4  14
ATOM     13  C   UNL     1       1.769   9.593  17.895  0.00  0.00    +0.000 C 
ATOM     14  O   UNL     1       1.496   9.586  19.298  0.00  0.00    +0.000 OA
ENDBRANCH   4  14
ENDBRANCH   1  12
BRANCH   1  15
ATOM     15  N   UNL     1       1.553   8.122  21.449  0.00  0.00    +0.000 NA
ATOM     16  H   UNL     1       2.306   7.920  22.111  0.00  0.00    +0.000 HD
BRANCH  15  17
ATOM     17  C   UNL     1       0.962   6.890  20.899  0.00  0.00    +0.000 C 
BRANCH  17  18
ATOM     18  C   UNL     1       2.022   5.940  20.393  0.00  0.00    +0.000 A 
ATOM     19  C   UNL     1       2.916   6.355  19.378  0.00  0.00    +0.000 A 
ATOM     20  C   UNL     1       3.894   5.490  18.879  0.00  0.00    +0.000 A 
ATOM     21  C   UNL     1       3.954   4.219  19.407  0.00  0.00    +0.000 A 
ATOM     22  C   UNL     1       3.086   3.803  20.387  0.00  0.00    +0.000 A 
ATOM     23  C   UNL     1       2.109   4.631  20.895  0.00  0.00    +0.000 A 
ATOM     24  O   UNL     1       3.309   2.516  20.768  0.00  0.00    +0.000 OA
ATOM     25  C   UNL     1       4.369   2.149  19.859  0.00  0.00    +0.000 C 
ATOM     26  O   UNL     1       4.832   3.246  19.045  0.00  0.00    +0.000 OA
ENDBRANCH  17  18
ENDBRANCH  15  17
ENDBRANCH   1  15
TORSDOF 5
ENDMDL
MODEL 4
REMARK VINA RESULT:      -7.2      2.836      4.906
REMARK  Name = 
REMARK  8 active torsions:
REMARK  status: ('A' for Active; 'I' for Inactive)
REMARK    1  A    between atoms: C_1  and  O_2
REMARK    2  A    between atoms: O_2  and  C_3
REMARK    3  A    between atoms: C_5  and  C_6
REMARK    4  A    between atoms: C_9  and  C_10
REMARK    5  A    between atoms: C_11  and  S_12
REMARK    6  A    between atoms: S_12  and  N_15
REMARK    7  A    between atoms: N_15  and  C_16
REMARK    8  A    between atoms: C_16  and  C_17
REMARK                            x       y       z     vdW  Elec       q    Type
REMARK                         _______ _______ _______ _____ _____    ______ ____
ROOT
ATOM      1  S   UNL     1       0.662   8.854  21.797  0.00  0.00    +0.000 S 
ATOM      2  O   UNL     1       1.278   9.263  23.040  0.00  0.00    +0.000 OA
ATOM      3  O   UNL     1      -0.594   8.132  21.767  0.00  0.00    +0.000 OA
ENDROOT
BRANCH   1  12
ATOM      4  C   UNL     1       0.955  10.527  19.559  0.00  0.00    +0.000 A 
ATOM      5  C   UNL     1       0.698  11.717  18.867  0.00  0.00    +0.000 A 
ATOM      6  C   UNL     1      -0.098  12.730  19.411  0.00  0.00    +0.000 A 
ATOM      7  C   UNL     1      -0.340  13.971  18.589  0.00  0.00    +0.000 C 
ATOM      8  C   UNL     1      -0.662  12.550  20.683  0.00  0.00    +0.000 A 
ATOM      9 CL   UNL     1      -1.660  13.821  21.323  0.00  0.00    +0.000 Cl
ATOM     10  C   UNL     1      -0.428  11.364  21.416  0.00  0.00    +0.000 A 
ATOM     11  C   UNL     1      -1.041  11.169  22.788  0.00  0.00    +0.000 C 
ATOM     12  C   UNL     1       0.392  10.348  20.835  0.00  0.00    +0.000 A 
BRANCH   4  14
ATOM     13  C   UNL     1       1.308   9.159  17.642  0.00  0.00    +0.000 C 
ATOM     14  O   UNL     1       1.677   9.519  18.976  0.00  0.00    +0.000 OA
ENDBRANCH   4  14
ENDBRANCH   1  12
BRANCH   1  15
ATOM     15  N   UNL     1       1.774   7.876  20.986  0.00  0.00    +0.000 NA
ATOM     16  H   UNL     1       2.710   8.021  21.373  0.00  0.00    +0.000 HD
BRANCH  15  17
ATOM     17  C   UNL     1       1.417   6.447  20.939  0.00  0.00    +0.000 C 
BRANCH  17  18
ATOM     18  C   UNL     1       2.078   5.744  19.777  0.00  0.00    +0.000 A 
ATOM     19  C   UNL     1       1.614   4.472  19.364  0.00  0.00    +0.000 A 
ATOM     20  C   UNL     1       2.220   3.792  18.304  0.00  0.00    +0.000 A 
ATOM     21  C   UNL     1       3.286   4.400  17.679  0.00  0.00    +0.000 A 
ATOM     22  C   UNL     1       3.749   5.631  18.076  0.00  0.00    +0.000 A 
ATOM     23  C   UNL     1       3.175   6.323  19.120  0.00  0.00    +0.000 A 
ATOM     24  O   UNL     1       4.809   6.053  17.334  0.00  0.00    +0.000 OA
ATOM     25  C   UNL     1       5.003   4.910  16.473  0.00  0.00    +0.000 C 
ATOM     26  O   UNL     1       3.996   3.891  16.637  0.00  0.00    +0.000 OA
ENDBRANCH  17  18
ENDBRANCH  15  17
ENDBRANCH   1  15
TORSDOF 5
ENDMDL
MODEL 5
REMARK VINA RESULT:      -7.0      3.078      7.106
REMARK  Name = 
REMARK  8 active torsions:
REMARK  status: ('A' for Active; 'I' for Inactive)
REMARK    1  A    between atoms: C_1  and  O_2
REMARK    2  A    between atoms: O_2  and  C_3
REMARK    3  A    between atoms: C_5  and  C_6
REMARK    4  A    between atoms: C_9  and  C_10
REMARK    5  A    between atoms: C_11  and  S_12
REMARK    6  A    between atoms: S_12  and  N_15
REMARK    7  A    between atoms: N_15  and  C_16
REMARK    8  A    between atoms: C_16  and  C_17
REMARK                            x       y       z     vdW  Elec       q    Type
REMARK                         _______ _______ _______ _____ _____    ______ ____
ROOT
ATOM      1  S   UNL     1       3.930   3.656  19.405  0.00  0.00    +0.000 S 
ATOM      2  O   UNL     1       2.647   3.354  18.811  0.00  0.00    +0.000 OA
ATOM      3  O   UNL     1       4.672   2.670  20.166  0.00  0.00    +0.000 OA
ENDROOT
BRANCH   1  12
ATOM      4  C   UNL     1       6.224   4.843  18.297  0.00  0.00    +0.000 A 
ATOM      5  C   UNL     1       7.021   5.201  17.203  0.00  0.00    +0.000 A 
ATOM      6  C   UNL     1       6.647   4.903  15.889  0.00  0.00    +0.000 A 
ATOM      7  C   UNL     1       7.574   5.307  14.771  0.00  0.00    +0.000 C 
ATOM      8  C   UNL     1       5.444   4.219  15.657  0.00  0.00    +0.000 A 
ATOM      9 CL   UNL     1       5.018   3.847  14.013  0.00  0.00    +0.000 Cl
ATOM     10  C   UNL     1       4.610   3.838  16.733  0.00  0.00    +0.000 A 
ATOM     11  C   UNL     1       3.313   3.096  16.482  0.00  0.00    +0.000 C 
ATOM     12  C   UNL     1       5.017   4.160  18.065  0.00  0.00    +0.000 A 
BRANCH   4  14
ATOM     13  C   UNL     1       7.939   5.672  19.726  0.00  0.00    +0.000 C 
ATOM     14  O   UNL     1       6.645   5.081  19.579  0.00  0.00    +0.000 OA
ENDBRANCH   4  14
ENDBRANCH   1  12
BRANCH   1  15
ATOM     15  N   UNL     1       3.705   4.966  20.447  0.00  0.00    +0.000 NA
ATOM     16  H   UNL     1       4.332   5.730  20.182  0.00  0.00    +0.000 HD
BRANCH  15  17
ATOM     17  C   UNL     1       2.309   5.421  20.569  0.00  0.00    +0.000 C 
BRANCH  17  18
ATOM     18  C   UNL     1       2.092   6.749  19.884  0.00  0.00    +0.000 A 
ATOM     19  C   UNL     1       2.537   6.938  18.554  0.00  0.00    +0.000 A 
ATOM     20  C   UNL     1       2.366   8.164  17.903  0.00  0.00    +0.000 A 
ATOM     21  C   UNL     1       1.753   9.180  18.602  0.00  0.00    +0.000 A 
ATOM     22  C   UNL     1       1.323   9.009  19.896  0.00  0.00    +0.000 A 
ATOM     23  C   UNL     1       1.482   7.815  20.565  0.00  0.00    +0.000 A 
ATOM     24  O   UNL     1       0.749  10.132  20.406  0.00  0.00    +0.000 OA
ATOM     25  C   UNL     1       0.936  11.050  19.307  0.00  0.00    +0.000 C 
ATOM     26  O   UNL     1       1.504  10.432  18.135  0.00  0.00    +0.000 OA
ENDBRANCH  17  18
ENDBRANCH  15  17
ENDBRANCH   1  15
TORSDOF 5
ENDMDL
MODEL 6
REMARK VINA RESULT:      -7.0      3.583      5.091
REMARK  Name = 
REMARK  8 active torsions:
REMARK  status: ('A' for Active; 'I' for Inactive)
REMARK    1  A    between atoms: C_1  and  O_2
REMARK    2  A    between atoms: O_2  and  C_3
REMARK    3  A    between atoms: C_5  and  C_6
REMARK    4  A    between atoms: C_9  and  C_10
REMARK    5  A    between atoms: C_11  and  S_12
REMARK    6  A    between atoms: S_12  and  N_15
REMARK    7  A    between atoms: N_15  and  C_16
REMARK    8  A    between atoms: C_16  and  C_17
REMARK                            x       y       z     vdW  Elec       q    Type
REMARK                         _______ _______ _______ _____ _____    ______ ____
ROOT
ATOM      1  S   UNL     1       1.347   9.612  18.358  0.00  0.00    +0.000 S 
ATOM      2  O   UNL     1       0.351   9.088  17.449  0.00  0.00    +0.000 OA
ATOM      3  O   UNL     1       2.312  10.610  17.942  0.00  0.00    +0.000 OA
ENDROOT
BRANCH   1  12
ATOM      4  C   UNL     1      -0.274  11.532  19.617  0.00  0.00    +0.000 A 
ATOM      5  C   UNL     1      -0.946  12.035  20.738  0.00  0.00    +0.000 A 
ATOM      6  C   UNL     1      -0.905  11.385  21.975  0.00  0.00    +0.000 A 
ATOM      7  C   UNL     1      -1.672  11.985  23.126  0.00  0.00    +0.000 C 
ATOM      8  C   UNL     1      -0.177  10.191  22.099  0.00  0.00    +0.000 A 
ATOM      9 CL   UNL     1      -0.162   9.399  23.646  0.00  0.00    +0.000 Cl
ATOM     10  C   UNL     1       0.514   9.649  20.993  0.00  0.00    +0.000 A 
ATOM     11  C   UNL     1       1.296   8.357  21.126  0.00  0.00    +0.000 C 
ATOM     12  C   UNL     1       0.456  10.337  19.741  0.00  0.00    +0.000 A 
BRANCH   4  14
ATOM     13  C   UNL     1      -0.274  13.571  18.386  0.00  0.00    +0.000 C 
ATOM     14  O   UNL     1      -0.389  12.145  18.397  0.00  0.00    +0.000 OA
ENDBRANCH   4  14
ENDBRANCH   1  12
BRANCH   1  15
ATOM     15  N   UNL     1       2.252   8.302  18.919  0.00  0.00    +0.000 NA
ATOM     16  H   UNL     1       1.667   7.705  19.509  0.00  0.00    +0.000 HD
BRANCH  15  17
ATOM     17  C   UNL     1       2.935   7.530  17.865  0.00  0.00    +0.000 C 
BRANCH  17  18
ATOM     18  C   UNL     1       2.960   6.053  18.182  0.00  0.00    +0.000 A 
ATOM     19  C   UNL     1       1.825   5.253  17.911  0.00  0.00    +0.000 A 
ATOM     20  C   UNL     1       1.815   3.888  18.213  0.00  0.00    +0.000 A 
ATOM     21  C   UNL     1       2.946   3.351  18.786  0.00  0.00    +0.000 A 
ATOM     22  C   UNL     1       4.051   4.120  19.061  0.00  0.00    +0.000 A 
ATOM     23  C   UNL     1       4.088   5.469  18.780  0.00  0.00    +0.000 A 
ATOM     24  O   UNL     1       5.057   3.402  19.629  0.00  0.00    +0.000 OA
ATOM     25  C   UNL     1       4.427   2.108  19.747  0.00  0.00    +0.000 C 
ATOM     26  O   UNL     1       3.117   2.052  19.147  0.00  0.00    +0.000 OA
ENDBRANCH  17  18
ENDBRANCH  15  17
ENDBRANCH   1  15
TORSDOF 5
ENDMDL
MODEL 7
REMARK VINA RESULT:      -7.0      2.392      3.395
REMARK  Name = 
REMARK  8 active torsions:
REMARK  status: ('A' for Active; 'I' for Inactive)
REMARK    1  A    between atoms: C_1  and  O_2
REMARK    2  A    between atoms: O_2  and  C_3
REMARK    3  A    between atoms: C_5  and  C_6
REMARK    4  A    between atoms: C_9  and  C_10
REMARK    5  A    between atoms: C_11  and  S_12
REMARK    6  A    between atoms: S_12  and  N_15
REMARK    7  A    between atoms: N_15  and  C_16
REMARK    8  A    between atoms: C_16  and  C_17
REMARK                            x       y       z     vdW  Elec       q    Type
REMARK                         _______ _______ _______ _____ _____    ______ ____
ROOT
ATOM      1  S   UNL     1       3.406   3.734  17.749  0.00  0.00    +0.000 S 
ATOM      2  O   UNL     1       4.233   2.878  18.570  0.00  0.00    +0.000 OA
ATOM      3  O   UNL     1       2.274   3.219  17.004  0.00  0.00    +0.000 OA
ENDROOT
BRANCH   1  12
ATOM      4  C   UNL     1       2.261   4.719  20.118  0.00  0.00    +0.000 A 
ATOM      5  C   UNL     1       1.762   5.764  20.905  0.00  0.00    +0.000 A 
ATOM      6  C   UNL     1       1.725   7.083  20.443  0.00  0.00    +0.000 A 
ATOM      7  C   UNL     1       1.190   8.151  21.363  0.00  0.00    +0.000 C 
ATOM      8  C   UNL     1       2.209   7.373  19.157  0.00  0.00    +0.000 A 
ATOM      9 CL   UNL     1       2.166   9.025  18.620  0.00  0.00    +0.000 Cl
ATOM     10  C   UNL     1       2.721   6.348  18.331  0.00  0.00    +0.000 A 
ATOM     11  C   UNL     1       3.247   6.662  16.944  0.00  0.00    +0.000 C 
ATOM     12  C   UNL     1       2.743   5.008  18.830  0.00  0.00    +0.000 A 
BRANCH   4  14
ATOM     13  C   UNL     1       1.143   2.860  21.103  0.00  0.00    +0.000 C 
ATOM     14  O   UNL     1       2.355   3.447  20.620  0.00  0.00    +0.000 OA
ENDBRANCH   4  14
ENDBRANCH   1  12
BRANCH   1  15
ATOM     15  N   UNL     1       4.416   4.460  16.607  0.00  0.00    +0.000 NA
ATOM     16  H   UNL     1       4.288   5.475  16.628  0.00  0.00    +0.000 HD
BRANCH  15  17
ATOM     17  C   UNL     1       5.836   4.084  16.714  0.00  0.00    +0.000 C 
BRANCH  17  18
ATOM     18  C   UNL     1       6.655   5.174  17.365  0.00  0.00    +0.000 A 
ATOM     19  C   UNL     1       7.353   4.911  18.567  0.00  0.00    +0.000 A 
ATOM     20  C   UNL     1       8.102   5.908  19.199  0.00  0.00    +0.000 A 
ATOM     21  C   UNL     1       8.133   7.154  18.614  0.00  0.00    +0.000 A 
ATOM     22  C   UNL     1       7.453   7.423  17.451  0.00  0.00    +0.000 A 
ATOM     23  C   UNL     1       6.703   6.463  16.807  0.00  0.00    +0.000 A 
ATOM     24  O   UNL     1       7.610   8.711  17.041  0.00  0.00    +0.000 OA
ATOM     25  C   UNL     1       8.407   9.239  18.123  0.00  0.00    +0.000 C 
ATOM     26  O   UNL     1       8.803   8.240  19.084  0.00  0.00    +0.000 OA
ENDBRANCH  17  18
ENDBRANCH  15  17
ENDBRANCH   1  15
TORSDOF 5
ENDMDL
MODEL 8
REMARK VINA RESULT:      -6.9      4.164      5.967
REMARK  Name = 
REMARK  8 active torsions:
REMARK  status: ('A' for Active; 'I' for Inactive)
REMARK    1  A    between atoms: C_1  and  O_2
REMARK    2  A    between atoms: O_2  and  C_3
REMARK    3  A    between atoms: C_5  and  C_6
REMARK    4  A    between atoms: C_9  and  C_10
REMARK    5  A    between atoms: C_11  and  S_12
REMARK    6  A    between atoms: S_12  and  N_15
REMARK    7  A    between atoms: N_15  and  C_16
REMARK    8  A    between atoms: C_16  and  C_17
REMARK                            x       y       z     vdW  Elec       q    Type
REMARK                         _______ _______ _______ _____ _____    ______ ____
ROOT
ATOM      1  S   UNL     1       1.296   9.873  18.464  0.00  0.00    +0.000 S 
ATOM      2  O   UNL     1       0.155   9.468  17.672  0.00  0.00    +0.000 OA
ATOM      3  O   UNL     1       2.427  10.564  17.879  0.00  0.00    +0.000 OA
ENDROOT
BRANCH   1  12
ATOM      4  C   UNL     1       0.758  12.357  19.661  0.00  0.00    +0.000 A 
ATOM      5  C   UNL     1       0.247  13.139  20.705  0.00  0.00    +0.000 A 
ATOM      6  C   UNL     1      -0.339  12.565  21.837  0.00  0.00    +0.000 A 
ATOM      7  C   UNL     1      -0.881  13.480  22.906  0.00  0.00    +0.000 C 
ATOM      8  C   UNL     1      -0.426  11.167  21.930  0.00  0.00    +0.000 A 
ATOM      9 CL   UNL     1      -1.177  10.486  23.343  0.00  0.00    +0.000 Cl
ATOM     10  C   UNL     1       0.076  10.342  20.899  0.00  0.00    +0.000 A 
ATOM     11  C   UNL     1      -0.023   8.833  20.998  0.00  0.00    +0.000 C 
ATOM     12  C   UNL     1       0.673  10.958  19.755  0.00  0.00    +0.000 A 
BRANCH   4  14
ATOM     13  C   UNL     1       1.774  14.270  18.671  0.00  0.00    +0.000 C 
ATOM     14  O   UNL     1       1.261  12.943  18.529  0.00  0.00    +0.000 OA
ENDBRANCH   4  14
ENDBRANCH   1  12
BRANCH   1  15
ATOM     15  N   UNL     1       1.928   8.480  19.180  0.00  0.00    +0.000 NA
ATOM     16  H   UNL     1       1.232   8.067  19.806  0.00  0.00    +0.000 HD
BRANCH  15  17
ATOM     17  C   UNL     1       2.467   7.491  18.231  0.00  0.00    +0.000 C 
BRANCH  17  18
ATOM     18  C   UNL     1       2.253   6.076  18.716  0.00  0.00    +0.000 A 
ATOM     19  C   UNL     1       1.938   5.053  17.792  0.00  0.00    +0.000 A 
ATOM     20  C   UNL     1       1.716   3.740  18.218  0.00  0.00    +0.000 A 
ATOM     21  C   UNL     1       1.811   3.479  19.567  0.00  0.00    +0.000 A 
ATOM     22  C   UNL     1       2.108   4.467  20.474  0.00  0.00    +0.000 A 
ATOM     23  C   UNL     1       2.327   5.771  20.085  0.00  0.00    +0.000 A 
ATOM     24  O   UNL     1       2.150   4.005  21.753  0.00  0.00    +0.000 OA
ATOM     25  C   UNL     1       1.770   2.626  21.550  0.00  0.00    +0.000 C 
ATOM     26  O   UNL     1       1.626   2.270  20.160  0.00  0.00    +0.000 OA
ENDBRANCH  17  18
ENDBRANCH  15  17
ENDBRANCH   1  15
TORSDOF 5
ENDMDL
MODEL 9
REMARK VINA RESULT:      -6.9      4.149      5.509
REMARK  Name = 
REMARK  8 active torsions:
REMARK  status: ('A' for Active; 'I' for Inactive)
REMARK    1  A    between atoms: C_1  and  O_2
REMARK    2  A    between atoms: O_2  and  C_3
REMARK    3  A    between atoms: C_5  and  C_6
REMARK    4  A    between atoms: C_9  and  C_10
REMARK    5  A    between atoms: C_11  and  S_12
REMARK    6  A    between atoms: S_12  and  N_15
REMARK    7  A    between atoms: N_15  and  C_16
REMARK    8  A    between atoms: C_16  and  C_17
REMARK                            x       y       z     vdW  Elec       q    Type
REMARK                         _______ _______ _______ _____ _____    ______ ____
ROOT
ATOM      1  S   UNL     1       1.348   9.808  18.307  0.00  0.00    +0.000 S 
ATOM      2  O   UNL     1       0.155   9.456  17.568  0.00  0.00    +0.000 OA
ATOM      3  O   UNL     1       2.519  10.355  17.652  0.00  0.00    +0.000 OA
ENDROOT
BRANCH   1  12
ATOM      4  C   UNL     1       0.054  10.698  20.638  0.00  0.00    +0.000 A 
ATOM      5  C   UNL     1      -0.285  11.702  21.554  0.00  0.00    +0.000 A 
ATOM      6  C   UNL     1       0.149  13.021  21.396  0.00  0.00    +0.000 A 
ATOM      7  C   UNL     1      -0.246  14.035  22.439  0.00  0.00    +0.000 C 
ATOM      8  C   UNL     1       0.953  13.352  20.294  0.00  0.00    +0.000 A 
ATOM      9 CL   UNL     1       1.491  14.997  20.137  0.00  0.00    +0.000 Cl
ATOM     10  C   UNL     1       1.319  12.369  19.346  0.00  0.00    +0.000 A 
ATOM     11  C   UNL     1       2.191  12.726  18.159  0.00  0.00    +0.000 C 
ATOM     12  C   UNL     1       0.857  11.029  19.533  0.00  0.00    +0.000 A 
BRANCH   4  14
ATOM     13  C   UNL     1      -0.271   8.933  22.204  0.00  0.00    +0.000 C 
ATOM     14  O   UNL     1      -0.321   9.398  20.852  0.00  0.00    +0.000 OA
ENDBRANCH   4  14
ENDBRANCH   1  12
BRANCH   1  15
ATOM     15  N   UNL     1       1.873   8.416  19.104  0.00  0.00    +0.000 NA
ATOM     16  H   UNL     1       1.103   8.014  19.643  0.00  0.00    +0.000 HD
BRANCH  15  17
ATOM     17  C   UNL     1       2.513   7.413  18.234  0.00  0.00    +0.000 C 
BRANCH  17  18
ATOM     18  C   UNL     1       2.267   6.007  18.727  0.00  0.00    +0.000 A 
ATOM     19  C   UNL     1       1.917   4.988  17.810  0.00  0.00    +0.000 A 
ATOM     20  C   UNL     1       1.664   3.683  18.243  0.00  0.00    +0.000 A 
ATOM     21  C   UNL     1       1.765   3.425  19.591  0.00  0.00    +0.000 A 
ATOM     22  C   UNL     1       2.097   4.409  20.492  0.00  0.00    +0.000 A 
ATOM     23  C   UNL     1       2.346   5.704  20.096  0.00  0.00    +0.000 A 
ATOM     24  O   UNL     1       2.139   3.950  21.772  0.00  0.00    +0.000 OA
ATOM     25  C   UNL     1       1.722   2.581  21.578  0.00  0.00    +0.000 C 
ATOM     26  O   UNL     1       1.555   2.223  20.191  0.00  0.00    +0.000 OA
ENDBRANCH  17  18
ENDBRANCH  15  17
ENDBRANCH   1  15
TORSDOF 5
ENDMDL
