MODEL 1
REMARK VINA RESULT:      -6.8      0.000      0.000
REMARK  Name = 
REMARK  9 active torsions:
REMARK  status: ('A' for Active; 'I' for Inactive)
REMARK    1  A    between atoms: C_1  and  C_2
REMARK    2  A    between atoms: C_2  and  O_3
REMARK    3  A    between atoms: O_3  and  C_4
REMARK    4  A    between atoms: C_4  and  C_6
REMARK    5  A    between atoms: C_8  and  N_9
REMARK    6  A    between atoms: C_10  and  C_12
REMARK    7  A    between atoms: N_17  and  S_18
REMARK    8  A    between atoms: S_18  and  C_19
REMARK    9  A    between atoms: C_23  and  C_24
REMARK                            x       y       z     vdW  Elec       q    Type
REMARK                         _______ _______ _______ _____ _____    ______ ____
ROOT
ATOM      1  N   UNL     1       2.783   7.098  19.175  0.00  0.00    +0.000 N 
ATOM      2  C   UNL     1       3.266   7.125  17.873  0.00  0.00    +0.000 C 
ATOM      3  O   UNL     1       2.942   7.904  16.974  0.00  0.00    +0.000 OA
ATOM      4  H   UNL     1       3.206   6.439  19.817  0.00  0.00    +0.000 HD
ENDROOT
BRANCH   1   7
ATOM      5  C   UNL     1       0.275   9.843  20.147  0.00  0.00    +0.000 A 
ATOM      6  S   UNL     1       1.301   9.328  18.876  0.00  0.00    +0.000 S 
ATOM      7  C   UNL     1       1.861   7.979  19.726  0.00  0.00    +0.000 A 
ATOM      8  C   UNL     1       1.288   7.910  20.978  0.00  0.00    +0.000 A 
ATOM      9  C   UNL     1       0.356   8.982  21.236  0.00  0.00    +0.000 A 
ATOM     10  C   UNL     1      -0.432   9.130  22.501  0.00  0.00    +0.000 C 
BRANCH   5  11
ATOM     11  C   UNL     1      -0.580  11.014  19.985  0.00  0.00    +0.000 C 
ATOM     12  O   UNL     1      -0.393  12.106  20.509  0.00  0.00    +0.000 OA
BRANCH  11  13
ATOM     13  O   UNL     1      -1.690  10.706  19.250  0.00  0.00    +0.000 OA
BRANCH  13  15
ATOM     14  C   UNL     1      -2.086  10.064  16.985  0.00  0.00    +0.000 C 
ATOM     15  C   UNL     1      -1.725  11.211  17.912  0.00  0.00    +0.000 C 
ENDBRANCH  13  15
ENDBRANCH  11  13
ENDBRANCH   5  11
ENDBRANCH   1   7
BRANCH   2  16
ATOM     16  C   UNL     1       4.266   6.017  17.520  0.00  0.00    +0.000 C 
ATOM     17  C   UNL     1       5.229   6.516  16.429  0.00  0.00    +0.000 C 
ATOM     18  C   UNL     1       6.359   5.517  16.203  0.00  0.00    +0.000 C 
ATOM     19  C   UNL     1       5.783   4.156  15.837  0.00  0.00    +0.000 C 
ATOM     20  C   UNL     1       4.803   3.672  16.898  0.00  0.00    +0.000 C 
ATOM     21  N   UNL     1       3.716   4.679  17.121  0.00  0.00    +0.000 NA
BRANCH  21  22
ATOM     22  S   UNL     1       2.409   4.058  18.047  0.00  0.00    +0.000 S 
ATOM     23  C   UNL     1       2.467   2.303  17.709  0.00  0.00    +0.000 C 
ATOM     24  O   UNL     1       2.695   4.277  19.445  0.00  0.00    +0.000 OA
ATOM     25  O   UNL     1       1.189   4.577  17.463  0.00  0.00    +0.000 OA
ENDBRANCH  21  22
ENDBRANCH   2  16
TORSDOF 6
ENDMDL
MODEL 2
REMARK VINA RESULT:      -6.7      1.219      1.906
REMARK  Name = 
REMARK  9 active torsions:
REMARK  status: ('A' for Active; 'I' for Inactive)
REMARK    1  A    between atoms: C_1  and  C_2
REMARK    2  A    between atoms: C_2  and  O_3
REMARK    3  A    between atoms: O_3  and  C_4
REMARK    4  A    between atoms: C_4  and  C_6
REMARK    5  A    between atoms: C_8  and  N_9
REMARK    6  A    between atoms: C_10  and  C_12
REMARK    7  A    between atoms: N_17  and  S_18
REMARK    8  A    between atoms: S_18  and  C_19
REMARK    9  A    between atoms: C_23  and  C_24
REMARK                            x       y       z     vdW  Elec       q    Type
REMARK                         _______ _______ _______ _____ _____    ______ ____
ROOT
ATOM      1  N   UNL     1       2.582   7.356  19.685  0.00  0.00    +0.000 N 
ATOM      2  C   UNL     1       2.626   6.970  18.352  0.00  0.00    +0.000 C 
ATOM      3  O   UNL     1       1.858   7.315  17.450  0.00  0.00    +0.000 OA
ATOM      4  H   UNL     1       3.332   7.041  20.287  0.00  0.00    +0.000 HD
ENDROOT
BRANCH   1   7
ATOM      5  C   UNL     1       0.123  10.129  20.703  0.00  0.00    +0.000 A 
ATOM      6  S   UNL     1       1.128   9.609  19.418  0.00  0.00    +0.000 S 
ATOM      7  C   UNL     1       1.678   8.246  20.252  0.00  0.00    +0.000 A 
ATOM      8  C   UNL     1       1.118   8.176  21.510  0.00  0.00    +0.000 A 
ATOM      9  C   UNL     1       0.203   9.259  21.785  0.00  0.00    +0.000 A 
ATOM     10  C   UNL     1      -0.569   9.408  23.059  0.00  0.00    +0.000 C 
BRANCH   5  11
ATOM     11  C   UNL     1      -0.718  11.312  20.559  0.00  0.00    +0.000 C 
ATOM     12  O   UNL     1      -1.761  11.366  19.917  0.00  0.00    +0.000 OA
BRANCH  11  13
ATOM     13  O   UNL     1      -0.135  12.396  21.151  0.00  0.00    +0.000 OA
BRANCH  13  15
ATOM     14  C   UNL     1      -1.404  13.001  23.080  0.00  0.00    +0.000 C 
ATOM     15  C   UNL     1      -1.023  13.393  21.664  0.00  0.00    +0.000 C 
ENDBRANCH  13  15
ENDBRANCH  11  13
ENDBRANCH   5  11
ENDBRANCH   1   7
BRANCH   2  16
ATOM     16  C   UNL     1       3.718   5.954  17.997  0.00  0.00    +0.000 C 
ATOM     17  C   UNL     1       4.706   6.582  16.999  0.00  0.00    +0.000 C 
ATOM     18  C   UNL     1       5.913   5.674  16.786  0.00  0.00    +0.000 C 
ATOM     19  C   UNL     1       5.455   4.304  16.306  0.00  0.00    +0.000 C 
ATOM     20  C   UNL     1       4.451   3.692  17.274  0.00  0.00    +0.000 C 
ATOM     21  N   UNL     1       3.286   4.610  17.487  0.00  0.00    +0.000 NA
BRANCH  21  22
ATOM     22  S   UNL     1       1.973   3.849  18.293  0.00  0.00    +0.000 S 
ATOM     23  C   UNL     1       2.430   2.120  18.272  0.00  0.00    +0.000 C 
ATOM     24  O   UNL     1       1.946   4.311  19.661  0.00  0.00    +0.000 OA
ATOM     25  O   UNL     1       0.807   4.005  17.448  0.00  0.00    +0.000 OA
ENDBRANCH  21  22
ENDBRANCH   2  16
TORSDOF 6
ENDMDL
MODEL 3
REMARK VINA RESULT:      -6.6      1.713      2.492
REMARK  Name = 
REMARK  9 active torsions:
REMARK  status: ('A' for Active; 'I' for Inactive)
REMARK    1  A    between atoms: C_1  and  C_2
REMARK    2  A    between atoms: C_2  and  O_3
REMARK    3  A    between atoms: O_3  and  C_4
REMARK    4  A    between atoms: C_4  and  C_6
REMARK    5  A    between atoms: C_8  and  N_9
REMARK    6  A    between atoms: C_10  and  C_12
REMARK    7  A    between atoms: N_17  and  S_18
REMARK    8  A    between atoms: S_18  and  C_19
REMARK    9  A    between atoms: C_23  and  C_24
REMARK                            x       y       z     vdW  Elec       q    Type
REMARK                         _______ _______ _______ _____ _____    ______ ____
ROOT
ATOM      1  N   UNL     1       2.407   7.542  19.831  0.00  0.00    +0.000 N 
ATOM      2  C   UNL     1       2.703   7.187  18.521  0.00  0.00    +0.000 C 
ATOM      3  O   UNL     1       2.176   7.622  17.494  0.00  0.00    +0.000 OA
ATOM      4  H   UNL     1       2.983   7.146  20.563  0.00  0.00    +0.000 HD
ENDROOT
BRANCH   1   7
ATOM      5  C   UNL     1       0.029  10.037  21.531  0.00  0.00    +0.000 A 
ATOM      6  S   UNL     1       1.225   8.858  21.863  0.00  0.00    +0.000 S 
ATOM      7  C   UNL     1       1.479   8.494  20.233  0.00  0.00    +0.000 A 
ATOM      8  C   UNL     1       0.657   9.249  19.424  0.00  0.00    +0.000 A 
ATOM      9  C   UNL     1      -0.188  10.158  20.162  0.00  0.00    +0.000 A 
ATOM     10  C   UNL     1      -1.149  11.118  19.532  0.00  0.00    +0.000 C 
BRANCH   5  11
ATOM     11  C   UNL     1      -0.582  10.804  22.611  0.00  0.00    +0.000 C 
ATOM     12  O   UNL     1      -1.451  10.390  23.369  0.00  0.00    +0.000 OA
BRANCH  11  13
ATOM     13  O   UNL     1      -0.132  12.093  22.605  0.00  0.00    +0.000 OA
BRANCH  13  15
ATOM     14  C   UNL     1      -1.202  14.075  21.813  0.00  0.00    +0.000 C 
ATOM     15  C   UNL     1      -1.081  13.098  22.970  0.00  0.00    +0.000 C 
ENDBRANCH  13  15
ENDBRANCH  11  13
ENDBRANCH   5  11
ENDBRANCH   1   7
BRANCH   2  16
ATOM     16  C   UNL     1       3.759   6.087  18.360  0.00  0.00    +0.000 C 
ATOM     17  C   UNL     1       4.968   6.639  17.586  0.00  0.00    +0.000 C 
ATOM     18  C   UNL     1       6.118   5.637  17.588  0.00  0.00    +0.000 C 
ATOM     19  C   UNL     1       5.654   4.313  16.997  0.00  0.00    +0.000 C 
ATOM     20  C   UNL     1       4.436   3.778  17.739  0.00  0.00    +0.000 C 
ATOM     21  N   UNL     1       3.328   4.787  17.746  0.00  0.00    +0.000 NA
BRANCH  21  22
ATOM     22  S   UNL     1       1.828   4.131  18.265  0.00  0.00    +0.000 S 
ATOM     23  C   UNL     1       2.138   2.370  18.281  0.00  0.00    +0.000 C 
ATOM     24  O   UNL     1       1.578   4.575  19.616  0.00  0.00    +0.000 OA
ATOM     25  O   UNL     1       0.861   4.397  17.220  0.00  0.00    +0.000 OA
ENDBRANCH  21  22
ENDBRANCH   2  16
TORSDOF 6
ENDMDL
MODEL 4
REMARK VINA RESULT:      -6.5      2.611      8.037
REMARK  Name = 
REMARK  9 active torsions:
REMARK  status: ('A' for Active; 'I' for Inactive)
REMARK    1  A    between atoms: C_1  and  C_2
REMARK    2  A    between atoms: C_2  and  O_3
REMARK    3  A    between atoms: O_3  and  C_4
REMARK    4  A    between atoms: C_4  and  C_6
REMARK    5  A    between atoms: C_8  and  N_9
REMARK    6  A    between atoms: C_10  and  C_12
REMARK    7  A    between atoms: N_17  and  S_18
REMARK    8  A    between atoms: S_18  and  C_19
REMARK    9  A    between atoms: C_23  and  C_24
REMARK                            x       y       z     vdW  Elec       q    Type
REMARK                         _______ _______ _______ _____ _____    ______ ____
ROOT
ATOM      1  N   UNL     1       1.391   8.182  18.752  0.00  0.00    +0.000 N 
ATOM      2  C   UNL     1       1.119   9.452  18.258  0.00  0.00    +0.000 C 
ATOM      3  O   UNL     1       1.855  10.153  17.559  0.00  0.00    +0.000 OA
ATOM      4  H   UNL     1       0.650   7.707  19.251  0.00  0.00    +0.000 HD
ENDROOT
BRANCH   1   7
ATOM      5  C   UNL     1       4.474   5.888  18.678  0.00  0.00    +0.000 A 
ATOM      6  S   UNL     1       3.156   6.363  19.664  0.00  0.00    +0.000 S 
ATOM      7  C   UNL     1       2.542   7.441  18.517  0.00  0.00    +0.000 A 
ATOM      8  C   UNL     1       3.329   7.461  17.385  0.00  0.00    +0.000 A 
ATOM      9  C   UNL     1       4.453   6.557  17.459  0.00  0.00    +0.000 A 
ATOM     10  C   UNL     1       5.446   6.354  16.357  0.00  0.00    +0.000 C 
BRANCH   5  11
ATOM     11  C   UNL     1       5.408   4.862  19.127  0.00  0.00    +0.000 C 
ATOM     12  O   UNL     1       5.208   3.653  19.081  0.00  0.00    +0.000 OA
BRANCH  11  13
ATOM     13  O   UNL     1       6.507   5.427  19.708  0.00  0.00    +0.000 OA
BRANCH  13  15
ATOM     14  C   UNL     1       8.092   6.877  18.667  0.00  0.00    +0.000 C 
ATOM     15  C   UNL     1       7.706   5.432  18.930  0.00  0.00    +0.000 C 
ENDBRANCH  13  15
ENDBRANCH  11  13
ENDBRANCH   5  11
ENDBRANCH   1   7
BRANCH   2  16
ATOM     16  C   UNL     1      -0.223  10.052  18.692  0.00  0.00    +0.000 C 
ATOM     17  C   UNL     1      -1.214  10.011  17.515  0.00  0.00    +0.000 C 
ATOM     18  C   UNL     1      -2.614  10.409  17.970  0.00  0.00    +0.000 C 
ATOM     19  C   UNL     1      -2.582  11.793  18.603  0.00  0.00    +0.000 C 
ATOM     20  C   UNL     1      -1.578  11.848  19.748  0.00  0.00    +0.000 C 
ATOM     21  N   UNL     1      -0.216  11.430  19.284  0.00  0.00    +0.000 NA
BRANCH  21  22
ATOM     22  S   UNL     1       1.018  11.787  20.426  0.00  0.00    +0.000 S 
ATOM     23  C   UNL     1       0.233  12.967  21.518  0.00  0.00    +0.000 C 
ATOM     24  O   UNL     1       1.315  10.586  21.170  0.00  0.00    +0.000 OA
ATOM     25  O   UNL     1       2.070  12.482  19.713  0.00  0.00    +0.000 OA
ENDBRANCH  21  22
ENDBRANCH   2  16
TORSDOF 6
ENDMDL
MODEL 5
REMARK VINA RESULT:      -6.5      2.422      7.657
REMARK  Name = 
REMARK  9 active torsions:
REMARK  status: ('A' for Active; 'I' for Inactive)
REMARK    1  A    between atoms: C_1  and  C_2
REMARK    2  A    between atoms: C_2  and  O_3
REMARK    3  A    between atoms: O_3  and  C_4
REMARK    4  A    between atoms: C_4  and  C_6
REMARK    5  A    between atoms: C_8  and  N_9
REMARK    6  A    between atoms: C_10  and  C_12
REMARK    7  A    between atoms: N_17  and  S_18
REMARK    8  A    between atoms: S_18  and  C_19
REMARK    9  A    between atoms: C_23  and  C_24
REMARK                            x       y       z     vdW  Elec       q    Type
REMARK                         _______ _______ _______ _____ _____    ______ ____
ROOT
ATOM      1  N   UNL     1       1.309   8.576  19.015  0.00  0.00    +0.000 N 
ATOM      2  C   UNL     1       1.312   9.948  18.797  0.00  0.00    +0.000 C 
ATOM      3  O   UNL     1       2.214  10.620  18.290  0.00  0.00    +0.000 OA
ATOM      4  H   UNL     1       0.458   8.163  19.376  0.00  0.00    +0.000 HD
ENDROOT
BRANCH   1   7
ATOM      5  C   UNL     1       3.899   5.777  18.537  0.00  0.00    +0.000 A 
ATOM      6  S   UNL     1       2.606   6.275  19.544  0.00  0.00    +0.000 S 
ATOM      7  C   UNL     1       2.317   7.688  18.664  0.00  0.00    +0.000 A 
ATOM      8  C   UNL     1       3.198   7.803  17.609  0.00  0.00    +0.000 A 
ATOM      9  C   UNL     1       4.120   6.695  17.516  0.00  0.00    +0.000 A 
ATOM     10  C   UNL     1       5.157   6.548  16.446  0.00  0.00    +0.000 C 
BRANCH   5  11
ATOM     11  C   UNL     1       4.577   4.507  18.769  0.00  0.00    +0.000 C 
ATOM     12  O   UNL     1       5.609   4.363  19.414  0.00  0.00    +0.000 OA
BRANCH  11  13
ATOM     13  O   UNL     1       3.966   3.498  18.079  0.00  0.00    +0.000 OA
BRANCH  13  15
ATOM     14  C   UNL     1       1.838   2.566  18.625  0.00  0.00    +0.000 C 
ATOM     15  C   UNL     1       3.335   2.484  18.865  0.00  0.00    +0.000 C 
ENDBRANCH  13  15
ENDBRANCH  11  13
ENDBRANCH   5  11
ENDBRANCH   1   7
BRANCH   2  16
ATOM     16  C   UNL     1       0.075  10.698  19.306  0.00  0.00    +0.000 C 
ATOM     17  C   UNL     1      -0.027  12.064  18.607  0.00  0.00    +0.000 C 
ATOM     18  C   UNL     1      -1.352  12.745  18.936  0.00  0.00    +0.000 C 
ATOM     19  C   UNL     1      -1.498  12.896  20.444  0.00  0.00    +0.000 C 
ATOM     20  C   UNL     1      -1.364  11.550  21.144  0.00  0.00    +0.000 C 
ATOM     21  N   UNL     1      -0.067  10.888  20.788  0.00  0.00    +0.000 NA
BRANCH  21  22
ATOM     22  S   UNL     1       0.295   9.542  21.792  0.00  0.00    +0.000 S 
ATOM     23  C   UNL     1      -0.474   9.975  23.347  0.00  0.00    +0.000 C 
ATOM     24  O   UNL     1      -0.365   8.377  21.251  0.00  0.00    +0.000 OA
ATOM     25  O   UNL     1       1.729   9.537  21.997  0.00  0.00    +0.000 OA
ENDBRANCH  21  22
ENDBRANCH   2  16
TORSDOF 6
ENDMDL
MODEL 6
REMARK VINA RESULT:      -6.5      2.613      7.970
REMARK  Name = 
REMARK  9 active torsions:
REMARK  status: ('A' for Active; 'I' for Inactive)
REMARK    1  A    between atoms: C_1  and  C_2
REMARK    2  A    between atoms: C_2  and  O_3
REMARK    3  A    between atoms: O_3  and  C_4
REMARK    4  A    between atoms: C_4  and  C_6
REMARK    5  A    between atoms: C_8  and  N_9
REMARK    6  A    between atoms: C_10  and  C_12
REMARK    7  A    between atoms: N_17  and  S_18
REMARK    8  A    between atoms: S_18  and  C_19
REMARK    9  A    between atoms: C_23  and  C_24
REMARK                            x       y       z     vdW  Elec       q    Type
REMARK                         _______ _______ _______ _____ _____    ______ ____
ROOT
ATOM      1  N   UNL     1       0.600   8.910  20.712  0.00  0.00    +0.000 N 
ATOM      2  C   UNL     1       0.953   9.828  21.693  0.00  0.00    +0.000 C 
ATOM      3  O   UNL     1       1.919   9.766  22.458  0.00  0.00    +0.000 OA
ATOM      4  H   UNL     1      -0.184   9.143  20.115  0.00  0.00    +0.000 HD
ENDROOT
BRANCH   1   7
ATOM      5  C   UNL     1       2.762   6.058  19.312  0.00  0.00    +0.000 A 
ATOM      6  S   UNL     1       2.321   7.690  19.037  0.00  0.00    +0.000 S 
ATOM      7  C   UNL     1       1.297   7.756  20.379  0.00  0.00    +0.000 A 
ATOM      8  C   UNL     1       1.269   6.546  21.041  0.00  0.00    +0.000 A 
ATOM      9  C   UNL     1       2.123   5.550  20.438  0.00  0.00    +0.000 A 
ATOM     10  C   UNL     1       2.310   4.163  20.971  0.00  0.00    +0.000 C 
BRANCH   5  11
ATOM     11  C   UNL     1       3.738   5.395  18.453  0.00  0.00    +0.000 C 
ATOM     12  O   UNL     1       4.944   5.611  18.454  0.00  0.00    +0.000 OA
BRANCH  11  13
ATOM     13  O   UNL     1       3.115   4.567  17.563  0.00  0.00    +0.000 OA
BRANCH  13  15
ATOM     14  C   UNL     1       2.486   2.271  17.734  0.00  0.00    +0.000 C 
ATOM     15  C   UNL     1       3.628   3.235  17.470  0.00  0.00    +0.000 C 
ENDBRANCH  13  15
ENDBRANCH  11  13
ENDBRANCH   5  11
ENDBRANCH   1   7
BRANCH   2  16
ATOM     16  C   UNL     1      -0.010  11.008  21.867  0.00  0.00    +0.000 C 
ATOM     17  C   UNL     1      -1.115  10.631  22.869  0.00  0.00    +0.000 C 
ATOM     18  C   UNL     1      -1.967  11.846  23.220  0.00  0.00    +0.000 C 
ATOM     19  C   UNL     1      -2.564  12.445  21.954  0.00  0.00    +0.000 C 
ATOM     20  C   UNL     1      -1.476  12.789  20.945  0.00  0.00    +0.000 C 
ATOM     21  N   UNL     1      -0.637  11.588  20.633  0.00  0.00    +0.000 NA
BRANCH  21  22
ATOM     22  S   UNL     1       0.381  11.819  19.269  0.00  0.00    +0.000 S 
ATOM     23  C   UNL     1      -0.419  13.152  18.385  0.00  0.00    +0.000 C 
ATOM     24  O   UNL     1       1.672  12.272  19.732  0.00  0.00    +0.000 OA
ATOM     25  O   UNL     1       0.277  10.627  18.453  0.00  0.00    +0.000 OA
ENDBRANCH  21  22
ENDBRANCH   2  16
TORSDOF 6
ENDMDL
MODEL 7
REMARK VINA RESULT:      -6.5      2.035      3.320
REMARK  Name = 
REMARK  9 active torsions:
REMARK  status: ('A' for Active; 'I' for Inactive)
REMARK    1  A    between atoms: C_1  and  C_2
REMARK    2  A    between atoms: C_2  and  O_3
REMARK    3  A    between atoms: O_3  and  C_4
REMARK    4  A    between atoms: C_4  and  C_6
REMARK    5  A    between atoms: C_8  and  N_9
REMARK    6  A    between atoms: C_10  and  C_12
REMARK    7  A    between atoms: N_17  and  S_18
REMARK    8  A    between atoms: S_18  and  C_19
REMARK    9  A    between atoms: C_23  and  C_24
REMARK                            x       y       z     vdW  Elec       q    Type
REMARK                         _______ _______ _______ _____ _____    ______ ____
ROOT
ATOM      1  N   UNL     1       1.956   7.571  18.056  0.00  0.00    +0.000 N 
ATOM      2  C   UNL     1       2.477   6.560  18.853  0.00  0.00    +0.000 C 
ATOM      3  O   UNL     1       2.885   6.661  20.013  0.00  0.00    +0.000 OA
ATOM      4  H   UNL     1       1.594   7.310  17.147  0.00  0.00    +0.000 HD
ENDROOT
BRANCH   1   7
ATOM      5  C   UNL     1       1.041  10.991  19.551  0.00  0.00    +0.000 A 
ATOM      6  S   UNL     1       0.757   9.312  19.726  0.00  0.00    +0.000 S 
ATOM      7  C   UNL     1       1.760   8.894  18.433  0.00  0.00    +0.000 A 
ATOM      8  C   UNL     1       2.310  10.016  17.850  0.00  0.00    +0.000 A 
ATOM      9  C   UNL     1       1.908  11.245  18.494  0.00  0.00    +0.000 A 
ATOM     10  C   UNL     1       2.384  12.605  18.089  0.00  0.00    +0.000 C 
BRANCH   5  11
ATOM     11  C   UNL     1       0.449  11.948  20.481  0.00  0.00    +0.000 C 
ATOM     12  O   UNL     1       0.754  12.069  21.661  0.00  0.00    +0.000 OA
BRANCH  11  13
ATOM     13  O   UNL     1      -0.575  12.630  19.888  0.00  0.00    +0.000 OA
BRANCH  13  15
ATOM     14  C   UNL     1      -2.316  11.857  18.449  0.00  0.00    +0.000 C 
ATOM     15  C   UNL     1      -1.851  11.985  19.889  0.00  0.00    +0.000 C 
ENDBRANCH  13  15
ENDBRANCH  11  13
ENDBRANCH   5  11
ENDBRANCH   1   7
BRANCH   2  16
ATOM     16  C   UNL     1       2.605   5.190  18.177  0.00  0.00    +0.000 C 
ATOM     17  C   UNL     1       1.735   4.162  18.920  0.00  0.00    +0.000 C 
ATOM     18  C   UNL     1       1.678   2.844  18.154  0.00  0.00    +0.000 C 
ATOM     19  C   UNL     1       3.087   2.307  17.939  0.00  0.00    +0.000 C 
ATOM     20  C   UNL     1       3.963   3.334  17.234  0.00  0.00    +0.000 C 
ATOM     21  N   UNL     1       3.984   4.628  17.990  0.00  0.00    +0.000 NA
BRANCH  21  22
ATOM     22  S   UNL     1       5.204   5.705  17.439  0.00  0.00    +0.000 S 
ATOM     23  C   UNL     1       6.241   4.660  16.423  0.00  0.00    +0.000 C 
ATOM     24  O   UNL     1       4.585   6.707  16.603  0.00  0.00    +0.000 OA
ATOM     25  O   UNL     1       5.979   6.100  18.597  0.00  0.00    +0.000 OA
ENDBRANCH  21  22
ENDBRANCH   2  16
TORSDOF 6
ENDMDL
MODEL 8
REMARK VINA RESULT:      -6.5      2.457      7.868
REMARK  Name = 
REMARK  9 active torsions:
REMARK  status: ('A' for Active; 'I' for Inactive)
REMARK    1  A    between atoms: C_1  and  C_2
REMARK    2  A    between atoms: C_2  and  O_3
REMARK    3  A    between atoms: O_3  and  C_4
REMARK    4  A    between atoms: C_4  and  C_6
REMARK    5  A    between atoms: C_8  and  N_9
REMARK    6  A    between atoms: C_10  and  C_12
REMARK    7  A    between atoms: N_17  and  S_18
REMARK    8  A    between atoms: S_18  and  C_19
REMARK    9  A    between atoms: C_23  and  C_24
REMARK                            x       y       z     vdW  Elec       q    Type
REMARK                         _______ _______ _______ _____ _____    ______ ____
ROOT
ATOM      1  N   UNL     1       1.220   8.785  20.558  0.00  0.00    +0.000 N 
ATOM      2  C   UNL     1       0.028   9.021  21.231  0.00  0.00    +0.000 C 
ATOM      3  O   UNL     1      -0.809   8.184  21.579  0.00  0.00    +0.000 OA
ATOM      4  H   UNL     1       1.836   9.575  20.410  0.00  0.00    +0.000 HD
ENDROOT
BRANCH   1   7
ATOM      5  C   UNL     1       2.776   5.645  18.981  0.00  0.00    +0.000 A 
ATOM      6  S   UNL     1       2.475   7.305  18.690  0.00  0.00    +0.000 S 
ATOM      7  C   UNL     1       1.717   7.545  20.180  0.00  0.00    +0.000 A 
ATOM      8  C   UNL     1       1.673   6.374  20.907  0.00  0.00    +0.000 A 
ATOM      9  C   UNL     1       2.293   5.260  20.228  0.00  0.00    +0.000 A 
ATOM     10  C   UNL     1       2.417   3.883  20.803  0.00  0.00    +0.000 C 
BRANCH   5  11
ATOM     11  C   UNL     1       3.505   4.838  18.009  0.00  0.00    +0.000 C 
ATOM     12  O   UNL     1       3.018   3.953  17.315  0.00  0.00    +0.000 OA
BRANCH  11  13
ATOM     13  O   UNL     1       4.840   5.125  18.046  0.00  0.00    +0.000 OA
BRANCH  13  15
ATOM     14  C   UNL     1       5.147   6.430  16.071  0.00  0.00    +0.000 C 
ATOM     15  C   UNL     1       5.520   5.144  16.788  0.00  0.00    +0.000 C 
ENDBRANCH  13  15
ENDBRANCH  11  13
ENDBRANCH   5  11
ENDBRANCH   1   7
BRANCH   2  16
ATOM     16  C   UNL     1      -0.291  10.494  21.507  0.00  0.00    +0.000 C 
ATOM     17  C   UNL     1      -1.043  10.620  22.844  0.00  0.00    +0.000 C 
ATOM     18  C   UNL     1      -1.193  12.084  23.247  0.00  0.00    +0.000 C 
ATOM     19  C   UNL     1      -1.910  12.855  22.147  0.00  0.00    +0.000 C 
ATOM     20  C   UNL     1      -1.188  12.706  20.814  0.00  0.00    +0.000 C 
ATOM     21  N   UNL     1      -1.030  11.261  20.450  0.00  0.00    +0.000 NA
BRANCH  21  22
ATOM     22  S   UNL     1      -0.532  11.032  18.821  0.00  0.00    +0.000 S 
ATOM     23  C   UNL     1      -1.078  12.532  18.014  0.00  0.00    +0.000 C 
ATOM     24  O   UNL     1       0.910  10.980  18.787  0.00  0.00    +0.000 OA
ATOM     25  O   UNL     1      -1.314   9.937  18.287  0.00  0.00    +0.000 OA
ENDBRANCH  21  22
ENDBRANCH   2  16
TORSDOF 6
ENDMDL
MODEL 9
REMARK VINA RESULT:      -6.5      2.181      3.599
REMARK  Name = 
REMARK  9 active torsions:
REMARK  status: ('A' for Active; 'I' for Inactive)
REMARK    1  A    between atoms: C_1  and  C_2
REMARK    2  A    between atoms: C_2  and  O_3
REMARK    3  A    between atoms: O_3  and  C_4
REMARK    4  A    between atoms: C_4  and  C_6
REMARK    5  A    between atoms: C_8  and  N_9
REMARK    6  A    between atoms: C_10  and  C_12
REMARK    7  A    between atoms: N_17  and  S_18
REMARK    8  A    between atoms: S_18  and  C_19
REMARK    9  A    between atoms: C_23  and  C_24
REMARK                            x       y       z     vdW  Elec       q    Type
REMARK                         _______ _______ _______ _____ _____    ______ ____
ROOT
ATOM      1  N   UNL     1       1.967   7.431  18.154  0.00  0.00    +0.000 N 
ATOM      2  C   UNL     1       2.535   6.408  18.902  0.00  0.00    +0.000 C 
ATOM      3  O   UNL     1       2.973   6.481  20.053  0.00  0.00    +0.000 OA
ATOM      4  H   UNL     1       1.588   7.191  17.247  0.00  0.00    +0.000 HD
ENDROOT
BRANCH   1   7
ATOM      5  C   UNL     1       1.099  10.770  19.847  0.00  0.00    +0.000 A 
ATOM      6  S   UNL     1       0.982   9.074  20.048  0.00  0.00    +0.000 S 
ATOM      7  C   UNL     1       1.748   8.734  18.581  0.00  0.00    +0.000 A 
ATOM      8  C   UNL     1       2.089   9.896  17.921  0.00  0.00    +0.000 A 
ATOM      9  C   UNL     1       1.727  11.090  18.648  0.00  0.00    +0.000 A 
ATOM     10  C   UNL     1       2.013  12.483  18.179  0.00  0.00    +0.000 C 
BRANCH   5  11
ATOM     11  C   UNL     1       0.626  11.678  20.886  0.00  0.00    +0.000 C 
ATOM     12  O   UNL     1       1.276  12.596  21.375  0.00  0.00    +0.000 OA
BRANCH  11  13
ATOM     13  O   UNL     1      -0.612  11.307  21.327  0.00  0.00    +0.000 OA
BRANCH  13  15
ATOM     14  C   UNL     1      -2.333  12.036  22.812  0.00  0.00    +0.000 C 
ATOM     15  C   UNL     1      -0.896  11.557  22.706  0.00  0.00    +0.000 C 
ENDBRANCH  13  15
ENDBRANCH  11  13
ENDBRANCH   5  11
ENDBRANCH   1   7
BRANCH   2  16
ATOM     16  C   UNL     1       2.681   5.066  18.176  0.00  0.00    +0.000 C 
ATOM     17  C   UNL     1       1.834   3.997  18.889  0.00  0.00    +0.000 C 
ATOM     18  C   UNL     1       1.793   2.706  18.077  0.00  0.00    +0.000 C 
ATOM     19  C   UNL     1       3.208   2.202  17.831  0.00  0.00    +0.000 C 
ATOM     20  C   UNL     1       4.060   3.268  17.156  0.00  0.00    +0.000 C 
ATOM     21  N   UNL     1       4.067   4.534  17.957  0.00  0.00    +0.000 NA
BRANCH  21  22
ATOM     22  S   UNL     1       5.263   5.651  17.434  0.00  0.00    +0.000 S 
ATOM     23  C   UNL     1       6.302   4.664  16.364  0.00  0.00    +0.000 C 
ATOM     24  O   UNL     1       4.619   6.676  16.647  0.00  0.00    +0.000 OA
ATOM     25  O   UNL     1       6.047   6.011  18.597  0.00  0.00    +0.000 OA
ENDBRANCH  21  22
ENDBRANCH   2  16
TORSDOF 6
ENDMDL
