MODEL 1
REMARK VINA RESULT:      -8.7      0.000      0.000
REMARK  Name = 
REMARK  7 active torsions:
REMARK  status: ('A' for Active; 'I' for Inactive)
REMARK    1  A    between atoms: C_1  and  C_2
REMARK    2  A    between atoms: C_2  and  O_3
REMARK    3  A    between atoms: O_3  and  C_4
REMARK    4  A    between atoms: C_4  and  C_6
REMARK    5  A    between atoms: C_9  and  N_10
REMARK    6  A    between atoms: C_13  and  C_14
REMARK    7  A    between atoms: C_15  and  C_16
REMARK                            x       y       z     vdW  Elec       q    Type
REMARK                         _______ _______ _______ _____ _____    ______ ____
ROOT
ATOM      1  N   UNL     1       2.976   6.921  18.574  0.00  0.00    +0.000 N 
ATOM      2  C   UNL     1       2.709   6.309  19.790  0.00  0.00    +0.000 A 
ATOM      3  C   UNL     1       1.867   6.838  20.681  0.00  0.00    +0.000 A 
ATOM      4  C   UNL     1       1.217   8.102  20.421  0.00  0.00    +0.000 A 
ATOM      5  C   UNL     1       0.315   8.622  21.511  0.00  0.00    +0.000 C 
ATOM      6  C   UNL     1       1.445   8.739  19.251  0.00  0.00    +0.000 A 
ATOM      7  C   UNL     1       2.381   8.148  18.231  0.00  0.00    +0.000 A 
ATOM      8  O   UNL     1       2.606   8.779  17.197  0.00  0.00    +0.000 OA
ENDROOT
BRANCH   6   9
ATOM      9  C   UNL     1       0.816  10.031  18.953  0.00  0.00    +0.000 A 
ATOM     10  C   UNL     1      -0.484  10.085  18.450  0.00  0.00    +0.000 A 
ATOM     11  C   UNL     1      -1.142  11.315  18.361  0.00  0.00    +0.000 A 
ATOM     12  C   UNL     1      -0.527  12.492  18.770  0.00  0.00    +0.000 A 
ATOM     13  N   UNL     1      -1.243  13.614  18.896  0.00  0.00    +0.000 NA
ATOM     14  C   UNL     1      -0.598  14.702  19.330  0.00  0.00    +0.000 A 
ATOM     15  N   UNL     1      -1.357  15.714  19.893  0.00  0.00    +0.000 N 
ATOM     16  N   UNL     1       0.717  14.799  19.525  0.00  0.00    +0.000 NA
ATOM     17  C   UNL     1       1.411  13.657  19.408  0.00  0.00    +0.000 A 
ATOM     18  C   UNL     1       0.824  12.440  19.118  0.00  0.00    +0.000 A 
ATOM     19  C   UNL     1       1.500  11.216  19.223  0.00  0.00    +0.000 A 
ATOM     20  H   UNL     1      -2.032  15.247  20.489  0.00  0.00    +0.000 HD
ATOM     21  H   UNL     1      -0.700  16.288  20.409  0.00  0.00    +0.000 HD
ENDBRANCH   6   9
BRANCH   1  25
ATOM     22  C   UNL     1       5.679   5.174  15.841  0.00  0.00    +0.000 A 
ATOM     23  C   UNL     1       5.825   6.517  16.209  0.00  0.00    +0.000 A 
ATOM     24  C   UNL     1       4.942   7.083  17.124  0.00  0.00    +0.000 A 
ATOM     25  C   UNL     1       3.890   6.326  17.655  0.00  0.00    +0.000 A 
ATOM     26  C   UNL     1       3.748   4.986  17.272  0.00  0.00    +0.000 A 
ATOM     27  C   UNL     1       4.646   4.404  16.382  0.00  0.00    +0.000 A 
BRANCH  22  28
ATOM     28  C   UNL     1       6.607   4.634  14.817  0.00  0.00    +0.000 C 
ATOM     29  O   UNL     1       7.707   5.111  14.608  0.00  0.00    +0.000 OA
BRANCH  28  30
ATOM     30  O   UNL     1       6.027   3.627  14.117  0.00  0.00    +0.000 OA
BRANCH  30  32
ATOM     31  C   UNL     1       5.054   3.242  11.963  0.00  0.00    +0.000 C 
ATOM     32  C   UNL     1       6.318   3.622  12.713  0.00  0.00    +0.000 C 
ENDBRANCH  30  32
ENDBRANCH  28  30
ENDBRANCH  22  28
ENDBRANCH   1  25
TORSDOF 5
ENDMDL
MODEL 2
REMARK VINA RESULT:      -8.0      3.602      5.449
REMARK  Name = 
REMARK  7 active torsions:
REMARK  status: ('A' for Active; 'I' for Inactive)
REMARK    1  A    between atoms: C_1  and  C_2
REMARK    2  A    between atoms: C_2  and  O_3
REMARK    3  A    between atoms: O_3  and  C_4
REMARK    4  A    between atoms: C_4  and  C_6
REMARK    5  A    between atoms: C_9  and  N_10
REMARK    6  A    between atoms: C_13  and  C_14
REMARK    7  A    between atoms: C_15  and  C_16
REMARK                            x       y       z     vdW  Elec       q    Type
REMARK                         _______ _______ _______ _____ _____    ______ ____
ROOT
ATOM      1  N   UNL     1       1.290  10.065  19.148  0.00  0.00    +0.000 N 
ATOM      2  C   UNL     1       2.049  11.005  18.468  0.00  0.00    +0.000 A 
ATOM      3  C   UNL     1       1.708  12.296  18.423  0.00  0.00    +0.000 A 
ATOM      4  C   UNL     1       0.499  12.761  19.065  0.00  0.00    +0.000 A 
ATOM      5  C   UNL     1       0.193  14.230  18.921  0.00  0.00    +0.000 C 
ATOM      6  C   UNL     1      -0.276  11.882  19.740  0.00  0.00    +0.000 A 
ATOM      7  C   UNL     1       0.104  10.428  19.811  0.00  0.00    +0.000 A 
ATOM      8  O   UNL     1      -0.651   9.646  20.391  0.00  0.00    +0.000 OA
ENDROOT
BRANCH   6   9
ATOM      9  C   UNL     1      -1.517  12.311  20.394  0.00  0.00    +0.000 A 
ATOM     10  C   UNL     1      -2.722  12.319  19.689  0.00  0.00    +0.000 A 
ATOM     11  C   UNL     1      -3.922  12.534  20.370  0.00  0.00    +0.000 A 
ATOM     12  C   UNL     1      -3.944  12.736  21.745  0.00  0.00    +0.000 A 
ATOM     13  N   UNL     1      -5.104  12.708  22.409  0.00  0.00    +0.000 NA
ATOM     14  C   UNL     1      -5.051  12.872  23.735  0.00  0.00    +0.000 A 
ATOM     15  N   UNL     1      -6.121  12.407  24.482  0.00  0.00    +0.000 N 
ATOM     16  N   UNL     1      -3.962  13.187  24.435  0.00  0.00    +0.000 NA
ATOM     17  C   UNL     1      -2.808  13.195  23.750  0.00  0.00    +0.000 A 
ATOM     18  C   UNL     1      -2.724  12.885  22.406  0.00  0.00    +0.000 A 
ATOM     19  C   UNL     1      -1.508  12.663  21.744  0.00  0.00    +0.000 A 
ATOM     20  H   UNL     1      -6.355  11.503  24.086  0.00  0.00    +0.000 HD
ATOM     21  H   UNL     1      -5.780  12.350  25.434  0.00  0.00    +0.000 HD
ENDBRANCH   6   9
BRANCH   1  25
ATOM     22  C   UNL     1       2.453   6.006  19.179  0.00  0.00    +0.000 A 
ATOM     23  C   UNL     1       2.480   6.734  17.983  0.00  0.00    +0.000 A 
ATOM     24  C   UNL     1       2.114   8.076  17.982  0.00  0.00    +0.000 A 
ATOM     25  C   UNL     1       1.686   8.695  19.163  0.00  0.00    +0.000 A 
ATOM     26  C   UNL     1       1.653   7.954  20.352  0.00  0.00    +0.000 A 
ATOM     27  C   UNL     1       2.049   6.620  20.367  0.00  0.00    +0.000 A 
BRANCH  22  28
ATOM     28  C   UNL     1       2.794   4.564  19.117  0.00  0.00    +0.000 C 
ATOM     29  O   UNL     1       3.918   4.162  18.875  0.00  0.00    +0.000 OA
BRANCH  28  30
ATOM     30  O   UNL     1       1.688   3.795  19.275  0.00  0.00    +0.000 OA
BRANCH  30  32
ATOM     31  C   UNL     1       1.585   2.918  21.502  0.00  0.00    +0.000 C 
ATOM     32  C   UNL     1       1.886   2.603  20.048  0.00  0.00    +0.000 C 
ENDBRANCH  30  32
ENDBRANCH  28  30
ENDBRANCH  22  28
ENDBRANCH   1  25
TORSDOF 5
ENDMDL
MODEL 3
REMARK VINA RESULT:      -7.9      3.733      5.735
REMARK  Name = 
REMARK  7 active torsions:
REMARK  status: ('A' for Active; 'I' for Inactive)
REMARK    1  A    between atoms: C_1  and  C_2
REMARK    2  A    between atoms: C_2  and  O_3
REMARK    3  A    between atoms: O_3  and  C_4
REMARK    4  A    between atoms: C_4  and  C_6
REMARK    5  A    between atoms: C_9  and  N_10
REMARK    6  A    between atoms: C_13  and  C_14
REMARK    7  A    between atoms: C_15  and  C_16
REMARK                            x       y       z     vdW  Elec       q    Type
REMARK                         _______ _______ _______ _____ _____    ______ ____
ROOT
ATOM      1  N   UNL     1       0.886  10.780  19.244  0.00  0.00    +0.000 N 
ATOM      2  C   UNL     1       1.634  11.875  18.837  0.00  0.00    +0.000 A 
ATOM      3  C   UNL     1       1.167  13.124  18.917  0.00  0.00    +0.000 A 
ATOM      4  C   UNL     1      -0.167  13.381  19.410  0.00  0.00    +0.000 A 
ATOM      5  C   UNL     1      -0.603  14.824  19.425  0.00  0.00    +0.000 C 
ATOM      6  C   UNL     1      -0.936  12.347  19.818  0.00  0.00    +0.000 A 
ATOM      7  C   UNL     1      -0.418  10.936  19.747  0.00  0.00    +0.000 A 
ATOM      8  O   UNL     1      -1.164  10.014  20.079  0.00  0.00    +0.000 OA
ENDROOT
BRANCH   6   9
ATOM      9  C   UNL     1      -2.301  12.565  20.312  0.00  0.00    +0.000 A 
ATOM     10  C   UNL     1      -3.384  12.535  19.433  0.00  0.00    +0.000 A 
ATOM     11  C   UNL     1      -4.687  12.542  19.938  0.00  0.00    +0.000 A 
ATOM     12  C   UNL     1      -4.929  12.573  21.307  0.00  0.00    +0.000 A 
ATOM     13  N   UNL     1      -6.160  12.346  21.775  0.00  0.00    +0.000 NA
ATOM     14  C   UNL     1      -6.317  12.353  23.103  0.00  0.00    +0.000 A 
ATOM     15  N   UNL     1      -7.419  11.694  23.622  0.00  0.00    +0.000 N 
ATOM     16  N   UNL     1      -5.384  12.691  23.993  0.00  0.00    +0.000 NA
ATOM     17  C   UNL     1      -4.154  12.899  23.501  0.00  0.00    +0.000 A 
ATOM     18  C   UNL     1      -3.841  12.764  22.161  0.00  0.00    +0.000 A 
ATOM     19  C   UNL     1      -2.526  12.750  21.676  0.00  0.00    +0.000 A 
ATOM     20  H   UNL     1      -7.485  10.825  23.102  0.00  0.00    +0.000 HD
ATOM     21  H   UNL     1      -7.213  11.557  24.604  0.00  0.00    +0.000 HD
ENDBRANCH   6   9
BRANCH   1  25
ATOM     22  C   UNL     1       2.456   6.875  18.899  0.00  0.00    +0.000 A 
ATOM     23  C   UNL     1       2.365   7.697  17.768  0.00  0.00    +0.000 A 
ATOM     24  C   UNL     1       1.864   8.990  17.891  0.00  0.00    +0.000 A 
ATOM     25  C   UNL     1       1.420   9.462  19.132  0.00  0.00    +0.000 A 
ATOM     26  C   UNL     1       1.505   8.628  20.254  0.00  0.00    +0.000 A 
ATOM     27  C   UNL     1       2.035   7.346  20.145  0.00  0.00    +0.000 A 
BRANCH  22  28
ATOM     28  C   UNL     1       2.938   5.487  18.706  0.00  0.00    +0.000 C 
ATOM     29  O   UNL     1       4.088   5.152  18.927  0.00  0.00    +0.000 OA
BRANCH  28  30
ATOM     30  O   UNL     1       1.966   4.701  18.180  0.00  0.00    +0.000 OA
BRANCH  30  32
ATOM     31  C   UNL     1       0.936   3.524  19.995  0.00  0.00    +0.000 C 
ATOM     32  C   UNL     1       1.843   3.406  18.783  0.00  0.00    +0.000 C 
ENDBRANCH  30  32
ENDBRANCH  28  30
ENDBRANCH  22  28
ENDBRANCH   1  25
TORSDOF 5
ENDMDL
MODEL 4
REMARK VINA RESULT:      -7.9      3.551      5.431
REMARK  Name = 
REMARK  7 active torsions:
REMARK  status: ('A' for Active; 'I' for Inactive)
REMARK    1  A    between atoms: C_1  and  C_2
REMARK    2  A    between atoms: C_2  and  O_3
REMARK    3  A    between atoms: O_3  and  C_4
REMARK    4  A    between atoms: C_4  and  C_6
REMARK    5  A    between atoms: C_9  and  N_10
REMARK    6  A    between atoms: C_13  and  C_14
REMARK    7  A    between atoms: C_15  and  C_16
REMARK                            x       y       z     vdW  Elec       q    Type
REMARK                         _______ _______ _______ _____ _____    ______ ____
ROOT
ATOM      1  N   UNL     1       1.304  10.177  19.030  0.00  0.00    +0.000 N 
ATOM      2  C   UNL     1       2.041  11.141  18.360  0.00  0.00    +0.000 A 
ATOM      3  C   UNL     1       1.678  12.426  18.338  0.00  0.00    +0.000 A 
ATOM      4  C   UNL     1       0.467  12.861  18.998  0.00  0.00    +0.000 A 
ATOM      5  C   UNL     1       0.135  14.326  18.880  0.00  0.00    +0.000 C 
ATOM      6  C   UNL     1      -0.287  11.958  19.664  0.00  0.00    +0.000 A 
ATOM      7  C   UNL     1       0.118  10.510  19.708  0.00  0.00    +0.000 A 
ATOM      8  O   UNL     1      -0.620   9.706  20.281  0.00  0.00    +0.000 OA
ENDROOT
BRANCH   6   9
ATOM      9  C   UNL     1      -1.531  12.355  20.334  0.00  0.00    +0.000 A 
ATOM     10  C   UNL     1      -2.749  12.299  19.656  0.00  0.00    +0.000 A 
ATOM     11  C   UNL     1      -3.942  12.485  20.359  0.00  0.00    +0.000 A 
ATOM     12  C   UNL     1      -3.943  12.721  21.729  0.00  0.00    +0.000 A 
ATOM     13  N   UNL     1      -5.086  12.665  22.419  0.00  0.00    +0.000 NA
ATOM     14  C   UNL     1      -5.011  12.865  23.738  0.00  0.00    +0.000 A 
ATOM     15  N   UNL     1      -6.046  12.378  24.520  0.00  0.00    +0.000 N 
ATOM     16  N   UNL     1      -3.921  13.240  24.406  0.00  0.00    +0.000 NA
ATOM     17  C   UNL     1      -2.783  13.274  23.696  0.00  0.00    +0.000 A 
ATOM     18  C   UNL     1      -2.715  12.933  22.358  0.00  0.00    +0.000 A 
ATOM     19  C   UNL     1      -1.506  12.742  21.674  0.00  0.00    +0.000 A 
ATOM     20  H   UNL     1      -6.253  11.456  24.153  0.00  0.00    +0.000 HD
ATOM     21  H   UNL     1      -5.683  12.359  25.466  0.00  0.00    +0.000 HD
ENDBRANCH   6   9
BRANCH   1  25
ATOM     22  C   UNL     1       2.555   6.144  19.013  0.00  0.00    +0.000 A 
ATOM     23  C   UNL     1       2.136   6.743  20.207  0.00  0.00    +0.000 A 
ATOM     24  C   UNL     1       1.707   8.067  20.204  0.00  0.00    +0.000 A 
ATOM     25  C   UNL     1       1.723   8.814  19.019  0.00  0.00    +0.000 A 
ATOM     26  C   UNL     1       2.154   8.208  17.832  0.00  0.00    +0.000 A 
ATOM     27  C   UNL     1       2.553   6.874  17.821  0.00  0.00    +0.000 A 
BRANCH  22  28
ATOM     28  C   UNL     1       3.060   4.752  19.079  0.00  0.00    +0.000 C 
ATOM     29  O   UNL     1       3.313   4.094  18.086  0.00  0.00    +0.000 OA
BRANCH  28  30
ATOM     30  O   UNL     1       3.109   4.311  20.361  0.00  0.00    +0.000 OA
BRANCH  30  32
ATOM     31  C   UNL     1       1.071   3.100  20.702  0.00  0.00    +0.000 C 
ATOM     32  C   UNL     1       2.579   2.995  20.569  0.00  0.00    +0.000 C 
ENDBRANCH  30  32
ENDBRANCH  28  30
ENDBRANCH  22  28
ENDBRANCH   1  25
TORSDOF 5
ENDMDL
MODEL 5
REMARK VINA RESULT:      -7.8      3.471      5.094
REMARK  Name = 
REMARK  7 active torsions:
REMARK  status: ('A' for Active; 'I' for Inactive)
REMARK    1  A    between atoms: C_1  and  C_2
REMARK    2  A    between atoms: C_2  and  O_3
REMARK    3  A    between atoms: O_3  and  C_4
REMARK    4  A    between atoms: C_4  and  C_6
REMARK    5  A    between atoms: C_9  and  N_10
REMARK    6  A    between atoms: C_13  and  C_14
REMARK    7  A    between atoms: C_15  and  C_16
REMARK                            x       y       z     vdW  Elec       q    Type
REMARK                         _______ _______ _______ _____ _____    ______ ____
ROOT
ATOM      1  N   UNL     1       1.237  10.295  19.105  0.00  0.00    +0.000 N 
ATOM      2  C   UNL     1       1.973  11.271  18.450  0.00  0.00    +0.000 A 
ATOM      3  C   UNL     1       1.598  12.553  18.435  0.00  0.00    +0.000 A 
ATOM      4  C   UNL     1       0.377  12.971  19.084  0.00  0.00    +0.000 A 
ATOM      5  C   UNL     1       0.032  14.434  18.973  0.00  0.00    +0.000 C 
ATOM      6  C   UNL     1      -0.377  12.057  19.735  0.00  0.00    +0.000 A 
ATOM      7  C   UNL     1       0.041  10.611  19.773  0.00  0.00    +0.000 A 
ATOM      8  O   UNL     1      -0.695   9.796  20.332  0.00  0.00    +0.000 OA
ENDROOT
BRANCH   6   9
ATOM      9  C   UNL     1      -1.631  12.437  20.395  0.00  0.00    +0.000 A 
ATOM     10  C   UNL     1      -2.840  12.389  19.699  0.00  0.00    +0.000 A 
ATOM     11  C   UNL     1      -4.043  12.558  20.387  0.00  0.00    +0.000 A 
ATOM     12  C   UNL     1      -4.064  12.768  21.761  0.00  0.00    +0.000 A 
ATOM     13  N   UNL     1      -5.217  12.696  22.433  0.00  0.00    +0.000 NA
ATOM     14  C   UNL     1      -5.162  12.871  23.758  0.00  0.00    +0.000 A 
ATOM     15  N   UNL     1      -6.206  12.367  24.515  0.00  0.00    +0.000 N 
ATOM     16  N   UNL     1      -4.082  13.237  24.448  0.00  0.00    +0.000 NA
ATOM     17  C   UNL     1      -2.935  13.288  23.755  0.00  0.00    +0.000 A 
ATOM     18  C   UNL     1      -2.846  12.973  22.412  0.00  0.00    +0.000 A 
ATOM     19  C   UNL     1      -1.627  12.798  21.743  0.00  0.00    +0.000 A 
ATOM     20  H   UNL     1      -6.404  11.451  24.127  0.00  0.00    +0.000 HD
ATOM     21  H   UNL     1      -5.856  12.330  25.465  0.00  0.00    +0.000 HD
ENDBRANCH   6   9
BRANCH   1  25
ATOM     22  C   UNL     1       2.507   6.268  19.043  0.00  0.00    +0.000 A 
ATOM     23  C   UNL     1       2.505   7.021  17.862  0.00  0.00    +0.000 A 
ATOM     24  C   UNL     1       2.104   8.353  17.892  0.00  0.00    +0.000 A 
ATOM     25  C   UNL     1       1.670   8.936  19.089  0.00  0.00    +0.000 A 
ATOM     26  C   UNL     1       1.666   8.171  20.262  0.00  0.00    +0.000 A 
ATOM     27  C   UNL     1       2.097   6.847  20.247  0.00  0.00    +0.000 A 
BRANCH  22  28
ATOM     28  C   UNL     1       2.885   4.838  18.949  0.00  0.00    +0.000 C 
ATOM     29  O   UNL     1       3.170   4.165  19.924  0.00  0.00    +0.000 OA
BRANCH  28  30
ATOM     30  O   UNL     1       2.949   4.435  17.656  0.00  0.00    +0.000 OA
BRANCH  30  32
ATOM     31  C   UNL     1       4.946   4.410  16.333  0.00  0.00    +0.000 C 
ATOM     32  C   UNL     1       4.096   3.639  17.327  0.00  0.00    +0.000 C 
ENDBRANCH  30  32
ENDBRANCH  28  30
ENDBRANCH  22  28
ENDBRANCH   1  25
TORSDOF 5
ENDMDL
MODEL 6
REMARK VINA RESULT:      -7.8      3.593      5.701
REMARK  Name = 
REMARK  7 active torsions:
REMARK  status: ('A' for Active; 'I' for Inactive)
REMARK    1  A    between atoms: C_1  and  C_2
REMARK    2  A    between atoms: C_2  and  O_3
REMARK    3  A    between atoms: O_3  and  C_4
REMARK    4  A    between atoms: C_4  and  C_6
REMARK    5  A    between atoms: C_9  and  N_10
REMARK    6  A    between atoms: C_13  and  C_14
REMARK    7  A    between atoms: C_15  and  C_16
REMARK                            x       y       z     vdW  Elec       q    Type
REMARK                         _______ _______ _______ _____ _____    ______ ____
ROOT
ATOM      1  N   UNL     1       0.974  10.515  19.034  0.00  0.00    +0.000 N 
ATOM      2  C   UNL     1       1.756  11.602  18.672  0.00  0.00    +0.000 A 
ATOM      3  C   UNL     1       1.273  12.847  18.645  0.00  0.00    +0.000 A 
ATOM      4  C   UNL     1      -0.113  13.107  18.966  0.00  0.00    +0.000 A 
ATOM      5  C   UNL     1      -0.559  14.543  18.868  0.00  0.00    +0.000 C 
ATOM      6  C   UNL     1      -0.916  12.080  19.323  0.00  0.00    +0.000 A 
ATOM      7  C   UNL     1      -0.381  10.674  19.372  0.00  0.00    +0.000 A 
ATOM      8  O   UNL     1      -1.154   9.756  19.652  0.00  0.00    +0.000 OA
ENDROOT
BRANCH   6   9
ATOM      9  C   UNL     1      -2.331  12.299  19.642  0.00  0.00    +0.000 A 
ATOM     10  C   UNL     1      -3.316  12.091  18.675  0.00  0.00    +0.000 A 
ATOM     11  C   UNL     1      -4.663  12.107  19.042  0.00  0.00    +0.000 A 
ATOM     12  C   UNL     1      -5.048  12.321  20.361  0.00  0.00    +0.000 A 
ATOM     13  N   UNL     1      -6.313  12.104  20.734  0.00  0.00    +0.000 NA
ATOM     14  C   UNL     1      -6.608  12.292  22.024  0.00  0.00    +0.000 A 
ATOM     15  N   UNL     1      -7.736  11.662  22.522  0.00  0.00    +0.000 N 
ATOM     16  N   UNL     1      -5.786  12.798  22.943  0.00  0.00    +0.000 NA
ATOM     17  C   UNL     1      -4.518  12.993  22.549  0.00  0.00    +0.000 A 
ATOM     18  C   UNL     1      -4.063  12.685  21.280  0.00  0.00    +0.000 A 
ATOM     19  C   UNL     1      -2.704  12.666  20.936  0.00  0.00    +0.000 A 
ATOM     20  H   UNL     1      -7.718  10.726  22.132  0.00  0.00    +0.000 HD
ATOM     21  H   UNL     1      -7.630  11.676  23.530  0.00  0.00    +0.000 HD
ENDBRANCH   6   9
BRANCH   1  25
ATOM     22  C   UNL     1       2.624   6.628  19.070  0.00  0.00    +0.000 A 
ATOM     23  C   UNL     1       2.106   7.181  20.248  0.00  0.00    +0.000 A 
ATOM     24  C   UNL     1       1.547   8.455  20.226  0.00  0.00    +0.000 A 
ATOM     25  C   UNL     1       1.528   9.201  19.041  0.00  0.00    +0.000 A 
ATOM     26  C   UNL     1       2.058   8.642  17.871  0.00  0.00    +0.000 A 
ATOM     27  C   UNL     1       2.590   7.356  17.877  0.00  0.00    +0.000 A 
BRANCH  22  28
ATOM     28  C   UNL     1       3.264   5.293  19.157  0.00  0.00    +0.000 C 
ATOM     29  O   UNL     1       3.919   4.816  18.248  0.00  0.00    +0.000 OA
BRANCH  28  30
ATOM     30  O   UNL     1       2.943   4.674  20.320  0.00  0.00    +0.000 OA
BRANCH  30  32
ATOM     31  C   UNL     1       2.349   2.718  21.568  0.00  0.00    +0.000 C 
ATOM     32  C   UNL     1       2.884   3.243  20.248  0.00  0.00    +0.000 C 
ENDBRANCH  30  32
ENDBRANCH  28  30
ENDBRANCH  22  28
ENDBRANCH   1  25
TORSDOF 5
ENDMDL
MODEL 7
REMARK VINA RESULT:      -7.7      3.601      5.480
REMARK  Name = 
REMARK  7 active torsions:
REMARK  status: ('A' for Active; 'I' for Inactive)
REMARK    1  A    between atoms: C_1  and  C_2
REMARK    2  A    between atoms: C_2  and  O_3
REMARK    3  A    between atoms: O_3  and  C_4
REMARK    4  A    between atoms: C_4  and  C_6
REMARK    5  A    between atoms: C_9  and  N_10
REMARK    6  A    between atoms: C_13  and  C_14
REMARK    7  A    between atoms: C_15  and  C_16
REMARK                            x       y       z     vdW  Elec       q    Type
REMARK                         _______ _______ _______ _____ _____    ______ ____
ROOT
ATOM      1  N   UNL     1       1.018  10.586  19.139  0.00  0.00    +0.000 N 
ATOM      2  C   UNL     1       1.772  11.648  18.663  0.00  0.00    +0.000 A 
ATOM      3  C   UNL     1       1.318  12.904  18.679  0.00  0.00    +0.000 A 
ATOM      4  C   UNL     1      -0.008  13.203  19.171  0.00  0.00    +0.000 A 
ATOM      5  C   UNL     1      -0.430  14.648  19.109  0.00  0.00    +0.000 C 
ATOM      6  C   UNL     1      -0.782  12.201  19.644  0.00  0.00    +0.000 A 
ATOM      7  C   UNL     1      -0.279  10.783  19.646  0.00  0.00    +0.000 A 
ATOM      8  O   UNL     1      -1.030   9.888  20.037  0.00  0.00    +0.000 OA
ENDROOT
BRANCH   6   9
ATOM      9  C   UNL     1      -2.139  12.459  20.139  0.00  0.00    +0.000 A 
ATOM     10  C   UNL     1      -3.231  12.409  19.271  0.00  0.00    +0.000 A 
ATOM     11  C   UNL     1      -4.529  12.457  19.785  0.00  0.00    +0.000 A 
ATOM     12  C   UNL     1      -4.758  12.549  21.153  0.00  0.00    +0.000 A 
ATOM     13  N   UNL     1      -5.989  12.361  21.641  0.00  0.00    +0.000 NA
ATOM     14  C   UNL     1      -6.134  12.426  22.968  0.00  0.00    +0.000 A 
ATOM     15  N   UNL     1      -7.241  11.806  23.523  0.00  0.00    +0.000 N 
ATOM     16  N   UNL     1      -5.189  12.787  23.836  0.00  0.00    +0.000 NA
ATOM     17  C   UNL     1      -3.960  12.955  23.325  0.00  0.00    +0.000 A 
ATOM     18  C   UNL     1      -3.661  12.760  21.990  0.00  0.00    +0.000 A 
ATOM     19  C   UNL     1      -2.350  12.706  21.496  0.00  0.00    +0.000 A 
ATOM     20  H   UNL     1      -7.324  10.917  23.042  0.00  0.00    +0.000 HD
ATOM     21  H   UNL     1      -7.029  11.708  24.509  0.00  0.00    +0.000 HD
ENDBRANCH   6   9
BRANCH   1  25
ATOM     22  C   UNL     1       2.547   6.652  18.995  0.00  0.00    +0.000 A 
ATOM     23  C   UNL     1       2.530   7.441  17.837  0.00  0.00    +0.000 A 
ATOM     24  C   UNL     1       2.042   8.743  17.895  0.00  0.00    +0.000 A 
ATOM     25  C   UNL     1       1.538   9.258  19.095  0.00  0.00    +0.000 A 
ATOM     26  C   UNL     1       1.550   8.458  20.244  0.00  0.00    +0.000 A 
ATOM     27  C   UNL     1       2.067   7.165  20.202  0.00  0.00    +0.000 A 
BRANCH  22  28
ATOM     28  C   UNL     1       3.019   5.252  18.869  0.00  0.00    +0.000 C 
ATOM     29  O   UNL     1       2.450   4.423  18.183  0.00  0.00    +0.000 OA
BRANCH  28  30
ATOM     30  O   UNL     1       4.087   5.025  19.675  0.00  0.00    +0.000 OA
BRANCH  30  32
ATOM     31  C   UNL     1       6.195   5.578  18.680  0.00  0.00    +0.000 C 
ATOM     32  C   UNL     1       5.229   4.457  19.018  0.00  0.00    +0.000 C 
ENDBRANCH  30  32
ENDBRANCH  28  30
ENDBRANCH  22  28
ENDBRANCH   1  25
TORSDOF 5
ENDMDL
MODEL 8
REMARK VINA RESULT:      -7.7      3.593      5.333
REMARK  Name = 
REMARK  7 active torsions:
REMARK  status: ('A' for Active; 'I' for Inactive)
REMARK    1  A    between atoms: C_1  and  C_2
REMARK    2  A    between atoms: C_2  and  O_3
REMARK    3  A    between atoms: O_3  and  C_4
REMARK    4  A    between atoms: C_4  and  C_6
REMARK    5  A    between atoms: C_9  and  N_10
REMARK    6  A    between atoms: C_13  and  C_14
REMARK    7  A    between atoms: C_15  and  C_16
REMARK                            x       y       z     vdW  Elec       q    Type
REMARK                         _______ _______ _______ _____ _____    ______ ____
ROOT
ATOM      1  N   UNL     1       1.065  10.342  19.223  0.00  0.00    +0.000 N 
ATOM      2  C   UNL     1       1.812  11.349  18.631  0.00  0.00    +0.000 A 
ATOM      3  C   UNL     1       1.386  12.615  18.583  0.00  0.00    +0.000 A 
ATOM      4  C   UNL     1       0.098  12.979  19.128  0.00  0.00    +0.000 A 
ATOM      5  C   UNL     1      -0.297  14.427  18.988  0.00  0.00    +0.000 C 
ATOM      6  C   UNL     1      -0.668  12.032  19.714  0.00  0.00    +0.000 A 
ATOM      7  C   UNL     1      -0.195  10.606  19.788  0.00  0.00    +0.000 A 
ATOM      8  O   UNL     1      -0.941   9.759  20.284  0.00  0.00    +0.000 OA
ENDROOT
BRANCH   6   9
ATOM      9  C   UNL     1      -1.988  12.358  20.267  0.00  0.00    +0.000 A 
ATOM     10  C   UNL     1      -3.107  12.424  19.435  0.00  0.00    +0.000 A 
ATOM     11  C   UNL     1      -4.382  12.536  19.995  0.00  0.00    +0.000 A 
ATOM     12  C   UNL     1      -4.562  12.576  21.372  0.00  0.00    +0.000 A 
ATOM     13  N   UNL     1      -5.787  12.448  21.892  0.00  0.00    +0.000 NA
ATOM     14  C   UNL     1      -5.887  12.458  23.225  0.00  0.00    +0.000 A 
ATOM     15  N   UNL     1      -7.017  11.889  23.788  0.00  0.00    +0.000 N 
ATOM     16  N   UNL     1      -4.893  12.710  24.076  0.00  0.00    +0.000 NA
ATOM     17  C   UNL     1      -3.671  12.820  23.533  0.00  0.00    +0.000 A 
ATOM     18  C   UNL     1      -3.428  12.670  22.180  0.00  0.00    +0.000 A 
ATOM     19  C   UNL     1      -2.140  12.551  21.640  0.00  0.00    +0.000 A 
ATOM     20  H   UNL     1      -7.177  11.032  23.268  0.00  0.00    +0.000 HD
ATOM     21  H   UNL     1      -6.783  11.727  24.760  0.00  0.00    +0.000 HD
ENDBRANCH   6   9
BRANCH   1  25
ATOM     22  C   UNL     1       2.521   6.379  19.298  0.00  0.00    +0.000 A 
ATOM     23  C   UNL     1       2.003   6.958  20.464  0.00  0.00    +0.000 A 
ATOM     24  C   UNL     1       1.507   8.258  20.429  0.00  0.00    +0.000 A 
ATOM     25  C   UNL     1       1.554   9.002  19.243  0.00  0.00    +0.000 A 
ATOM     26  C   UNL     1       2.083   8.417  18.086  0.00  0.00    +0.000 A 
ATOM     27  C   UNL     1       2.551   7.105  18.105  0.00  0.00    +0.000 A 
BRANCH  22  28
ATOM     28  C   UNL     1       3.092   5.014  19.401  0.00  0.00    +0.000 C 
ATOM     29  O   UNL     1       2.546   4.115  20.014  0.00  0.00    +0.000 OA
BRANCH  28  30
ATOM     30  O   UNL     1       4.310   4.950  18.807  0.00  0.00    +0.000 OA
BRANCH  30  32
ATOM     31  C   UNL     1       4.742   4.313  16.539  0.00  0.00    +0.000 C 
ATOM     32  C   UNL     1       4.507   3.815  17.953  0.00  0.00    +0.000 C 
ENDBRANCH  30  32
ENDBRANCH  28  30
ENDBRANCH  22  28
ENDBRANCH   1  25
TORSDOF 5
ENDMDL
MODEL 9
REMARK VINA RESULT:      -7.7      0.749      1.102
REMARK  Name = 
REMARK  7 active torsions:
REMARK  status: ('A' for Active; 'I' for Inactive)
REMARK    1  A    between atoms: C_1  and  C_2
REMARK    2  A    between atoms: C_2  and  O_3
REMARK    3  A    between atoms: O_3  and  C_4
REMARK    4  A    between atoms: C_4  and  C_6
REMARK    5  A    between atoms: C_9  and  N_10
REMARK    6  A    between atoms: C_13  and  C_14
REMARK    7  A    between atoms: C_15  and  C_16
REMARK                            x       y       z     vdW  Elec       q    Type
REMARK                         _______ _______ _______ _____ _____    ______ ____
ROOT
ATOM      1  N   UNL     1       2.885   6.942  18.575  0.00  0.00    +0.000 N 
ATOM      2  C   UNL     1       2.678   6.395  19.832  0.00  0.00    +0.000 A 
ATOM      3  C   UNL     1       1.908   6.990  20.747  0.00  0.00    +0.000 A 
ATOM      4  C   UNL     1       1.278   8.261  20.467  0.00  0.00    +0.000 A 
ATOM      5  C   UNL     1       0.460   8.858  21.583  0.00  0.00    +0.000 C 
ATOM      6  C   UNL     1       1.451   8.835  19.256  0.00  0.00    +0.000 A 
ATOM      7  C   UNL     1       2.304   8.169  18.210  0.00  0.00    +0.000 A 
ATOM      8  O   UNL     1       2.481   8.745  17.135  0.00  0.00    +0.000 OA
ENDROOT
BRANCH   6   9
ATOM      9  C   UNL     1       0.840  10.131  18.936  0.00  0.00    +0.000 A 
ATOM     10  C   UNL     1      -0.468  10.197  18.454  0.00  0.00    +0.000 A 
ATOM     11  C   UNL     1      -1.104  11.436  18.344  0.00  0.00    +0.000 A 
ATOM     12  C   UNL     1      -0.460  12.611  18.712  0.00  0.00    +0.000 A 
ATOM     13  N   UNL     1      -1.153  13.749  18.820  0.00  0.00    +0.000 NA
ATOM     14  C   UNL     1      -0.481  14.836  19.215  0.00  0.00    +0.000 A 
ATOM     15  N   UNL     1      -1.211  15.876  19.765  0.00  0.00    +0.000 N 
ATOM     16  N   UNL     1       0.838  14.913  19.385  0.00  0.00    +0.000 NA
ATOM     17  C   UNL     1       1.510  13.756  19.286  0.00  0.00    +0.000 A 
ATOM     18  C   UNL     1       0.895  12.543  19.037  0.00  0.00    +0.000 A 
ATOM     19  C   UNL     1       1.551  11.310  19.163  0.00  0.00    +0.000 A 
ATOM     20  H   UNL     1      -1.884  15.438  20.384  0.00  0.00    +0.000 HD
ATOM     21  H   UNL     1      -0.535  16.451  20.254  0.00  0.00    +0.000 HD
ENDBRANCH   6   9
BRANCH   1  25
ATOM     22  C   UNL     1       5.361   4.987  15.768  0.00  0.00    +0.000 A 
ATOM     23  C   UNL     1       5.468   6.371  15.953  0.00  0.00    +0.000 A 
ATOM     24  C   UNL     1       4.663   7.008  16.893  0.00  0.00    +0.000 A 
ATOM     25  C   UNL     1       3.723   6.278  17.631  0.00  0.00    +0.000 A 
ATOM     26  C   UNL     1       3.617   4.896  17.431  0.00  0.00    +0.000 A 
ATOM     27  C   UNL     1       4.442   4.247  16.516  0.00  0.00    +0.000 A 
BRANCH  22  28
ATOM     28  C   UNL     1       6.197   4.365  14.713  0.00  0.00    +0.000 C 
ATOM     29  O   UNL     1       6.037   3.219  14.335  0.00  0.00    +0.000 OA
BRANCH  28  30
ATOM     30  O   UNL     1       7.185   5.206  14.315  0.00  0.00    +0.000 OA
BRANCH  30  32
ATOM     31  C   UNL     1       8.549   6.127  12.575  0.00  0.00    +0.000 C 
ATOM     32  C   UNL     1       7.728   4.929  13.017  0.00  0.00    +0.000 C 
ENDBRANCH  30  32
ENDBRANCH  28  30
ENDBRANCH  22  28
ENDBRANCH   1  25
TORSDOF 5
ENDMDL
