MODEL 1
REMARK VINA RESULT:      -8.8      0.000      0.000
REMARK  Name = 
REMARK  5 active torsions:
REMARK  status: ('A' for Active; 'I' for Inactive)
REMARK    1  A    between atoms: C_2  and  O_3
REMARK    2  A    between atoms: C_2  and  C_4
REMARK    3  A    between atoms: C_8  and  S_9
REMARK    4  A    between atoms: S_9  and  N_12
REMARK    5  A    between atoms: C_17  and  N_18
REMARK                            x       y       z     vdW  Elec       q    Type
REMARK                         _______ _______ _______ _____ _____    ______ ____
ROOT
ATOM      1  S   UNL     1       7.147   5.271  16.072  0.00  0.00    +0.000 S 
ATOM      2  O   UNL     1       7.709   4.093  16.704  0.00  0.00    +0.000 OA
ATOM      3  O   UNL     1       7.747   6.576  16.248  0.00  0.00    +0.000 OA
ENDROOT
BRANCH   1   4
ATOM      4  N   UNL     1       5.541   5.374  16.544  0.00  0.00    +0.000 NA
ATOM      5  C   UNL     1       4.958   6.532  17.292  0.00  0.00    +0.000 C 
ATOM      6  C   UNL     1       3.358   6.413  17.390  0.00  0.00    +0.000 C 
ATOM      7  C   UNL     1       2.937   5.018  17.846  0.00  0.00    +0.000 A 
ATOM      8  C   UNL     1       1.777   4.594  18.459  0.00  0.00    +0.000 A 
ATOM      9  C   UNL     1       1.967   3.856  19.632  0.00  0.00    +0.000 A 
ATOM     10  C   UNL     1       3.237   3.791  20.210  0.00  0.00    +0.000 A 
ATOM     11  C   UNL     1       4.314   3.916  19.347  0.00  0.00    +0.000 A 
ATOM     12  C   UNL     1       4.027   4.203  18.029  0.00  0.00    +0.000 A 
ATOM     13  C   UNL     1       4.872   4.109  16.804  0.00  0.00    +0.000 C 
BRANCH   9  14
ATOM     14  N   UNL     1       0.971   2.892  20.094  0.00  0.00    +0.000 N 
ATOM     15  O   UNL     1       0.234   2.383  19.238  0.00  0.00    +0.000 OA
ATOM     16  O   UNL     1       1.001   2.567  21.290  0.00  0.00    +0.000 OA
ENDBRANCH   9  14
ENDBRANCH   1   4
BRANCH   1  21
ATOM     17  C   UNL     1       6.301   3.753  12.398  0.00  0.00    +0.000 A 
ATOM     18  C   UNL     1       7.120   4.494  11.547  0.00  0.00    +0.000 A 
ATOM     19  C   UNL     1       7.997   5.432  12.075  0.00  0.00    +0.000 A 
ATOM     20  C   UNL     1       8.033   5.640  13.453  0.00  0.00    +0.000 A 
ATOM     21  C   UNL     1       7.136   4.976  14.302  0.00  0.00    +0.000 A 
ATOM     22  C   UNL     1       6.283   4.004  13.773  0.00  0.00    +0.000 A 
BRANCH  17  24
ATOM     23  O   UNL     1       4.273   2.912  11.485  0.00  0.00    +0.000 OA
ATOM     24  C   UNL     1       5.403   2.683  11.843  0.00  0.00    +0.000 C 
BRANCH  24  25
ATOM     25  O   UNL     1       5.967   1.471  11.824  0.00  0.00    +0.000 OA
ATOM     26  H   UNL     1       5.617   0.822  12.449  0.00  0.00    +0.000 HD
ENDBRANCH  24  25
ENDBRANCH  17  24
ENDBRANCH   1  21
TORSDOF 5
ENDMDL
MODEL 2
REMARK VINA RESULT:      -8.2      3.529      8.181
REMARK  Name = 
REMARK  5 active torsions:
REMARK  status: ('A' for Active; 'I' for Inactive)
REMARK    1  A    between atoms: C_2  and  O_3
REMARK    2  A    between atoms: C_2  and  C_4
REMARK    3  A    between atoms: C_8  and  S_9
REMARK    4  A    between atoms: S_9  and  N_12
REMARK    5  A    between atoms: C_17  and  N_18
REMARK                            x       y       z     vdW  Elec       q    Type
REMARK                         _______ _______ _______ _____ _____    ______ ____
ROOT
ATOM      1  S   UNL     1       2.392   4.826  19.830  0.00  0.00    +0.000 S 
ATOM      2  O   UNL     1       2.539   4.550  21.246  0.00  0.00    +0.000 OA
ATOM      3  O   UNL     1       1.400   4.140  19.030  0.00  0.00    +0.000 OA
ENDROOT
BRANCH   1   4
ATOM      4  N   UNL     1       3.890   4.582  19.114  0.00  0.00    +0.000 NA
ATOM      5  C   UNL     1       5.128   5.338  19.479  0.00  0.00    +0.000 C 
ATOM      6  C   UNL     1       6.424   4.708  18.765  0.00  0.00    +0.000 C 
ATOM      7  C   UNL     1       6.173   4.475  17.277  0.00  0.00    +0.000 A 
ATOM      8  C   UNL     1       7.065   4.371  16.230  0.00  0.00    +0.000 A 
ATOM      9  C   UNL     1       6.799   5.212  15.145  0.00  0.00    +0.000 A 
ATOM     10  C   UNL     1       5.838   6.218  15.270  0.00  0.00    +0.000 A 
ATOM     11  C   UNL     1       4.809   5.980  16.167  0.00  0.00    +0.000 A 
ATOM     12  C   UNL     1       4.896   4.831  16.925  0.00  0.00    +0.000 A 
ATOM     13  C   UNL     1       3.867   4.118  17.735  0.00  0.00    +0.000 C 
BRANCH   9  14
ATOM     14  N   UNL     1       7.247   4.878  13.795  0.00  0.00    +0.000 N 
ATOM     15  O   UNL     1       6.601   4.018  13.180  0.00  0.00    +0.000 OA
ATOM     16  O   UNL     1       8.171   5.551  13.316  0.00  0.00    +0.000 OA
ENDBRANCH   9  14
ENDBRANCH   1   4
BRANCH   1  21
ATOM     17  C   UNL     1       1.165   8.625  20.594  0.00  0.00    +0.000 A 
ATOM     18  C   UNL     1       1.439   9.297  19.404  0.00  0.00    +0.000 A 
ATOM     19  C   UNL     1       1.946   8.599  18.316  0.00  0.00    +0.000 A 
ATOM     20  C   UNL     1       2.199   7.232  18.433  0.00  0.00    +0.000 A 
ATOM     21  C   UNL     1       2.028   6.575  19.659  0.00  0.00    +0.000 A 
ATOM     22  C   UNL     1       1.480   7.270  20.740  0.00  0.00    +0.000 A 
BRANCH  17  24
ATOM     23  O   UNL     1       1.028  10.364  22.208  0.00  0.00    +0.000 OA
ATOM     24  C   UNL     1       0.547   9.355  21.752  0.00  0.00    +0.000 C 
BRANCH  24  25
ATOM     25  O   UNL     1      -0.549   8.760  22.234  0.00  0.00    +0.000 OA
ATOM     26  H   UNL     1      -0.633   8.723  23.196  0.00  0.00    +0.000 HD
ENDBRANCH  24  25
ENDBRANCH  17  24
ENDBRANCH   1  21
TORSDOF 5
ENDMDL
MODEL 3
REMARK VINA RESULT:      -8.2      1.307      1.535
REMARK  Name = 
REMARK  5 active torsions:
REMARK  status: ('A' for Active; 'I' for Inactive)
REMARK    1  A    between atoms: C_2  and  O_3
REMARK    2  A    between atoms: C_2  and  C_4
REMARK    3  A    between atoms: C_8  and  S_9
REMARK    4  A    between atoms: S_9  and  N_12
REMARK    5  A    between atoms: C_17  and  N_18
REMARK                            x       y       z     vdW  Elec       q    Type
REMARK                         _______ _______ _______ _____ _____    ______ ____
ROOT
ATOM      1  S   UNL     1       6.808   5.181  16.160  0.00  0.00    +0.000 S 
ATOM      2  O   UNL     1       8.016   4.662  16.773  0.00  0.00    +0.000 OA
ATOM      3  O   UNL     1       6.437   6.574  16.296  0.00  0.00    +0.000 OA
ENDROOT
BRANCH   1   4
ATOM      4  N   UNL     1       5.527   4.251  16.713  0.00  0.00    +0.000 NA
ATOM      5  C   UNL     1       4.106   4.433  16.278  0.00  0.00    +0.000 C 
ATOM      6  C   UNL     1       3.175   3.242  16.825  0.00  0.00    +0.000 C 
ATOM      7  C   UNL     1       3.412   2.997  18.313  0.00  0.00    +0.000 A 
ATOM      8  C   UNL     1       2.594   2.420  19.261  0.00  0.00    +0.000 A 
ATOM      9  C   UNL     1       2.401   3.186  20.416  0.00  0.00    +0.000 A 
ATOM     10  C   UNL     1       2.833   4.514  20.445  0.00  0.00    +0.000 A 
ATOM     11  C   UNL     1       3.914   4.828  19.638  0.00  0.00    +0.000 A 
ATOM     12  C   UNL     1       4.383   3.832  18.807  0.00  0.00    +0.000 A 
ATOM     13  C   UNL     1       5.666   3.711  18.057  0.00  0.00    +0.000 C 
BRANCH   9  14
ATOM     14  N   UNL     1       2.063   2.564  21.694  0.00  0.00    +0.000 N 
ATOM     15  O   UNL     1       2.974   1.982  22.300  0.00  0.00    +0.000 OA
ATOM     16  O   UNL     1       0.922   2.752  22.138  0.00  0.00    +0.000 OA
ENDBRANCH   9  14
ENDBRANCH   1   4
BRANCH   1  21
ATOM     17  C   UNL     1       6.209   3.676  12.433  0.00  0.00    +0.000 A 
ATOM     18  C   UNL     1       7.116   4.388  11.649  0.00  0.00    +0.000 A 
ATOM     19  C   UNL     1       7.977   5.300  12.244  0.00  0.00    +0.000 A 
ATOM     20  C   UNL     1       7.910   5.512  13.620  0.00  0.00    +0.000 A 
ATOM     21  C   UNL     1       6.928   4.880  14.396  0.00  0.00    +0.000 A 
ATOM     22  C   UNL     1       6.090   3.934  13.802  0.00  0.00    +0.000 A 
BRANCH  17  24
ATOM     23  O   UNL     1       4.203   2.879  11.437  0.00  0.00    +0.000 OA
ATOM     24  C   UNL     1       5.324   2.633  11.810  0.00  0.00    +0.000 C 
BRANCH  24  25
ATOM     25  O   UNL     1       5.889   1.423  11.749  0.00  0.00    +0.000 OA
ATOM     26  H   UNL     1       6.729   1.362  11.275  0.00  0.00    +0.000 HD
ENDBRANCH  24  25
ENDBRANCH  17  24
ENDBRANCH   1  21
TORSDOF 5
ENDMDL
MODEL 4
REMARK VINA RESULT:      -8.1      3.707      5.622
REMARK  Name = 
REMARK  5 active torsions:
REMARK  status: ('A' for Active; 'I' for Inactive)
REMARK    1  A    between atoms: C_2  and  O_3
REMARK    2  A    between atoms: C_2  and  C_4
REMARK    3  A    between atoms: C_8  and  S_9
REMARK    4  A    between atoms: S_9  and  N_12
REMARK    5  A    between atoms: C_17  and  N_18
REMARK                            x       y       z     vdW  Elec       q    Type
REMARK                         _______ _______ _______ _____ _____    ______ ____
ROOT
ATOM      1  S   UNL     1       4.222   3.233  18.783  0.00  0.00    +0.000 S 
ATOM      2  O   UNL     1       3.422   2.318  17.991  0.00  0.00    +0.000 OA
ATOM      3  O   UNL     1       5.182   2.746  19.750  0.00  0.00    +0.000 OA
ENDROOT
BRANCH   1   4
ATOM      4  N   UNL     1       3.164   4.262  19.580  0.00  0.00    +0.000 NA
ATOM      5  C   UNL     1       1.675   4.209  19.441  0.00  0.00    +0.000 C 
ATOM      6  C   UNL     1       0.958   5.179  20.504  0.00  0.00    +0.000 C 
ATOM      7  C   UNL     1       1.600   6.565  20.504  0.00  0.00    +0.000 A 
ATOM      8  C   UNL     1       1.087   7.783  20.896  0.00  0.00    +0.000 A 
ATOM      9  C   UNL     1       1.199   8.802  19.946  0.00  0.00    +0.000 A 
ATOM     10  C   UNL     1       1.589   8.492  18.641  0.00  0.00    +0.000 A 
ATOM     11  C   UNL     1       2.401   7.379  18.489  0.00  0.00    +0.000 A 
ATOM     12  C   UNL     1       2.648   6.628  19.620  0.00  0.00    +0.000 A 
ATOM     13  C   UNL     1       3.679   5.587  19.892  0.00  0.00    +0.000 C 
BRANCH   9  14
ATOM     14  N   UNL     1       1.238  10.209  20.339  0.00  0.00    +0.000 N 
ATOM     15  O   UNL     1       1.259  10.458  21.553  0.00  0.00    +0.000 OA
ATOM     16  O   UNL     1       1.359  11.052  19.439  0.00  0.00    +0.000 OA
ENDBRANCH   9  14
ENDBRANCH   1   4
BRANCH   1  21
ATOM     17  C   UNL     1       6.746   6.028  17.253  0.00  0.00    +0.000 A 
ATOM     18  C   UNL     1       6.611   5.864  15.876  0.00  0.00    +0.000 A 
ATOM     19  C   UNL     1       5.702   4.941  15.375  0.00  0.00    +0.000 A 
ATOM     20  C   UNL     1       4.948   4.170  16.258  0.00  0.00    +0.000 A 
ATOM     21  C   UNL     1       5.158   4.254  17.642  0.00  0.00    +0.000 A 
ATOM     22  C   UNL     1       6.043   5.210  18.144  0.00  0.00    +0.000 A 
BRANCH  17  24
ATOM     23  O   UNL     1       7.875   8.119  17.235  0.00  0.00    +0.000 OA
ATOM     24  C   UNL     1       7.672   7.075  17.805  0.00  0.00    +0.000 C 
BRANCH  24  25
ATOM     25  O   UNL     1       8.260   6.716  18.951  0.00  0.00    +0.000 OA
ATOM     26  H   UNL     1       7.721   6.778  19.751  0.00  0.00    +0.000 HD
ENDBRANCH  24  25
ENDBRANCH  17  24
ENDBRANCH   1  21
TORSDOF 5
ENDMDL
MODEL 5
REMARK VINA RESULT:      -7.9      3.758      5.050
REMARK  Name = 
REMARK  5 active torsions:
REMARK  status: ('A' for Active; 'I' for Inactive)
REMARK    1  A    between atoms: C_2  and  O_3
REMARK    2  A    between atoms: C_2  and  C_4
REMARK    3  A    between atoms: C_8  and  S_9
REMARK    4  A    between atoms: S_9  and  N_12
REMARK    5  A    between atoms: C_17  and  N_18
REMARK                            x       y       z     vdW  Elec       q    Type
REMARK                         _______ _______ _______ _____ _____    ______ ____
ROOT
ATOM      1  S   UNL     1       4.341   3.267  18.856  0.00  0.00    +0.000 S 
ATOM      2  O   UNL     1       3.620   2.543  17.826  0.00  0.00    +0.000 OA
ATOM      3  O   UNL     1       5.084   2.570  19.883  0.00  0.00    +0.000 OA
ENDROOT
BRANCH   1   4
ATOM      4  N   UNL     1       3.244   4.284  19.615  0.00  0.00    +0.000 NA
ATOM      5  C   UNL     1       1.761   4.211  19.426  0.00  0.00    +0.000 C 
ATOM      6  C   UNL     1       0.996   5.174  20.461  0.00  0.00    +0.000 C 
ATOM      7  C   UNL     1       1.619   6.568  20.480  0.00  0.00    +0.000 A 
ATOM      8  C   UNL     1       1.078   7.780  20.852  0.00  0.00    +0.000 A 
ATOM      9  C   UNL     1       1.208   8.799  19.903  0.00  0.00    +0.000 A 
ATOM     10  C   UNL     1       1.646   8.491  18.613  0.00  0.00    +0.000 A 
ATOM     11  C   UNL     1       2.477   7.388  18.492  0.00  0.00    +0.000 A 
ATOM     12  C   UNL     1       2.696   6.643  19.632  0.00  0.00    +0.000 A 
ATOM     13  C   UNL     1       3.731   5.616  19.940  0.00  0.00    +0.000 C 
BRANCH   9  14
ATOM     14  N   UNL     1       1.217  10.206  20.295  0.00  0.00    +0.000 N 
ATOM     15  O   UNL     1       1.224  10.458  21.508  0.00  0.00    +0.000 OA
ATOM     16  O   UNL     1       1.326  11.050  19.394  0.00  0.00    +0.000 OA
ENDBRANCH   9  14
ENDBRANCH   1   4
BRANCH   1  21
ATOM     17  C   UNL     1       6.642   5.039  16.013  0.00  0.00    +0.000 A 
ATOM     18  C   UNL     1       7.391   5.966  16.736  0.00  0.00    +0.000 A 
ATOM     19  C   UNL     1       7.261   6.033  18.117  0.00  0.00    +0.000 A 
ATOM     20  C   UNL     1       6.363   5.186  18.765  0.00  0.00    +0.000 A 
ATOM     21  C   UNL     1       5.530   4.329  18.032  0.00  0.00    +0.000 A 
ATOM     22  C   UNL     1       5.690   4.235  16.648  0.00  0.00    +0.000 A 
BRANCH  17  24
ATOM     23  O   UNL     1       7.729   5.456  13.940  0.00  0.00    +0.000 OA
ATOM     24  C   UNL     1       6.829   4.907  14.528  0.00  0.00    +0.000 C 
BRANCH  24  25
ATOM     25  O   UNL     1       5.889   4.162  13.936  0.00  0.00    +0.000 OA
ATOM     26  H   UNL     1       5.423   3.529  14.499  0.00  0.00    +0.000 HD
ENDBRANCH  24  25
ENDBRANCH  17  24
ENDBRANCH   1  21
TORSDOF 5
ENDMDL
MODEL 6
REMARK VINA RESULT:      -7.8      3.298      7.658
REMARK  Name = 
REMARK  5 active torsions:
REMARK  status: ('A' for Active; 'I' for Inactive)
REMARK    1  A    between atoms: C_2  and  O_3
REMARK    2  A    between atoms: C_2  and  C_4
REMARK    3  A    between atoms: C_8  and  S_9
REMARK    4  A    between atoms: S_9  and  N_12
REMARK    5  A    between atoms: C_17  and  N_18
REMARK                            x       y       z     vdW  Elec       q    Type
REMARK                         _______ _______ _______ _____ _____    ______ ____
ROOT
ATOM      1  S   UNL     1       2.276   4.458  20.004  0.00  0.00    +0.000 S 
ATOM      2  O   UNL     1       2.410   3.990  21.371  0.00  0.00    +0.000 OA
ATOM      3  O   UNL     1       1.324   3.858  19.095  0.00  0.00    +0.000 OA
ENDROOT
BRANCH   1   4
ATOM      4  N   UNL     1       3.793   4.371  19.294  0.00  0.00    +0.000 NA
ATOM      5  C   UNL     1       4.934   5.276  19.635  0.00  0.00    +0.000 C 
ATOM      6  C   UNL     1       6.296   4.782  18.938  0.00  0.00    +0.000 C 
ATOM      7  C   UNL     1       6.077   4.478  17.458  0.00  0.00    +0.000 A 
ATOM      8  C   UNL     1       6.977   4.449  16.414  0.00  0.00    +0.000 A 
ATOM      9  C   UNL     1       6.617   5.221  15.305  0.00  0.00    +0.000 A 
ATOM     10  C   UNL     1       5.545   6.112  15.402  0.00  0.00    +0.000 A 
ATOM     11  C   UNL     1       4.549   5.781  16.307  0.00  0.00    +0.000 A 
ATOM     12  C   UNL     1       4.768   4.672  17.097  0.00  0.00    +0.000 A 
ATOM     13  C   UNL     1       3.828   3.868  17.929  0.00  0.00    +0.000 C 
BRANCH   9  14
ATOM     14  N   UNL     1       7.104   4.904  13.965  0.00  0.00    +0.000 N 
ATOM     15  O   UNL     1       8.075   5.549  13.547  0.00  0.00    +0.000 OA
ATOM     16  O   UNL     1       6.587   3.941  13.381  0.00  0.00    +0.000 OA
ENDBRANCH   9  14
ENDBRANCH   1   4
BRANCH   1  21
ATOM     17  C   UNL     1       1.810   8.379  19.039  0.00  0.00    +0.000 A 
ATOM     18  C   UNL     1       1.205   8.920  20.172  0.00  0.00    +0.000 A 
ATOM     19  C   UNL     1       0.980   8.120  21.284  0.00  0.00    +0.000 A 
ATOM     20  C   UNL     1       1.341   6.773  21.248  0.00  0.00    +0.000 A 
ATOM     21  C   UNL     1       1.849   6.200  20.074  0.00  0.00    +0.000 A 
ATOM     22  C   UNL     1       2.112   7.015  18.970  0.00  0.00    +0.000 A 
BRANCH  17  24
ATOM     23  O   UNL     1       2.832   8.883  16.953  0.00  0.00    +0.000 OA
ATOM     24  C   UNL     1       2.125   9.253  17.858  0.00  0.00    +0.000 C 
BRANCH  24  25
ATOM     25  O   UNL     1       1.577  10.470  17.935  0.00  0.00    +0.000 OA
ATOM     26  H   UNL     1       0.700  10.525  18.338  0.00  0.00    +0.000 HD
ENDBRANCH  24  25
ENDBRANCH  17  24
ENDBRANCH   1  21
TORSDOF 5
ENDMDL
MODEL 7
REMARK VINA RESULT:      -7.5      3.630      4.877
REMARK  Name = 
REMARK  5 active torsions:
REMARK  status: ('A' for Active; 'I' for Inactive)
REMARK    1  A    between atoms: C_2  and  O_3
REMARK    2  A    between atoms: C_2  and  C_4
REMARK    3  A    between atoms: C_8  and  S_9
REMARK    4  A    between atoms: S_9  and  N_12
REMARK    5  A    between atoms: C_17  and  N_18
REMARK                            x       y       z     vdW  Elec       q    Type
REMARK                         _______ _______ _______ _____ _____    ______ ____
ROOT
ATOM      1  S   UNL     1       4.241   3.267  18.950  0.00  0.00    +0.000 S 
ATOM      2  O   UNL     1       3.317   2.418  18.222  0.00  0.00    +0.000 OA
ATOM      3  O   UNL     1       5.097   2.729  19.985  0.00  0.00    +0.000 OA
ENDROOT
BRANCH   1   4
ATOM      4  N   UNL     1       3.349   4.520  19.618  0.00  0.00    +0.000 NA
ATOM      5  C   UNL     1       1.860   4.503  19.772  0.00  0.00    +0.000 C 
ATOM      6  C   UNL     1       1.353   5.754  20.645  0.00  0.00    +0.000 C 
ATOM      7  C   UNL     1       1.979   7.057  20.154  0.00  0.00    +0.000 A 
ATOM      8  C   UNL     1       1.545   8.359  20.289  0.00  0.00    +0.000 A 
ATOM      9  C   UNL     1       1.473   9.083  19.095  0.00  0.00    +0.000 A 
ATOM     10  C   UNL     1       1.612   8.418  17.874  0.00  0.00    +0.000 A 
ATOM     11  C   UNL     1       2.384   7.268  17.884  0.00  0.00    +0.000 A 
ATOM     12  C   UNL     1       2.842   6.834  19.110  0.00  0.00    +0.000 A 
ATOM     13  C   UNL     1       3.909   5.854  19.461  0.00  0.00    +0.000 C 
BRANCH   9  14
ATOM     14  N   UNL     1       1.581  10.540  19.079  0.00  0.00    +0.000 N 
ATOM     15  O   UNL     1       2.167  11.055  18.117  0.00  0.00    +0.000 OA
ATOM     16  O   UNL     1       0.989  11.168  19.969  0.00  0.00    +0.000 OA
ENDBRANCH   9  14
ENDBRANCH   1   4
BRANCH   1  21
ATOM     17  C   UNL     1       6.036   4.312  15.456  0.00  0.00    +0.000 A 
ATOM     18  C   UNL     1       7.065   5.159  15.864  0.00  0.00    +0.000 A 
ATOM     19  C   UNL     1       7.279   5.386  17.217  0.00  0.00    +0.000 A 
ATOM     20  C   UNL     1       6.445   4.780  18.156  0.00  0.00    +0.000 A 
ATOM     21  C   UNL     1       5.344   4.015  17.748  0.00  0.00    +0.000 A 
ATOM     22  C   UNL     1       5.155   3.755  16.389  0.00  0.00    +0.000 A 
BRANCH  17  24
ATOM     23  O   UNL     1       4.800   4.209  13.428  0.00  0.00    +0.000 OA
ATOM     24  C   UNL     1       5.843   4.001  13.999  0.00  0.00    +0.000 C 
BRANCH  24  25
ATOM     25  O   UNL     1       6.916   3.447  13.426  0.00  0.00    +0.000 OA
ATOM     26  H   UNL     1       6.798   2.565  13.048  0.00  0.00    +0.000 HD
ENDBRANCH  24  25
ENDBRANCH  17  24
ENDBRANCH   1  21
TORSDOF 5
ENDMDL
MODEL 8
REMARK VINA RESULT:      -7.4      5.604      8.512
REMARK  Name = 
REMARK  5 active torsions:
REMARK  status: ('A' for Active; 'I' for Inactive)
REMARK    1  A    between atoms: C_2  and  O_3
REMARK    2  A    between atoms: C_2  and  C_4
REMARK    3  A    between atoms: C_8  and  S_9
REMARK    4  A    between atoms: S_9  and  N_12
REMARK    5  A    between atoms: C_17  and  N_18
REMARK                            x       y       z     vdW  Elec       q    Type
REMARK                         _______ _______ _______ _____ _____    ______ ____
ROOT
ATOM      1  S   UNL     1       0.619   9.173  21.105  0.00  0.00    +0.000 S 
ATOM      2  O   UNL     1       1.333   9.737  22.235  0.00  0.00    +0.000 OA
ATOM      3  O   UNL     1      -0.589   8.398  21.293  0.00  0.00    +0.000 OA
ENDROOT
BRANCH   1   4
ATOM      4  N   UNL     1       1.707   8.231  20.245  0.00  0.00    +0.000 NA
ATOM      5  C   UNL     1       1.715   8.106  18.753  0.00  0.00    +0.000 C 
ATOM      6  C   UNL     1       3.015   7.309  18.245  0.00  0.00    +0.000 C 
ATOM      7  C   UNL     1       3.221   6.025  19.044  0.00  0.00    +0.000 A 
ATOM      8  C   UNL     1       3.896   4.869  18.712  0.00  0.00    +0.000 A 
ATOM      9  C   UNL     1       3.158   3.691  18.866  0.00  0.00    +0.000 A 
ATOM     10  C   UNL     1       1.785   3.763  19.111  0.00  0.00    +0.000 A 
ATOM     11  C   UNL     1       1.334   4.896  19.770  0.00  0.00    +0.000 A 
ATOM     12  C   UNL     1       2.264   5.884  20.017  0.00  0.00    +0.000 A 
ATOM     13  C   UNL     1       2.218   7.057  20.936  0.00  0.00    +0.000 C 
BRANCH   9  14
ATOM     14  N   UNL     1       3.814   2.408  19.104  0.00  0.00    +0.000 N 
ATOM     15  O   UNL     1       3.465   1.453  18.397  0.00  0.00    +0.000 OA
ATOM     16  O   UNL     1       4.748   2.384  19.918  0.00  0.00    +0.000 OA
ENDBRANCH   9  14
ENDBRANCH   1   4
BRANCH   1  21
ATOM     17  C   UNL     1      -1.312  11.462  18.357  0.00  0.00    +0.000 A 
ATOM     18  C   UNL     1      -0.558  12.633  18.327  0.00  0.00    +0.000 A 
ATOM     19  C   UNL     1       0.594  12.734  19.096  0.00  0.00    +0.000 A 
ATOM     20  C   UNL     1       0.973  11.667  19.910  0.00  0.00    +0.000 A 
ATOM     21  C   UNL     1       0.160  10.531  20.026  0.00  0.00    +0.000 A 
ATOM     22  C   UNL     1      -0.976  10.416  19.222  0.00  0.00    +0.000 A 
BRANCH  17  24
ATOM     23  O   UNL     1      -3.591  10.961  17.901  0.00  0.00    +0.000 OA
ATOM     24  C   UNL     1      -2.519  11.314  17.474  0.00  0.00    +0.000 C 
BRANCH  24  25
ATOM     25  O   UNL     1      -2.272  11.577  16.186  0.00  0.00    +0.000 OA
ATOM     26  H   UNL     1      -3.041  11.668  15.608  0.00  0.00    +0.000 HD
ENDBRANCH  24  25
ENDBRANCH  17  24
ENDBRANCH   1  21
TORSDOF 5
ENDMDL
MODEL 9
REMARK VINA RESULT:      -7.4      3.725      5.774
REMARK  Name = 
REMARK  5 active torsions:
REMARK  status: ('A' for Active; 'I' for Inactive)
REMARK    1  A    between atoms: C_2  and  O_3
REMARK    2  A    between atoms: C_2  and  C_4
REMARK    3  A    between atoms: C_8  and  S_9
REMARK    4  A    between atoms: S_9  and  N_12
REMARK    5  A    between atoms: C_17  and  N_18
REMARK                            x       y       z     vdW  Elec       q    Type
REMARK                         _______ _______ _______ _____ _____    ______ ____
ROOT
ATOM      1  S   UNL     1       3.767   3.091  18.202  0.00  0.00    +0.000 S 
ATOM      2  O   UNL     1       2.961   2.734  17.050  0.00  0.00    +0.000 OA
ATOM      3  O   UNL     1       4.439   2.080  18.990  0.00  0.00    +0.000 OA
ENDROOT
BRANCH   1   4
ATOM      4  N   UNL     1       2.795   3.987  19.235  0.00  0.00    +0.000 NA
ATOM      5  C   UNL     1       1.306   4.078  19.119  0.00  0.00    +0.000 C 
ATOM      6  C   UNL     1       0.671   4.832  20.389  0.00  0.00    +0.000 C 
ATOM      7  C   UNL     1       1.418   6.128  20.690  0.00  0.00    +0.000 A 
ATOM      8  C   UNL     1       1.002   7.260  21.360  0.00  0.00    +0.000 A 
ATOM      9  C   UNL     1       1.189   8.458  20.663  0.00  0.00    +0.000 A 
ATOM     10  C   UNL     1       1.550   8.425  19.314  0.00  0.00    +0.000 A 
ATOM     11  C   UNL     1       2.272   7.318  18.896  0.00  0.00    +0.000 A 
ATOM     12  C   UNL     1       2.464   6.314  19.822  0.00  0.00    +0.000 A 
ATOM     13  C   UNL     1       3.413   5.163  19.828  0.00  0.00    +0.000 C 
BRANCH   9  14
ATOM     14  N   UNL     1       1.340   9.731  21.365  0.00  0.00    +0.000 N 
ATOM     15  O   UNL     1       1.645   9.684  22.565  0.00  0.00    +0.000 OA
ATOM     16  O   UNL     1       1.261  10.768  20.692  0.00  0.00    +0.000 OA
ENDBRANCH   9  14
ENDBRANCH   1   4
BRANCH   1  21
ATOM     17  C   UNL     1       7.036   5.503  18.085  0.00  0.00    +0.000 A 
ATOM     18  C   UNL     1       7.066   5.940  16.762  0.00  0.00    +0.000 A 
ATOM     19  C   UNL     1       6.058   5.562  15.886  0.00  0.00    +0.000 A 
ATOM     20  C   UNL     1       5.034   4.728  16.334  0.00  0.00    +0.000 A 
ATOM     21  C   UNL     1       5.058   4.199  17.631  0.00  0.00    +0.000 A 
ATOM     22  C   UNL     1       6.050   4.613  18.523  0.00  0.00    +0.000 A 
BRANCH  17  24
ATOM     23  O   UNL     1       8.506   5.253  19.936  0.00  0.00    +0.000 OA
ATOM     24  C   UNL     1       8.081   5.966  19.061  0.00  0.00    +0.000 C 
BRANCH  24  25
ATOM     25  O   UNL     1       8.454   7.238  18.878  0.00  0.00    +0.000 OA
ATOM     26  H   UNL     1       8.282   7.847  19.609  0.00  0.00    +0.000 HD
ENDBRANCH  24  25
ENDBRANCH  17  24
ENDBRANCH   1  21
TORSDOF 5
ENDMDL
