MODEL 1
REMARK VINA RESULT:      -8.3      0.000      0.000
REMARK  Name = 
REMARK  3 active torsions:
REMARK  status: ('A' for Active; 'I' for Inactive)
REMARK    1  A    between atoms: C_5  and  C_6
REMARK    2  A    between atoms: C_9  and  C_10
REMARK    3  A    between atoms: C_10  and  N_11
REMARK                            x       y       z     vdW  Elec       q    Type
REMARK                         _______ _______ _______ _____ _____    ______ ____
ROOT
ATOM      1  C   UNL     1       3.344   6.138  18.710  0.00  0.00    +0.000 A 
ATOM      2  N   UNL     1       4.034   5.471  19.617  0.00  0.00    +0.000 NA
ATOM      3  N   UNL     1       4.633   4.415  18.967  0.00  0.00    +0.000 NA
ATOM      4  C   UNL     1       4.274   4.506  17.704  0.00  0.00    +0.000 A 
ATOM      5  O   UNL     1       3.459   5.583  17.459  0.00  0.00    +0.000 OA
ENDROOT
BRANCH   1  10
ATOM      6 BR   UNL     1      -0.159  11.153  19.427  0.00  0.00    +0.000 Br
ATOM      7  C   UNL     1       0.933   9.627  19.199  0.00  0.00    +0.000 A 
ATOM      8  C   UNL     1       1.148   8.766  20.271  0.00  0.00    +0.000 A 
ATOM      9  C   UNL     1       1.945   7.630  20.097  0.00  0.00    +0.000 A 
ATOM     10  C   UNL     1       2.537   7.343  18.854  0.00  0.00    +0.000 A 
ATOM     11  C   UNL     1       2.316   8.230  17.789  0.00  0.00    +0.000 A 
ATOM     12  C   UNL     1       1.515   9.368  17.960  0.00  0.00    +0.000 A 
ENDBRANCH   1  10
BRANCH   4  13
ATOM     13  C   UNL     1       4.702   3.677  16.561  0.00  0.00    +0.000 C 
BRANCH  13  14
ATOM     14  N   UNL     1       5.735   4.339  15.794  0.00  0.00    +0.000 N 
ATOM     15  N   UNL     1       6.599   5.166  16.418  0.00  0.00    +0.000 NA
ATOM     16  N   UNL     1       7.470   5.591  15.513  0.00  0.00    +0.000 NA
ATOM     17  C   UNL     1       7.161   5.004  14.315  0.00  0.00    +0.000 A 
ATOM     18  C   UNL     1       7.774   5.117  13.059  0.00  0.00    +0.000 A 
ATOM     19  C   UNL     1       7.246   4.383  11.990  0.00  0.00    +0.000 A 
ATOM     20  C   UNL     1       6.136   3.555  12.170  0.00  0.00    +0.000 A 
ATOM     21  C   UNL     1       5.510   3.432  13.417  0.00  0.00    +0.000 A 
ATOM     22  C   UNL     1       6.051   4.179  14.470  0.00  0.00    +0.000 A 
ENDBRANCH  13  14
ENDBRANCH   4  13
TORSDOF 3
ENDMDL
MODEL 2
REMARK VINA RESULT:      -8.3      0.069      1.031
REMARK  Name = 
REMARK  3 active torsions:
REMARK  status: ('A' for Active; 'I' for Inactive)
REMARK    1  A    between atoms: C_5  and  C_6
REMARK    2  A    between atoms: C_9  and  C_10
REMARK    3  A    between atoms: C_10  and  N_11
REMARK                            x       y       z     vdW  Elec       q    Type
REMARK                         _______ _______ _______ _____ _____    ______ ____
ROOT
ATOM      1  C   UNL     1       3.364   6.134  18.735  0.00  0.00    +0.000 A 
ATOM      2  N   UNL     1       4.076   5.476  19.632  0.00  0.00    +0.000 NA
ATOM      3  N   UNL     1       4.683   4.431  18.972  0.00  0.00    +0.000 NA
ATOM      4  C   UNL     1       4.306   4.518  17.714  0.00  0.00    +0.000 A 
ATOM      5  O   UNL     1       3.470   5.583  17.482  0.00  0.00    +0.000 OA
ENDROOT
BRANCH   1  10
ATOM      6 BR   UNL     1      -0.022  11.248  19.293  0.00  0.00    +0.000 Br
ATOM      7  C   UNL     1       0.999   9.667  19.130  0.00  0.00    +0.000 A 
ATOM      8  C   UNL     1       1.596   9.353  17.913  0.00  0.00    +0.000 A 
ATOM      9  C   UNL     1       2.363   8.189  17.797  0.00  0.00    +0.000 A 
ATOM     10  C   UNL     1       2.541   7.326  18.892  0.00  0.00    +0.000 A 
ATOM     11  C   UNL     1       1.922   7.656  20.109  0.00  0.00    +0.000 A 
ATOM     12  C   UNL     1       1.155   8.823  20.228  0.00  0.00    +0.000 A 
ENDBRANCH   1  10
BRANCH   4  13
ATOM     13  C   UNL     1       4.731   3.697  16.564  0.00  0.00    +0.000 C 
BRANCH  13  14
ATOM     14  N   UNL     1       5.761   4.366  15.799  0.00  0.00    +0.000 N 
ATOM     15  N   UNL     1       6.620   5.198  16.424  0.00  0.00    +0.000 NA
ATOM     16  N   UNL     1       7.489   5.628  15.520  0.00  0.00    +0.000 NA
ATOM     17  C   UNL     1       7.185   5.041  14.322  0.00  0.00    +0.000 A 
ATOM     18  C   UNL     1       7.798   5.159  13.067  0.00  0.00    +0.000 A 
ATOM     19  C   UNL     1       7.276   4.423  11.996  0.00  0.00    +0.000 A 
ATOM     20  C   UNL     1       6.170   3.587  12.174  0.00  0.00    +0.000 A 
ATOM     21  C   UNL     1       5.543   3.460  13.421  0.00  0.00    +0.000 A 
ATOM     22  C   UNL     1       6.080   4.210  14.474  0.00  0.00    +0.000 A 
ENDBRANCH  13  14
ENDBRANCH   4  13
TORSDOF 3
ENDMDL
MODEL 3
REMARK VINA RESULT:      -8.1      5.728      6.788
REMARK  Name = 
REMARK  3 active torsions:
REMARK  status: ('A' for Active; 'I' for Inactive)
REMARK    1  A    between atoms: C_5  and  C_6
REMARK    2  A    between atoms: C_9  and  C_10
REMARK    3  A    between atoms: C_10  and  N_11
REMARK                            x       y       z     vdW  Elec       q    Type
REMARK                         _______ _______ _______ _____ _____    ______ ____
ROOT
ATOM      1  C   UNL     1       8.506   9.415  18.255  0.00  0.00    +0.000 A 
ATOM      2  N   UNL     1       7.712   9.259  17.212  0.00  0.00    +0.000 NA
ATOM      3  N   UNL     1       7.361   7.928  17.171  0.00  0.00    +0.000 NA
ATOM      4  C   UNL     1       7.960   7.356  18.193  0.00  0.00    +0.000 A 
ATOM      5  O   UNL     1       8.703   8.239  18.937  0.00  0.00    +0.000 OA
ENDROOT
BRANCH   1  10
ATOM      6 BR   UNL     1      11.259  14.546  20.260  0.00  0.00    +0.000 Br
ATOM      7  C   UNL     1      10.403  12.970  19.664  0.00  0.00    +0.000 A 
ATOM      8  C   UNL     1       9.745  12.964  18.438  0.00  0.00    +0.000 A 
ATOM      9  C   UNL     1       9.123  11.793  17.992  0.00  0.00    +0.000 A 
ATOM     10  C   UNL     1       9.149  10.619  18.765  0.00  0.00    +0.000 A 
ATOM     11  C   UNL     1       9.810  10.650  20.004  0.00  0.00    +0.000 A 
ATOM     12  C   UNL     1      10.436  11.821  20.451  0.00  0.00    +0.000 A 
ENDBRANCH   1  10
BRANCH   4  13
ATOM     13  C   UNL     1       7.855   5.960  18.660  0.00  0.00    +0.000 C 
BRANCH  13  14
ATOM     14  N   UNL     1       6.910   5.212  17.860  0.00  0.00    +0.000 N 
ATOM     15  N   UNL     1       7.343   4.543  16.771  0.00  0.00    +0.000 NA
ATOM     16  N   UNL     1       6.304   3.901  16.257  0.00  0.00    +0.000 NA
ATOM     17  C   UNL     1       5.214   4.152  17.045  0.00  0.00    +0.000 A 
ATOM     18  C   UNL     1       3.889   3.708  16.938  0.00  0.00    +0.000 A 
ATOM     19  C   UNL     1       2.966   4.118  17.907  0.00  0.00    +0.000 A 
ATOM     20  C   UNL     1       3.356   4.950  18.960  0.00  0.00    +0.000 A 
ATOM     21  C   UNL     1       4.675   5.406  19.081  0.00  0.00    +0.000 A 
ATOM     22  C   UNL     1       5.579   4.987  18.097  0.00  0.00    +0.000 A 
ENDBRANCH  13  14
ENDBRANCH   4  13
TORSDOF 3
ENDMDL
MODEL 4
REMARK VINA RESULT:      -8.1      1.698      2.251
REMARK  Name = 
REMARK  3 active torsions:
REMARK  status: ('A' for Active; 'I' for Inactive)
REMARK    1  A    between atoms: C_5  and  C_6
REMARK    2  A    between atoms: C_9  and  C_10
REMARK    3  A    between atoms: C_10  and  N_11
REMARK                            x       y       z     vdW  Elec       q    Type
REMARK                         _______ _______ _______ _____ _____    ______ ____
ROOT
ATOM      1  C   UNL     1       2.184   6.382  19.889  0.00  0.00    +0.000 A 
ATOM      2  N   UNL     1       1.916   5.653  20.957  0.00  0.00    +0.000 NA
ATOM      3  N   UNL     1       2.470   4.410  20.743  0.00  0.00    +0.000 NA
ATOM      4  C   UNL     1       3.044   4.460  19.559  0.00  0.00    +0.000 A 
ATOM      5  O   UNL     1       2.911   5.686  18.955  0.00  0.00    +0.000 OA
ENDROOT
BRANCH   1  10
ATOM      6 BR   UNL     1       0.619  12.230  18.760  0.00  0.00    +0.000 Br
ATOM      7  C   UNL     1       1.121  10.440  19.100  0.00  0.00    +0.000 A 
ATOM      8  C   UNL     1       0.858   9.874  20.344  0.00  0.00    +0.000 A 
ATOM      9  C   UNL     1       1.218   8.545  20.590  0.00  0.00    +0.000 A 
ATOM     10  C   UNL     1       1.844   7.769  19.599  0.00  0.00    +0.000 A 
ATOM     11  C   UNL     1       2.108   8.362  18.354  0.00  0.00    +0.000 A 
ATOM     12  C   UNL     1       1.747   9.693  18.105  0.00  0.00    +0.000 A 
ENDBRANCH   1  10
BRANCH   4  13
ATOM     13  C   UNL     1       3.853   3.428  18.882  0.00  0.00    +0.000 C 
BRANCH  13  14
ATOM     14  N   UNL     1       5.089   3.984  18.376  0.00  0.00    +0.000 N 
ATOM     15  N   UNL     1       6.089   4.272  19.235  0.00  0.00    +0.000 NA
ATOM     16  N   UNL     1       7.118   4.706  18.520  0.00  0.00    +0.000 NA
ATOM     17  C   UNL     1       6.765   4.667  17.198  0.00  0.00    +0.000 A 
ATOM     18  C   UNL     1       7.491   5.013  16.050  0.00  0.00    +0.000 A 
ATOM     19  C   UNL     1       6.878   4.862  14.800  0.00  0.00    +0.000 A 
ATOM     20  C   UNL     1       5.572   4.375  14.698  0.00  0.00    +0.000 A 
ATOM     21  C   UNL     1       4.831   4.028  15.836  0.00  0.00    +0.000 A 
ATOM     22  C   UNL     1       5.463   4.193  17.074  0.00  0.00    +0.000 A 
ENDBRANCH  13  14
ENDBRANCH   4  13
TORSDOF 3
ENDMDL
MODEL 5
REMARK VINA RESULT:      -8.0      5.609      6.677
REMARK  Name = 
REMARK  3 active torsions:
REMARK  status: ('A' for Active; 'I' for Inactive)
REMARK    1  A    between atoms: C_5  and  C_6
REMARK    2  A    between atoms: C_9  and  C_10
REMARK    3  A    between atoms: C_10  and  N_11
REMARK                            x       y       z     vdW  Elec       q    Type
REMARK                         _______ _______ _______ _____ _____    ______ ____
ROOT
ATOM      1  C   UNL     1       8.439   9.271  18.203  0.00  0.00    +0.000 A 
ATOM      2  N   UNL     1       7.698   9.092  17.126  0.00  0.00    +0.000 NA
ATOM      3  N   UNL     1       7.339   7.762  17.103  0.00  0.00    +0.000 NA
ATOM      4  C   UNL     1       7.881   7.215  18.171  0.00  0.00    +0.000 A 
ATOM      5  O   UNL     1       8.592   8.114  18.927  0.00  0.00    +0.000 OA
ENDROOT
BRANCH   1  10
ATOM      6 BR   UNL     1      11.026  14.366  20.502  0.00  0.00    +0.000 Br
ATOM      7  C   UNL     1      10.247  12.804  19.779  0.00  0.00    +0.000 A 
ATOM      8  C   UNL     1      10.155  11.654  20.557  0.00  0.00    +0.000 A 
ATOM      9  C   UNL     1       9.565  10.503  20.025  0.00  0.00    +0.000 A 
ATOM     10  C   UNL     1       9.064  10.485  18.712  0.00  0.00    +0.000 A 
ATOM     11  C   UNL     1       9.175  11.653  17.940  0.00  0.00    +0.000 A 
ATOM     12  C   UNL     1       9.763  12.809  18.472  0.00  0.00    +0.000 A 
ENDBRANCH   1  10
BRANCH   4  13
ATOM     13  C   UNL     1       7.742   5.834  18.670  0.00  0.00    +0.000 C 
BRANCH  13  14
ATOM     14  N   UNL     1       6.740   5.107  17.921  0.00  0.00    +0.000 N 
ATOM     15  N   UNL     1       7.097   4.445  16.801  0.00  0.00    +0.000 NA
ATOM     16  N   UNL     1       6.020   3.821  16.344  0.00  0.00    +0.000 NA
ATOM     17  C   UNL     1       4.984   4.077  17.201  0.00  0.00    +0.000 A 
ATOM     18  C   UNL     1       3.648   3.651  17.169  0.00  0.00    +0.000 A 
ATOM     19  C   UNL     1       2.791   4.063  18.198  0.00  0.00    +0.000 A 
ATOM     20  C   UNL     1       3.256   4.878  19.233  0.00  0.00    +0.000 A 
ATOM     21  C   UNL     1       4.586   5.315  19.278  0.00  0.00    +0.000 A 
ATOM     22  C   UNL     1       5.422   4.896  18.237  0.00  0.00    +0.000 A 
ENDBRANCH  13  14
ENDBRANCH   4  13
TORSDOF 3
ENDMDL
MODEL 6
REMARK VINA RESULT:      -7.9      2.221      3.283
REMARK  Name = 
REMARK  3 active torsions:
REMARK  status: ('A' for Active; 'I' for Inactive)
REMARK    1  A    between atoms: C_5  and  C_6
REMARK    2  A    between atoms: C_9  and  C_10
REMARK    3  A    between atoms: C_10  and  N_11
REMARK                            x       y       z     vdW  Elec       q    Type
REMARK                         _______ _______ _______ _____ _____    ______ ____
ROOT
ATOM      1  C   UNL     1       1.809   8.117  19.638  0.00  0.00    +0.000 A 
ATOM      2  N   UNL     1       2.144   8.188  18.363  0.00  0.00    +0.000 NA
ATOM      3  N   UNL     1       2.906   7.075  18.087  0.00  0.00    +0.000 NA
ATOM      4  C   UNL     1       2.985   6.392  19.210  0.00  0.00    +0.000 A 
ATOM      5  O   UNL     1       2.305   6.989  20.243  0.00  0.00    +0.000 OA
ENDROOT
BRANCH   1  10
ATOM      6 BR   UNL     1      -1.700  11.828  23.078  0.00  0.00    +0.000 Br
ATOM      7  C   UNL     1      -0.607  10.706  22.023  0.00  0.00    +0.000 A 
ATOM      8  C   UNL     1      -0.328   9.412  22.452  0.00  0.00    +0.000 A 
ATOM      9  C   UNL     1       0.470   8.577  21.662  0.00  0.00    +0.000 A 
ATOM     10  C   UNL     1       0.999   9.025  20.440  0.00  0.00    +0.000 A 
ATOM     11  C   UNL     1       0.713  10.337  20.029  0.00  0.00    +0.000 A 
ATOM     12  C   UNL     1      -0.089  11.174  20.817  0.00  0.00    +0.000 A 
ENDBRANCH   1  10
BRANCH   4  13
ATOM     13  C   UNL     1       3.613   5.079  19.449  0.00  0.00    +0.000 C 
BRANCH  13  14
ATOM     14  N   UNL     1       4.951   5.033  18.898  0.00  0.00    +0.000 N 
ATOM     15  N   UNL     1       6.013   5.170  19.719  0.00  0.00    +0.000 NA
ATOM     16  N   UNL     1       7.107   5.032  18.983  0.00  0.00    +0.000 NA
ATOM     17  C   UNL     1       6.725   4.783  17.693  0.00  0.00    +0.000 A 
ATOM     18  C   UNL     1       7.493   4.559  16.541  0.00  0.00    +0.000 A 
ATOM     19  C   UNL     1       6.829   4.315  15.332  0.00  0.00    +0.000 A 
ATOM     20  C   UNL     1       5.433   4.294  15.274  0.00  0.00    +0.000 A 
ATOM     21  C   UNL     1       4.650   4.519  16.415  0.00  0.00    +0.000 A 
ATOM     22  C   UNL     1       5.336   4.765  17.610  0.00  0.00    +0.000 A 
ENDBRANCH  13  14
ENDBRANCH   4  13
TORSDOF 3
ENDMDL
MODEL 7
REMARK VINA RESULT:      -7.8      5.166      6.372
REMARK  Name = 
REMARK  3 active torsions:
REMARK  status: ('A' for Active; 'I' for Inactive)
REMARK    1  A    between atoms: C_5  and  C_6
REMARK    2  A    between atoms: C_9  and  C_10
REMARK    3  A    between atoms: C_10  and  N_11
REMARK                            x       y       z     vdW  Elec       q    Type
REMARK                         _______ _______ _______ _____ _____    ______ ____
ROOT
ATOM      1  C   UNL     1       8.054   8.484  18.157  0.00  0.00    +0.000 A 
ATOM      2  N   UNL     1       8.403   7.328  18.691  0.00  0.00    +0.000 NA
ATOM      3  N   UNL     1       7.572   6.371  18.153  0.00  0.00    +0.000 NA
ATOM      4  C   UNL     1       6.770   7.002  17.322  0.00  0.00    +0.000 A 
ATOM      5  O   UNL     1       7.020   8.351  17.263  0.00  0.00    +0.000 OA
ENDROOT
BRANCH   1  10
ATOM      6 BR   UNL     1      10.422  14.073  19.194  0.00  0.00    +0.000 Br
ATOM      7  C   UNL     1       9.703  12.359  18.855  0.00  0.00    +0.000 A 
ATOM      8  C   UNL     1      10.043  11.292  19.680  0.00  0.00    +0.000 A 
ATOM      9  C   UNL     1       9.499  10.027  19.436  0.00  0.00    +0.000 A 
ATOM     10  C   UNL     1       8.614   9.813  18.365  0.00  0.00    +0.000 A 
ATOM     11  C   UNL     1       8.292  10.900  17.538  0.00  0.00    +0.000 A 
ATOM     12  C   UNL     1       8.834  12.170  17.782  0.00  0.00    +0.000 A 
ENDBRANCH   1  10
BRANCH   4  13
ATOM     13  C   UNL     1       5.745   6.439  16.422  0.00  0.00    +0.000 C 
BRANCH  13  14
ATOM     14  N   UNL     1       4.497   6.226  17.123  0.00  0.00    +0.000 N 
ATOM     15  N   UNL     1       3.790   7.288  17.559  0.00  0.00    +0.000 NA
ATOM     16  N   UNL     1       2.674   6.828  18.108  0.00  0.00    +0.000 NA
ATOM     17  C   UNL     1       2.673   5.465  17.992  0.00  0.00    +0.000 A 
ATOM     18  C   UNL     1       1.726   4.515  18.402  0.00  0.00    +0.000 A 
ATOM     19  C   UNL     1       1.979   3.163  18.142  0.00  0.00    +0.000 A 
ATOM     20  C   UNL     1       3.148   2.767  17.486  0.00  0.00    +0.000 A 
ATOM     21  C   UNL     1       4.106   3.703  17.071  0.00  0.00    +0.000 A 
ATOM     22  C   UNL     1       3.833   5.047  17.347  0.00  0.00    +0.000 A 
ENDBRANCH  13  14
ENDBRANCH   4  13
TORSDOF 3
ENDMDL
MODEL 8
REMARK VINA RESULT:      -7.8      3.986      5.816
REMARK  Name = 
REMARK  3 active torsions:
REMARK  status: ('A' for Active; 'I' for Inactive)
REMARK    1  A    between atoms: C_5  and  C_6
REMARK    2  A    between atoms: C_9  and  C_10
REMARK    3  A    between atoms: C_10  and  N_11
REMARK                            x       y       z     vdW  Elec       q    Type
REMARK                         _______ _______ _______ _____ _____    ______ ____
ROOT
ATOM      1  C   UNL     1       1.675   8.914  18.936  0.00  0.00    +0.000 A 
ATOM      2  N   UNL     1       1.962   9.253  17.693  0.00  0.00    +0.000 NA
ATOM      3  N   UNL     1       2.759   8.254  17.179  0.00  0.00    +0.000 NA
ATOM      4  C   UNL     1       2.906   7.367  18.140  0.00  0.00    +0.000 A 
ATOM      5  O   UNL     1       2.239   7.712  19.289  0.00  0.00    +0.000 OA
ENDROOT
BRANCH   1  10
ATOM      6 BR   UNL     1      -1.834  11.688  23.169  0.00  0.00    +0.000 Br
ATOM      7  C   UNL     1      -0.745  10.855  21.869  0.00  0.00    +0.000 A 
ATOM      8  C   UNL     1      -0.157   9.625  22.145  0.00  0.00    +0.000 A 
ATOM      9  C   UNL     1       0.638   9.003  21.177  0.00  0.00    +0.000 A 
ATOM     10  C   UNL     1       0.857   9.604  19.925  0.00  0.00    +0.000 A 
ATOM     11  C   UNL     1       0.263  10.850  19.669  0.00  0.00    +0.000 A 
ATOM     12  C   UNL     1      -0.536  11.473  20.638  0.00  0.00    +0.000 A 
ENDBRANCH   1  10
BRANCH   4  13
ATOM     13  C   UNL     1       3.597   6.064  18.095  0.00  0.00    +0.000 C 
BRANCH  13  14
ATOM     14  N   UNL     1       2.671   4.976  18.322  0.00  0.00    +0.000 N 
ATOM     15  N   UNL     1       2.046   4.404  17.272  0.00  0.00    +0.000 NA
ATOM     16  N   UNL     1       1.309   3.406  17.740  0.00  0.00    +0.000 NA
ATOM     17  C   UNL     1       1.493   3.339  19.095  0.00  0.00    +0.000 A 
ATOM     18  C   UNL     1       0.950   2.464  20.047  0.00  0.00    +0.000 A 
ATOM     19  C   UNL     1       1.326   2.618  21.387  0.00  0.00    +0.000 A 
ATOM     20  C   UNL     1       2.224   3.619  21.768  0.00  0.00    +0.000 A 
ATOM     21  C   UNL     1       2.774   4.503  20.830  0.00  0.00    +0.000 A 
ATOM     22  C   UNL     1       2.379   4.333  19.498  0.00  0.00    +0.000 A 
ENDBRANCH  13  14
ENDBRANCH   4  13
TORSDOF 3
ENDMDL
MODEL 9
REMARK VINA RESULT:      -7.8      1.749      2.511
REMARK  Name = 
REMARK  3 active torsions:
REMARK  status: ('A' for Active; 'I' for Inactive)
REMARK    1  A    between atoms: C_5  and  C_6
REMARK    2  A    between atoms: C_9  and  C_10
REMARK    3  A    between atoms: C_10  and  N_11
REMARK                            x       y       z     vdW  Elec       q    Type
REMARK                         _______ _______ _______ _____ _____    ______ ____
ROOT
ATOM      1  C   UNL     1       2.273   6.105  19.893  0.00  0.00    +0.000 A 
ATOM      2  N   UNL     1       1.619   5.137  20.508  0.00  0.00    +0.000 NA
ATOM      3  N   UNL     1       2.417   4.016  20.451  0.00  0.00    +0.000 NA
ATOM      4  C   UNL     1       3.509   4.371  19.807  0.00  0.00    +0.000 A 
ATOM      5  O   UNL     1       3.495   5.690  19.425  0.00  0.00    +0.000 OA
ENDROOT
BRANCH   1  10
ATOM      6 BR   UNL     1       0.792  11.998  18.888  0.00  0.00    +0.000 Br
ATOM      7  C   UNL     1       1.225  10.186  19.203  0.00  0.00    +0.000 A 
ATOM      8  C   UNL     1       1.788   9.423  18.184  0.00  0.00    +0.000 A 
ATOM      9  C   UNL     1       2.121   8.086  18.424  0.00  0.00    +0.000 A 
ATOM     10  C   UNL     1       1.893   7.496  19.679  0.00  0.00    +0.000 A 
ATOM     11  C   UNL     1       1.316   8.280  20.691  0.00  0.00    +0.000 A 
ATOM     12  C   UNL     1       0.984   9.621  20.454  0.00  0.00    +0.000 A 
ENDBRANCH   1  10
BRANCH   4  13
ATOM     13  C   UNL     1       4.723   3.577  19.542  0.00  0.00    +0.000 C 
BRANCH  13  14
ATOM     14  N   UNL     1       5.664   4.318  18.730  0.00  0.00    +0.000 N 
ATOM     15  N   UNL     1       6.681   4.975  19.323  0.00  0.00    +0.000 NA
ATOM     16  N   UNL     1       7.422   5.516  18.364  0.00  0.00    +0.000 NA
ATOM     17  C   UNL     1       6.874   5.173  17.158  0.00  0.00    +0.000 A 
ATOM     18  C   UNL     1       7.277   5.484  15.852  0.00  0.00    +0.000 A 
ATOM     19  C   UNL     1       6.524   4.983  14.783  0.00  0.00    +0.000 A 
ATOM     20  C   UNL     1       5.397   4.189  15.011  0.00  0.00    +0.000 A 
ATOM     21  C   UNL     1       4.978   3.871  16.310  0.00  0.00    +0.000 A 
ATOM     22  C   UNL     1       5.743   4.387  17.362  0.00  0.00    +0.000 A 
ENDBRANCH  13  14
ENDBRANCH   4  13
TORSDOF 3
ENDMDL
