MODEL 1
REMARK VINA RESULT:      -8.3      0.000      0.000
REMARK  Name = 
REMARK  6 active torsions:
REMARK  status: ('A' for Active; 'I' for Inactive)
REMARK    1  A    between atoms: C_5  and  O_6
REMARK    2  A    between atoms: O_6  and  C_7
REMARK    3  A    between atoms: C_7  and  C_8
REMARK    4  A    between atoms: N_16  and  C_17
REMARK    5  A    between atoms: C_17  and  C_18
REMARK    6  A    between atoms: C_18  and  C_19
REMARK                            x       y       z     vdW  Elec       q    Type
REMARK                         _______ _______ _______ _____ _____    ______ ____
ROOT
ATOM      1  C   UNL     1       3.956   4.183  17.447  0.00  0.00    +0.000 A 
ATOM      2  N   UNL     1       3.456   2.977  17.632  0.00  0.00    +0.000 NA
ATOM      3  C   UNL     1       2.686   3.049  18.759  0.00  0.00    +0.000 A 
ATOM      4  C   UNL     1       1.927   2.038  19.370  0.00  0.00    +0.000 A 
ATOM      5  C   UNL     1       1.211   2.325  20.535  0.00  0.00    +0.000 A 
ATOM      6  C   UNL     1       1.239   3.605  21.075  0.00  0.00    +0.000 A 
ATOM      7  C   UNL     1       1.977   4.627  20.469  0.00  0.00    +0.000 A 
ATOM      8  C   UNL     1       2.715   4.331  19.310  0.00  0.00    +0.000 A 
ATOM      9  N   UNL     1       3.558   5.043  18.468  0.00  0.00    +0.000 N 
ENDROOT
BRANCH   1  10
ATOM     10  C   UNL     1       4.865   4.540  16.300  0.00  0.00    +0.000 C 
BRANCH  10  11
ATOM     11  O   UNL     1       6.210   4.263  16.705  0.00  0.00    +0.000 OA
BRANCH  11  16
ATOM     12 CL   UNL     1       8.826   9.055  18.916  0.00  0.00    +0.000 Cl
ATOM     13  C   UNL     1       8.098   7.633  18.277  0.00  0.00    +0.000 A 
ATOM     14  C   UNL     1       7.449   7.678  17.045  0.00  0.00    +0.000 A 
ATOM     15  C   UNL     1       6.842   6.521  16.541  0.00  0.00    +0.000 A 
ATOM     16  C   UNL     1       6.889   5.320  17.256  0.00  0.00    +0.000 A 
ATOM     17  C   UNL     1       7.541   5.288  18.491  0.00  0.00    +0.000 A 
ATOM     18  C   UNL     1       8.146   6.444  19.001  0.00  0.00    +0.000 A 
ENDBRANCH  11  16
ENDBRANCH  10  11
ENDBRANCH   1  10
BRANCH   9  19
ATOM     19  C   UNL     1       3.922   6.454  18.556  0.00  0.00    +0.000 C 
BRANCH  19  20
ATOM     20  C   UNL     1       3.106   7.439  17.711  0.00  0.00    +0.000 C 
BRANCH  20  21
ATOM     21  C   UNL     1       2.133   8.250  18.531  0.00  0.00    +0.000 A 
ATOM     22  C   UNL     1       1.362   9.246  17.911  0.00  0.00    +0.000 A 
ATOM     23  C   UNL     1       0.440   9.988  18.646  0.00  0.00    +0.000 A 
ATOM     24  C   UNL     1       0.284   9.744  20.007  0.00  0.00    +0.000 A 
ATOM     25  C   UNL     1       1.046   8.758  20.634  0.00  0.00    +0.000 A 
ATOM     26  C   UNL     1       1.969   8.012  19.900  0.00  0.00    +0.000 A 
ENDBRANCH  20  21
ENDBRANCH  19  20
ENDBRANCH   9  19
TORSDOF 6
ENDMDL
MODEL 2
REMARK VINA RESULT:      -8.2      0.764      1.218
REMARK  Name = 
REMARK  6 active torsions:
REMARK  status: ('A' for Active; 'I' for Inactive)
REMARK    1  A    between atoms: C_5  and  O_6
REMARK    2  A    between atoms: O_6  and  C_7
REMARK    3  A    between atoms: C_7  and  C_8
REMARK    4  A    between atoms: N_16  and  C_17
REMARK    5  A    between atoms: C_17  and  C_18
REMARK    6  A    between atoms: C_18  and  C_19
REMARK                            x       y       z     vdW  Elec       q    Type
REMARK                         _______ _______ _______ _____ _____    ______ ____
ROOT
ATOM      1  C   UNL     1       3.981   3.892  17.780  0.00  0.00    +0.000 A 
ATOM      2  N   UNL     1       4.261   2.882  18.582  0.00  0.00    +0.000 NA
ATOM      3  C   UNL     1       3.419   2.997  19.652  0.00  0.00    +0.000 A 
ATOM      4  C   UNL     1       3.308   2.162  20.775  0.00  0.00    +0.000 A 
ATOM      5  C   UNL     1       2.376   2.469  21.770  0.00  0.00    +0.000 A 
ATOM      6  C   UNL     1       1.557   3.583  21.641  0.00  0.00    +0.000 A 
ATOM      7  C   UNL     1       1.644   4.416  20.520  0.00  0.00    +0.000 A 
ATOM      8  C   UNL     1       2.598   4.120  19.531  0.00  0.00    +0.000 A 
ATOM      9  N   UNL     1       2.990   4.699  18.333  0.00  0.00    +0.000 N 
ENDROOT
BRANCH   1  10
ATOM     10  C   UNL     1       4.686   4.134  16.471  0.00  0.00    +0.000 C 
BRANCH  10  11
ATOM     11  O   UNL     1       6.095   4.108  16.720  0.00  0.00    +0.000 OA
BRANCH  11  16
ATOM     12 CL   UNL     1       8.747   8.921  18.840  0.00  0.00    +0.000 Cl
ATOM     13  C   UNL     1       7.935   7.535  18.221  0.00  0.00    +0.000 A 
ATOM     14  C   UNL     1       8.113   6.295  18.830  0.00  0.00    +0.000 A 
ATOM     15  C   UNL     1       7.464   5.170  18.308  0.00  0.00    +0.000 A 
ATOM     16  C   UNL     1       6.632   5.280  17.189  0.00  0.00    +0.000 A 
ATOM     17  C   UNL     1       6.463   6.528  16.586  0.00  0.00    +0.000 A 
ATOM     18  C   UNL     1       7.114   7.656  17.104  0.00  0.00    +0.000 A 
ENDBRANCH  11  16
ENDBRANCH  10  11
ENDBRANCH   1  10
BRANCH   9  19
ATOM     19  C   UNL     1       2.437   5.889  17.695  0.00  0.00    +0.000 C 
BRANCH  19  20
ATOM     20  C   UNL     1       3.097   7.232  18.029  0.00  0.00    +0.000 C 
BRANCH  20  21
ATOM     21  C   UNL     1       2.155   8.198  18.706  0.00  0.00    +0.000 A 
ATOM     22  C   UNL     1       1.599   9.257  17.971  0.00  0.00    +0.000 A 
ATOM     23  C   UNL     1       0.708  10.144  18.571  0.00  0.00    +0.000 A 
ATOM     24  C   UNL     1       0.369   9.983  19.910  0.00  0.00    +0.000 A 
ATOM     25  C   UNL     1       0.916   8.934  20.651  0.00  0.00    +0.000 A 
ATOM     26  C   UNL     1       1.808   8.043  20.052  0.00  0.00    +0.000 A 
ENDBRANCH  20  21
ENDBRANCH  19  20
ENDBRANCH   9  19
TORSDOF 6
ENDMDL
MODEL 3
REMARK VINA RESULT:      -8.0      0.623      1.122
REMARK  Name = 
REMARK  6 active torsions:
REMARK  status: ('A' for Active; 'I' for Inactive)
REMARK    1  A    between atoms: C_5  and  O_6
REMARK    2  A    between atoms: O_6  and  C_7
REMARK    3  A    between atoms: C_7  and  C_8
REMARK    4  A    between atoms: N_16  and  C_17
REMARK    5  A    between atoms: C_17  and  C_18
REMARK    6  A    between atoms: C_18  and  C_19
REMARK                            x       y       z     vdW  Elec       q    Type
REMARK                         _______ _______ _______ _____ _____    ______ ____
ROOT
ATOM      1  C   UNL     1       3.957   3.860  17.531  0.00  0.00    +0.000 A 
ATOM      2  N   UNL     1       3.997   2.755  18.251  0.00  0.00    +0.000 NA
ATOM      3  C   UNL     1       3.139   2.946  19.297  0.00  0.00    +0.000 A 
ATOM      4  C   UNL     1       2.812   2.061  20.337  0.00  0.00    +0.000 A 
ATOM      5  C   UNL     1       1.907   2.463  21.323  0.00  0.00    +0.000 A 
ATOM      6  C   UNL     1       1.324   3.723  21.264  0.00  0.00    +0.000 A 
ATOM      7  C   UNL     1       1.626   4.610  20.225  0.00  0.00    +0.000 A 
ATOM      8  C   UNL     1       2.554   4.213  19.247  0.00  0.00    +0.000 A 
ATOM      9  N   UNL     1       3.111   4.799  18.119  0.00  0.00    +0.000 N 
ENDROOT
BRANCH   1  10
ATOM     10  C   UNL     1       4.760   4.065  16.274  0.00  0.00    +0.000 C 
BRANCH  10  11
ATOM     11  O   UNL     1       6.141   3.881  16.602  0.00  0.00    +0.000 OA
BRANCH  11  16
ATOM     12 CL   UNL     1       8.532   8.831  18.717  0.00  0.00    +0.000 Cl
ATOM     13  C   UNL     1       7.872   7.365  18.104  0.00  0.00    +0.000 A 
ATOM     14  C   UNL     1       7.153   7.373  16.911  0.00  0.00    +0.000 A 
ATOM     15  C   UNL     1       6.602   6.179  16.429  0.00  0.00    +0.000 A 
ATOM     16  C   UNL     1       6.774   4.980  17.126  0.00  0.00    +0.000 A 
ATOM     17  C   UNL     1       7.495   4.985  18.323  0.00  0.00    +0.000 A 
ATOM     18  C   UNL     1       8.045   6.178  18.810  0.00  0.00    +0.000 A 
ENDBRANCH  11  16
ENDBRANCH  10  11
ENDBRANCH   1  10
BRANCH   9  19
ATOM     19  C   UNL     1       2.829   6.121  17.570  0.00  0.00    +0.000 C 
BRANCH  19  20
ATOM     20  C   UNL     1       3.278   7.331  18.397  0.00  0.00    +0.000 C 
BRANCH  20  21
ATOM     21  C   UNL     1       2.138   8.251  18.758  0.00  0.00    +0.000 A 
ATOM     22  C   UNL     1       1.736   8.368  20.098  0.00  0.00    +0.000 A 
ATOM     23  C   UNL     1       0.702   9.231  20.455  0.00  0.00    +0.000 A 
ATOM     24  C   UNL     1       0.058   9.981  19.475  0.00  0.00    +0.000 A 
ATOM     25  C   UNL     1       0.448   9.872  18.140  0.00  0.00    +0.000 A 
ATOM     26  C   UNL     1       1.485   9.009  17.780  0.00  0.00    +0.000 A 
ENDBRANCH  20  21
ENDBRANCH  19  20
ENDBRANCH   9  19
TORSDOF 6
ENDMDL
MODEL 4
REMARK VINA RESULT:      -8.0      3.212      6.844
REMARK  Name = 
REMARK  6 active torsions:
REMARK  status: ('A' for Active; 'I' for Inactive)
REMARK    1  A    between atoms: C_5  and  O_6
REMARK    2  A    between atoms: O_6  and  C_7
REMARK    3  A    between atoms: C_7  and  C_8
REMARK    4  A    between atoms: N_16  and  C_17
REMARK    5  A    between atoms: C_17  and  C_18
REMARK    6  A    between atoms: C_18  and  C_19
REMARK                            x       y       z     vdW  Elec       q    Type
REMARK                         _______ _______ _______ _____ _____    ______ ____
ROOT
ATOM      1  C   UNL     1       1.980   6.342  19.917  0.00  0.00    +0.000 A 
ATOM      2  N   UNL     1       1.559   5.264  20.550  0.00  0.00    +0.000 NA
ATOM      3  C   UNL     1       1.835   4.205  19.733  0.00  0.00    +0.000 A 
ATOM      4  C   UNL     1       1.598   2.839  19.954  0.00  0.00    +0.000 A 
ATOM      5  C   UNL     1       1.954   1.911  18.972  0.00  0.00    +0.000 A 
ATOM      6  C   UNL     1       2.552   2.336  17.793  0.00  0.00    +0.000 A 
ATOM      7  C   UNL     1       2.811   3.692  17.564  0.00  0.00    +0.000 A 
ATOM      8  C   UNL     1       2.431   4.627  18.542  0.00  0.00    +0.000 A 
ATOM      9  N   UNL     1       2.493   6.008  18.665  0.00  0.00    +0.000 N 
ENDROOT
BRANCH   1  10
ATOM     10  C   UNL     1       1.868   7.734  20.479  0.00  0.00    +0.000 C 
BRANCH  10  11
ATOM     11  O   UNL     1       0.724   7.769  21.339  0.00  0.00    +0.000 OA
BRANCH  11  16
ATOM     12 CL   UNL     1      -1.620  13.071  22.380  0.00  0.00    +0.000 Cl
ATOM     13  C   UNL     1      -0.962  11.518  22.043  0.00  0.00    +0.000 A 
ATOM     14  C   UNL     1      -0.854  10.573  23.060  0.00  0.00    +0.000 A 
ATOM     15  C   UNL     1      -0.299   9.317  22.781  0.00  0.00    +0.000 A 
ATOM     16  C   UNL     1       0.138   9.000  21.491  0.00  0.00    +0.000 A 
ATOM     17  C   UNL     1       0.027   9.958  20.480  0.00  0.00    +0.000 A 
ATOM     18  C   UNL     1      -0.525  11.215  20.756  0.00  0.00    +0.000 A 
ENDBRANCH  11  16
ENDBRANCH  10  11
ENDBRANCH   1  10
BRANCH   9  19
ATOM     19  C   UNL     1       3.058   6.962  17.717  0.00  0.00    +0.000 C 
BRANCH  19  20
ATOM     20  C   UNL     1       4.564   7.232  17.811  0.00  0.00    +0.000 C 
BRANCH  20  21
ATOM     21  C   UNL     1       5.387   6.252  17.012  0.00  0.00    +0.000 A 
ATOM     22  C   UNL     1       6.401   5.516  17.646  0.00  0.00    +0.000 A 
ATOM     23  C   UNL     1       7.155   4.588  16.931  0.00  0.00    +0.000 A 
ATOM     24  C   UNL     1       6.906   4.392  15.576  0.00  0.00    +0.000 A 
ATOM     25  C   UNL     1       5.902   5.119  14.935  0.00  0.00    +0.000 A 
ATOM     26  C   UNL     1       5.144   6.048  15.650  0.00  0.00    +0.000 A 
ENDBRANCH  20  21
ENDBRANCH  19  20
ENDBRANCH   9  19
TORSDOF 6
ENDMDL
MODEL 5
REMARK VINA RESULT:      -7.9      3.188      6.678
REMARK  Name = 
REMARK  6 active torsions:
REMARK  status: ('A' for Active; 'I' for Inactive)
REMARK    1  A    between atoms: C_5  and  O_6
REMARK    2  A    between atoms: O_6  and  C_7
REMARK    3  A    between atoms: C_7  and  C_8
REMARK    4  A    between atoms: N_16  and  C_17
REMARK    5  A    between atoms: C_17  and  C_18
REMARK    6  A    between atoms: C_18  and  C_19
REMARK                            x       y       z     vdW  Elec       q    Type
REMARK                         _______ _______ _______ _____ _____    ______ ____
ROOT
ATOM      1  C   UNL     1       1.976   6.321  19.956  0.00  0.00    +0.000 A 
ATOM      2  N   UNL     1       1.580   5.231  20.585  0.00  0.00    +0.000 NA
ATOM      3  C   UNL     1       1.857   4.184  19.752  0.00  0.00    +0.000 A 
ATOM      4  C   UNL     1       1.642   2.813  19.963  0.00  0.00    +0.000 A 
ATOM      5  C   UNL     1       1.994   1.900  18.965  0.00  0.00    +0.000 A 
ATOM      6  C   UNL     1       2.567   2.346  17.781  0.00  0.00    +0.000 A 
ATOM      7  C   UNL     1       2.804   3.707  17.562  0.00  0.00    +0.000 A 
ATOM      8  C   UNL     1       2.428   4.626  18.557  0.00  0.00    +0.000 A 
ATOM      9  N   UNL     1       2.473   6.007  18.693  0.00  0.00    +0.000 N 
ENDROOT
BRANCH   1  10
ATOM     10  C   UNL     1       1.854   7.706  20.534  0.00  0.00    +0.000 C 
BRANCH  10  11
ATOM     11  O   UNL     1       0.639   7.761  21.288  0.00  0.00    +0.000 OA
BRANCH  11  16
ATOM     12 CL   UNL     1      -1.310  13.213  22.368  0.00  0.00    +0.000 Cl
ATOM     13  C   UNL     1      -0.719  11.621  22.089  0.00  0.00    +0.000 A 
ATOM     14  C   UNL     1      -0.138  11.301  20.865  0.00  0.00    +0.000 A 
ATOM     15  C   UNL     1       0.323   9.998  20.639  0.00  0.00    +0.000 A 
ATOM     16  C   UNL     1       0.215   9.020  21.633  0.00  0.00    +0.000 A 
ATOM     17  C   UNL     1      -0.371   9.353  22.856  0.00  0.00    +0.000 A 
ATOM     18  C   UNL     1      -0.837  10.655  23.084  0.00  0.00    +0.000 A 
ENDBRANCH  11  16
ENDBRANCH  10  11
ENDBRANCH   1  10
BRANCH   9  19
ATOM     19  C   UNL     1       3.010   6.978  17.746  0.00  0.00    +0.000 C 
BRANCH  19  20
ATOM     20  C   UNL     1       4.512   7.274  17.823  0.00  0.00    +0.000 C 
BRANCH  20  21
ATOM     21  C   UNL     1       5.348   6.265  17.074  0.00  0.00    +0.000 A 
ATOM     22  C   UNL     1       5.137   6.071  15.700  0.00  0.00    +0.000 A 
ATOM     23  C   UNL     1       5.915   5.163  14.986  0.00  0.00    +0.000 A 
ATOM     24  C   UNL     1       6.908   4.439  15.639  0.00  0.00    +0.000 A 
ATOM     25  C   UNL     1       7.125   4.623  17.005  0.00  0.00    +0.000 A 
ATOM     26  C   UNL     1       6.348   5.534  17.723  0.00  0.00    +0.000 A 
ENDBRANCH  20  21
ENDBRANCH  19  20
ENDBRANCH   9  19
TORSDOF 6
ENDMDL
MODEL 6
REMARK VINA RESULT:      -7.9      2.205      2.806
REMARK  Name = 
REMARK  6 active torsions:
REMARK  status: ('A' for Active; 'I' for Inactive)
REMARK    1  A    between atoms: C_5  and  O_6
REMARK    2  A    between atoms: O_6  and  C_7
REMARK    3  A    between atoms: C_7  and  C_8
REMARK    4  A    between atoms: N_16  and  C_17
REMARK    5  A    between atoms: C_17  and  C_18
REMARK    6  A    between atoms: C_18  and  C_19
REMARK                            x       y       z     vdW  Elec       q    Type
REMARK                         _______ _______ _______ _____ _____    ______ ____
ROOT
ATOM      1  C   UNL     1       5.049   4.676  19.200  0.00  0.00    +0.000 A 
ATOM      2  N   UNL     1       4.979   3.372  19.012  0.00  0.00    +0.000 NA
ATOM      3  C   UNL     1       3.650   3.060  18.977  0.00  0.00    +0.000 A 
ATOM      4  C   UNL     1       3.047   1.806  18.784  0.00  0.00    +0.000 A 
ATOM      5  C   UNL     1       1.653   1.705  18.792  0.00  0.00    +0.000 A 
ATOM      6  C   UNL     1       0.871   2.838  18.974  0.00  0.00    +0.000 A 
ATOM      7  C   UNL     1       1.456   4.097  19.150  0.00  0.00    +0.000 A 
ATOM      8  C   UNL     1       2.858   4.194  19.165  0.00  0.00    +0.000 A 
ATOM      9  N   UNL     1       3.775   5.223  19.334  0.00  0.00    +0.000 N 
ENDROOT
BRANCH   1  10
ATOM     10  C   UNL     1       6.347   5.435  19.295  0.00  0.00    +0.000 C 
BRANCH  10  11
ATOM     11  O   UNL     1       6.392   6.363  18.207  0.00  0.00    +0.000 OA
BRANCH  11  16
ATOM     12 CL   UNL     1       6.035   3.623  13.005  0.00  0.00    +0.000 Cl
ATOM     13  C   UNL     1       6.138   4.461  14.504  0.00  0.00    +0.000 A 
ATOM     14  C   UNL     1       7.130   4.123  15.422  0.00  0.00    +0.000 A 
ATOM     15  C   UNL     1       7.195   4.797  16.648  0.00  0.00    +0.000 A 
ATOM     16  C   UNL     1       6.281   5.811  16.956  0.00  0.00    +0.000 A 
ATOM     17  C   UNL     1       5.290   6.139  16.027  0.00  0.00    +0.000 A 
ATOM     18  C   UNL     1       5.220   5.465  14.801  0.00  0.00    +0.000 A 
ENDBRANCH  11  16
ENDBRANCH  10  11
ENDBRANCH   1  10
BRANCH   9  19
ATOM     19  C   UNL     1       3.496   6.641  19.535  0.00  0.00    +0.000 C 
BRANCH  19  20
ATOM     20  C   UNL     1       2.782   7.380  18.398  0.00  0.00    +0.000 C 
BRANCH  20  21
ATOM     21  C   UNL     1       1.774   8.388  18.894  0.00  0.00    +0.000 A 
ATOM     22  C   UNL     1       1.193   9.292  17.991  0.00  0.00    +0.000 A 
ATOM     23  C   UNL     1       0.242  10.214  18.425  0.00  0.00    +0.000 A 
ATOM     24  C   UNL     1      -0.132  10.241  19.765  0.00  0.00    +0.000 A 
ATOM     25  C   UNL     1       0.440   9.347  20.671  0.00  0.00    +0.000 A 
ATOM     26  C   UNL     1       1.391   8.423  20.239  0.00  0.00    +0.000 A 
ENDBRANCH  20  21
ENDBRANCH  19  20
ENDBRANCH   9  19
TORSDOF 6
ENDMDL
MODEL 7
REMARK VINA RESULT:      -7.9      2.965      5.410
REMARK  Name = 
REMARK  6 active torsions:
REMARK  status: ('A' for Active; 'I' for Inactive)
REMARK    1  A    between atoms: C_5  and  O_6
REMARK    2  A    between atoms: O_6  and  C_7
REMARK    3  A    between atoms: C_7  and  C_8
REMARK    4  A    between atoms: N_16  and  C_17
REMARK    5  A    between atoms: C_17  and  C_18
REMARK    6  A    between atoms: C_18  and  C_19
REMARK                            x       y       z     vdW  Elec       q    Type
REMARK                         _______ _______ _______ _____ _____    ______ ____
ROOT
ATOM      1  C   UNL     1       5.709   5.917  17.393  0.00  0.00    +0.000 A 
ATOM      2  N   UNL     1       5.121   6.970  16.859  0.00  0.00    +0.000 NA
ATOM      3  C   UNL     1       4.029   7.236  17.636  0.00  0.00    +0.000 A 
ATOM      4  C   UNL     1       3.084   8.265  17.500  0.00  0.00    +0.000 A 
ATOM      5  C   UNL     1       2.025   8.352  18.409  0.00  0.00    +0.000 A 
ATOM      6  C   UNL     1       1.920   7.435  19.447  0.00  0.00    +0.000 A 
ATOM      7  C   UNL     1       2.863   6.414  19.607  0.00  0.00    +0.000 A 
ATOM      8  C   UNL     1       3.913   6.314  18.678  0.00  0.00    +0.000 A 
ATOM      9  N   UNL     1       4.988   5.456  18.492  0.00  0.00    +0.000 N 
ENDROOT
BRANCH   1  10
ATOM     10  C   UNL     1       6.964   5.295  16.839  0.00  0.00    +0.000 C 
BRANCH  10  11
ATOM     11  O   UNL     1       7.178   5.832  15.530  0.00  0.00    +0.000 OA
BRANCH  11  16
ATOM     12 CL   UNL     1       5.358   2.338  11.151  0.00  0.00    +0.000 Cl
ATOM     13  C   UNL     1       5.928   3.341  12.428  0.00  0.00    +0.000 A 
ATOM     14  C   UNL     1       5.213   3.423  13.620  0.00  0.00    +0.000 A 
ATOM     15  C   UNL     1       5.674   4.257  14.646  0.00  0.00    +0.000 A 
ATOM     16  C   UNL     1       6.849   4.999  14.490  0.00  0.00    +0.000 A 
ATOM     17  C   UNL     1       7.556   4.910  13.289  0.00  0.00    +0.000 A 
ATOM     18  C   UNL     1       7.096   4.079  12.259  0.00  0.00    +0.000 A 
ENDBRANCH  11  16
ENDBRANCH  10  11
ENDBRANCH   1  10
BRANCH   9  19
ATOM     19  C   UNL     1       5.373   4.318  19.320  0.00  0.00    +0.000 C 
BRANCH  19  20
ATOM     20  C   UNL     1       4.727   2.966  18.995  0.00  0.00    +0.000 C 
BRANCH  20  21
ATOM     21  C   UNL     1       3.256   2.923  19.329  0.00  0.00    +0.000 A 
ATOM     22  C   UNL     1       2.848   2.936  20.673  0.00  0.00    +0.000 A 
ATOM     23  C   UNL     1       1.495   2.922  21.002  0.00  0.00    +0.000 A 
ATOM     24  C   UNL     1       0.538   2.891  19.992  0.00  0.00    +0.000 A 
ATOM     25  C   UNL     1       0.932   2.876  18.654  0.00  0.00    +0.000 A 
ATOM     26  C   UNL     1       2.287   2.892  18.321  0.00  0.00    +0.000 A 
ENDBRANCH  20  21
ENDBRANCH  19  20
ENDBRANCH   9  19
TORSDOF 6
ENDMDL
MODEL 8
REMARK VINA RESULT:      -7.9      3.035      6.311
REMARK  Name = 
REMARK  6 active torsions:
REMARK  status: ('A' for Active; 'I' for Inactive)
REMARK    1  A    between atoms: C_5  and  O_6
REMARK    2  A    between atoms: O_6  and  C_7
REMARK    3  A    between atoms: C_7  and  C_8
REMARK    4  A    between atoms: N_16  and  C_17
REMARK    5  A    between atoms: C_17  and  C_18
REMARK    6  A    between atoms: C_18  and  C_19
REMARK                            x       y       z     vdW  Elec       q    Type
REMARK                         _______ _______ _______ _____ _____    ______ ____
ROOT
ATOM      1  C   UNL     1       6.591   5.383  15.841  0.00  0.00    +0.000 A 
ATOM      2  N   UNL     1       7.524   5.513  14.916  0.00  0.00    +0.000 NA
ATOM      3  C   UNL     1       7.096   4.796  13.835  0.00  0.00    +0.000 A 
ATOM      4  C   UNL     1       7.721   4.629  12.589  0.00  0.00    +0.000 A 
ATOM      5  C   UNL     1       7.108   3.837  11.613  0.00  0.00    +0.000 A 
ATOM      6  C   UNL     1       5.884   3.234  11.870  0.00  0.00    +0.000 A 
ATOM      7  C   UNL     1       5.239   3.405  13.100  0.00  0.00    +0.000 A 
ATOM      8  C   UNL     1       5.868   4.182  14.089  0.00  0.00    +0.000 A 
ATOM      9  N   UNL     1       5.569   4.548  15.394  0.00  0.00    +0.000 N 
ENDROOT
BRANCH   1  10
ATOM     10  C   UNL     1       6.671   6.028  17.199  0.00  0.00    +0.000 C 
BRANCH  10  11
ATOM     11  O   UNL     1       5.744   7.118  17.222  0.00  0.00    +0.000 OA
BRANCH  11  16
ATOM     12 CL   UNL     1       1.114   6.189  20.743  0.00  0.00    +0.000 Cl
ATOM     13  C   UNL     1       2.442   6.452  19.681  0.00  0.00    +0.000 A 
ATOM     14  C   UNL     1       3.649   5.792  19.899  0.00  0.00    +0.000 A 
ATOM     15  C   UNL     1       4.730   6.027  19.041  0.00  0.00    +0.000 A 
ATOM     16  C   UNL     1       4.608   6.910  17.963  0.00  0.00    +0.000 A 
ATOM     17  C   UNL     1       3.393   7.568  17.756  0.00  0.00    +0.000 A 
ATOM     18  C   UNL     1       2.310   7.338  18.614  0.00  0.00    +0.000 A 
ENDBRANCH  11  16
ENDBRANCH  10  11
ENDBRANCH   1  10
BRANCH   9  19
ATOM     19  C   UNL     1       4.377   4.210  16.164  0.00  0.00    +0.000 C 
BRANCH  19  20
ATOM     20  C   UNL     1       4.464   2.990  17.088  0.00  0.00    +0.000 C 
BRANCH  20  21
ATOM     21  C   UNL     1       3.288   2.878  18.026  0.00  0.00    +0.000 A 
ATOM     22  C   UNL     1       3.466   2.318  19.301  0.00  0.00    +0.000 A 
ATOM     23  C   UNL     1       2.398   2.229  20.191  0.00  0.00    +0.000 A 
ATOM     24  C   UNL     1       1.143   2.694  19.813  0.00  0.00    +0.000 A 
ATOM     25  C   UNL     1       0.953   3.252  18.547  0.00  0.00    +0.000 A 
ATOM     26  C   UNL     1       2.022   3.343  17.654  0.00  0.00    +0.000 A 
ENDBRANCH  20  21
ENDBRANCH  19  20
ENDBRANCH   9  19
TORSDOF 6
ENDMDL
MODEL 9
REMARK VINA RESULT:      -7.9      3.264      6.823
REMARK  Name = 
REMARK  6 active torsions:
REMARK  status: ('A' for Active; 'I' for Inactive)
REMARK    1  A    between atoms: C_5  and  O_6
REMARK    2  A    between atoms: O_6  and  C_7
REMARK    3  A    between atoms: C_7  and  C_8
REMARK    4  A    between atoms: N_16  and  C_17
REMARK    5  A    between atoms: C_17  and  C_18
REMARK    6  A    between atoms: C_18  and  C_19
REMARK                            x       y       z     vdW  Elec       q    Type
REMARK                         _______ _______ _______ _____ _____    ______ ____
ROOT
ATOM      1  C   UNL     1       1.946   6.635  19.877  0.00  0.00    +0.000 A 
ATOM      2  N   UNL     1       1.464   5.650  20.610  0.00  0.00    +0.000 NA
ATOM      3  C   UNL     1       1.698   4.500  19.911  0.00  0.00    +0.000 A 
ATOM      4  C   UNL     1       1.391   3.177  20.267  0.00  0.00    +0.000 A 
ATOM      5  C   UNL     1       1.713   2.136  19.392  0.00  0.00    +0.000 A 
ATOM      6  C   UNL     1       2.347   2.408  18.186  0.00  0.00    +0.000 A 
ATOM      7  C   UNL     1       2.676   3.719  17.824  0.00  0.00    +0.000 A 
ATOM      8  C   UNL     1       2.330   4.767  18.695  0.00  0.00    +0.000 A 
ATOM      9  N   UNL     1       2.458   6.149  18.676  0.00  0.00    +0.000 N 
ENDROOT
BRANCH   1  10
ATOM     10  C   UNL     1       1.895   8.082  20.291  0.00  0.00    +0.000 C 
BRANCH  10  11
ATOM     11  O   UNL     1       1.361   8.140  21.617  0.00  0.00    +0.000 OA
BRANCH  11  16
ATOM     12 CL   UNL     1      -1.946  12.948  22.421  0.00  0.00    +0.000 Cl
ATOM     13  C   UNL     1      -0.965  11.548  22.226  0.00  0.00    +0.000 A 
ATOM     14  C   UNL     1      -0.135  11.430  21.113  0.00  0.00    +0.000 A 
ATOM     15  C   UNL     1       0.645  10.278  20.952  0.00  0.00    +0.000 A 
ATOM     16  C   UNL     1       0.607   9.251  21.901  0.00  0.00    +0.000 A 
ATOM     17  C   UNL     1      -0.231   9.381  23.011  0.00  0.00    +0.000 A 
ATOM     18  C   UNL     1      -1.015  10.530  23.174  0.00  0.00    +0.000 A 
ENDBRANCH  11  16
ENDBRANCH  10  11
ENDBRANCH   1  10
BRANCH   9  19
ATOM     19  C   UNL     1       3.082   6.972  17.645  0.00  0.00    +0.000 C 
BRANCH  19  20
ATOM     20  C   UNL     1       4.592   7.209  17.759  0.00  0.00    +0.000 C 
BRANCH  20  21
ATOM     21  C   UNL     1       5.404   6.214  16.967  0.00  0.00    +0.000 A 
ATOM     22  C   UNL     1       6.402   5.463  17.608  0.00  0.00    +0.000 A 
ATOM     23  C   UNL     1       7.146   4.522  16.900  0.00  0.00    +0.000 A 
ATOM     24  C   UNL     1       6.901   4.326  15.544  0.00  0.00    +0.000 A 
ATOM     25  C   UNL     1       5.912   5.068  14.896  0.00  0.00    +0.000 A 
ATOM     26  C   UNL     1       5.165   6.011  15.604  0.00  0.00    +0.000 A 
ENDBRANCH  20  21
ENDBRANCH  19  20
ENDBRANCH   9  19
TORSDOF 6
ENDMDL
