MODEL 1
REMARK VINA RESULT:      -9.0      0.000      0.000
REMARK  Name = 
REMARK  8 active torsions:
REMARK  status: ('A' for Active; 'I' for Inactive)
REMARK    1  A    between atoms: C_1  and  C_2
REMARK    2  A    between atoms: C_4  and  C_5
REMARK    3  A    between atoms: C_6  and  C_7
REMARK    4  A    between atoms: C_10  and  C_11
REMARK    5  A    between atoms: C_12  and  C_13
REMARK    6  A    between atoms: C_18  and  C_19
REMARK    7  A    between atoms: C_23  and  C_24
REMARK    8  A    between atoms: C_27  and  C_28
REMARK                            x       y       z     vdW  Elec       q    Type
REMARK                         _______ _______ _______ _____ _____    ______ ____
ROOT
ATOM      1  C   UNL     1       0.386  10.433  18.742  0.00  0.00    +0.000 C 
ATOM      2  C   UNL     1       1.190   9.192  19.014  0.00  0.00    +0.000 A 
ATOM      3  C   UNL     1       2.101   8.789  18.024  0.00  0.00    +0.000 A 
ATOM      4  C   UNL     1       2.860   7.611  18.128  0.00  0.00    +0.000 A 
ATOM      5  C   UNL     1       3.778   7.297  16.973  0.00  0.00    +0.000 C 
ATOM      6  C   UNL     1       2.719   6.800  19.272  0.00  0.00    +0.000 A 
ATOM      7  C   UNL     1       1.835   7.230  20.279  0.00  0.00    +0.000 A 
ATOM      8  C   UNL     1       1.058   8.402  20.167  0.00  0.00    +0.000 A 
ENDROOT
BRANCH   6   9
ATOM      9  C   UNL     1       3.435   5.519  19.431  0.00  0.00    +0.000 A 
ATOM     10  N   UNL     1       4.806   5.451  19.485  0.00  0.00    +0.000 N 
ATOM     11  N   UNL     1       5.309   4.220  19.540  0.00  0.00    +0.000 NA
ATOM     12  C   UNL     1       4.233   3.437  19.601  0.00  0.00    +0.000 A 
ATOM     13  C   UNL     1       4.415   1.966  19.696  0.00  0.00    +0.000 C 
ATOM     14  C   UNL     1       3.020   4.190  19.560  0.00  0.00    +0.000 A 
ATOM     15  H   UNL     1       5.468   6.216  19.461  0.00  0.00    +0.000 HD
BRANCH  14  16
ATOM     16  C   UNL     1       1.668   3.572  19.617  0.00  0.00    +0.000 C 
ATOM     17  F   UNL     1       1.664   2.257  19.943  0.00  0.00    +0.000 F 
ATOM     18  F   UNL     1       0.865   4.189  20.521  0.00  0.00    +0.000 F 
ATOM     19  F   UNL     1       1.039   3.667  18.413  0.00  0.00    +0.000 F 
ENDBRANCH  14  16
ENDBRANCH   6   9
BRANCH   8  20
ATOM     20  C   UNL     1       0.052   8.705  21.248  0.00  0.00    +0.000 C 
ATOM     21  O   UNL     1      -0.902   7.962  21.448  0.00  0.00    +0.000 OA
ATOM     22  N   UNL     1       0.308   9.822  22.034  0.00  0.00    +0.000 N 
ATOM     23  C   UNL     1      -0.483  10.249  23.189  0.00  0.00    +0.000 C 
ATOM     24  C   UNL     1      -0.582  11.643  22.546  0.00  0.00    +0.000 C 
ATOM     25  C   UNL     1       0.470  11.186  21.522  0.00  0.00    +0.000 C 
BRANCH  24  26
ATOM     26  C   UNL     1      -1.987  12.152  21.996  0.00  0.00    +0.000 A 
ATOM     27  C   UNL     1      -3.045  12.452  22.880  0.00  0.00    +0.000 A 
ATOM     28  C   UNL     1      -4.300  12.856  22.421  0.00  0.00    +0.000 A 
ATOM     29  C   UNL     1      -4.534  12.979  21.052  0.00  0.00    +0.000 A 
ATOM     30  C   UNL     1      -3.502  12.719  20.150  0.00  0.00    +0.000 A 
ATOM     31  C   UNL     1      -2.251  12.320  20.623  0.00  0.00    +0.000 A 
BRANCH  29  32
ATOM     32  C   UNL     1      -5.823  13.359  20.576  0.00  0.00    +0.000 C 
ATOM     33  N   UNL     1      -6.874  13.669  20.185  0.00  0.00    +0.000 NA
ENDBRANCH  29  32
ENDBRANCH  24  26
ENDBRANCH   8  20
TORSDOF 5
ENDMDL
MODEL 2
REMARK VINA RESULT:      -8.9      2.077      3.123
REMARK  Name = 
REMARK  8 active torsions:
REMARK  status: ('A' for Active; 'I' for Inactive)
REMARK    1  A    between atoms: C_1  and  C_2
REMARK    2  A    between atoms: C_4  and  C_5
REMARK    3  A    between atoms: C_6  and  C_7
REMARK    4  A    between atoms: C_10  and  C_11
REMARK    5  A    between atoms: C_12  and  C_13
REMARK    6  A    between atoms: C_18  and  C_19
REMARK    7  A    between atoms: C_23  and  C_24
REMARK    8  A    between atoms: C_27  and  C_28
REMARK                            x       y       z     vdW  Elec       q    Type
REMARK                         _______ _______ _______ _____ _____    ______ ____
ROOT
ATOM      1  C   UNL     1      -0.201   9.084  21.978  0.00  0.00    +0.000 C 
ATOM      2  C   UNL     1       0.666   8.439  20.933  0.00  0.00    +0.000 A 
ATOM      3  C   UNL     1       1.148   7.149  21.205  0.00  0.00    +0.000 A 
ATOM      4  C   UNL     1       2.022   6.469  20.340  0.00  0.00    +0.000 A 
ATOM      5  C   UNL     1       2.475   5.099  20.780  0.00  0.00    +0.000 C 
ATOM      6  C   UNL     1       2.428   7.091  19.142  0.00  0.00    +0.000 A 
ATOM      7  C   UNL     1       1.910   8.367  18.855  0.00  0.00    +0.000 A 
ATOM      8  C   UNL     1       1.048   9.060  19.732  0.00  0.00    +0.000 A 
ENDROOT
BRANCH   6   9
ATOM      9  C   UNL     1       3.388   6.469  18.210  0.00  0.00    +0.000 A 
ATOM     10  N   UNL     1       4.536   7.110  17.810  0.00  0.00    +0.000 N 
ATOM     11  N   UNL     1       5.258   6.460  16.898  0.00  0.00    +0.000 NA
ATOM     12  C   UNL     1       4.609   5.308  16.739  0.00  0.00    +0.000 A 
ATOM     13  C   UNL     1       5.150   4.301  15.791  0.00  0.00    +0.000 C 
ATOM     14  C   UNL     1       3.435   5.237  17.551  0.00  0.00    +0.000 A 
ATOM     15  H   UNL     1       4.876   8.016  18.103  0.00  0.00    +0.000 HD
BRANCH  14  16
ATOM     16  C   UNL     1       2.524   4.061  17.575  0.00  0.00    +0.000 C 
ATOM     17  F   UNL     1       1.232   4.356  17.856  0.00  0.00    +0.000 F 
ATOM     18  F   UNL     1       2.513   3.404  16.387  0.00  0.00    +0.000 F 
ATOM     19  F   UNL     1       2.921   3.158  18.513  0.00  0.00    +0.000 F 
ENDBRANCH  14  16
ENDBRANCH   6   9
BRANCH   8  20
ATOM     20  C   UNL     1       0.650  10.471  19.384  0.00  0.00    +0.000 C 
ATOM     21  O   UNL     1       1.249  11.430  19.858  0.00  0.00    +0.000 OA
ATOM     22  N   UNL     1      -0.376  10.613  18.458  0.00  0.00    +0.000 N 
ATOM     23  C   UNL     1      -0.860  11.881  17.912  0.00  0.00    +0.000 C 
ATOM     24  C   UNL     1      -2.283  11.456  18.314  0.00  0.00    +0.000 C 
ATOM     25  C   UNL     1      -1.722  10.055  18.608  0.00  0.00    +0.000 C 
BRANCH  24  26
ATOM     26  C   UNL     1      -3.025  12.226  19.493  0.00  0.00    +0.000 A 
ATOM     27  C   UNL     1      -2.302  12.742  20.589  0.00  0.00    +0.000 A 
ATOM     28  C   UNL     1      -2.933  13.381  21.657  0.00  0.00    +0.000 A 
ATOM     29  C   UNL     1      -4.320  13.531  21.658  0.00  0.00    +0.000 A 
ATOM     30  C   UNL     1      -5.064  13.059  20.577  0.00  0.00    +0.000 A 
ATOM     31  C   UNL     1      -4.419  12.425  19.513  0.00  0.00    +0.000 A 
BRANCH  29  32
ATOM     32  C   UNL     1      -4.974  14.153  22.761  0.00  0.00    +0.000 C 
ATOM     33  N   UNL     1      -5.510  14.660  23.661  0.00  0.00    +0.000 NA
ENDBRANCH  29  32
ENDBRANCH  24  26
ENDBRANCH   8  20
TORSDOF 5
ENDMDL
MODEL 3
REMARK VINA RESULT:      -8.9      2.058      3.086
REMARK  Name = 
REMARK  8 active torsions:
REMARK  status: ('A' for Active; 'I' for Inactive)
REMARK    1  A    between atoms: C_1  and  C_2
REMARK    2  A    between atoms: C_4  and  C_5
REMARK    3  A    between atoms: C_6  and  C_7
REMARK    4  A    between atoms: C_10  and  C_11
REMARK    5  A    between atoms: C_12  and  C_13
REMARK    6  A    between atoms: C_18  and  C_19
REMARK    7  A    between atoms: C_23  and  C_24
REMARK    8  A    between atoms: C_27  and  C_28
REMARK                            x       y       z     vdW  Elec       q    Type
REMARK                         _______ _______ _______ _____ _____    ______ ____
ROOT
ATOM      1  C   UNL     1      -0.158   8.950  21.923  0.00  0.00    +0.000 C 
ATOM      2  C   UNL     1       0.718   8.303  20.886  0.00  0.00    +0.000 A 
ATOM      3  C   UNL     1       1.211   7.020  21.174  0.00  0.00    +0.000 A 
ATOM      4  C   UNL     1       2.094   6.339  20.318  0.00  0.00    +0.000 A 
ATOM      5  C   UNL     1       2.558   4.978  20.773  0.00  0.00    +0.000 C 
ATOM      6  C   UNL     1       2.498   6.953  19.114  0.00  0.00    +0.000 A 
ATOM      7  C   UNL     1       1.968   8.221  18.813  0.00  0.00    +0.000 A 
ATOM      8  C   UNL     1       1.098   8.914  19.680  0.00  0.00    +0.000 A 
ENDROOT
BRANCH   6   9
ATOM      9  C   UNL     1       3.467   6.330  18.192  0.00  0.00    +0.000 A 
ATOM     10  N   UNL     1       4.637   6.954  17.834  0.00  0.00    +0.000 N 
ATOM     11  N   UNL     1       5.366   6.308  16.925  0.00  0.00    +0.000 NA
ATOM     12  C   UNL     1       4.696   5.175  16.724  0.00  0.00    +0.000 A 
ATOM     13  C   UNL     1       5.238   4.177  15.767  0.00  0.00    +0.000 C 
ATOM     14  C   UNL     1       3.502   5.112  17.506  0.00  0.00    +0.000 A 
ATOM     15  H   UNL     1       4.990   7.845  18.156  0.00  0.00    +0.000 HD
BRANCH  14  16
ATOM     16  C   UNL     1       2.565   3.957  17.482  0.00  0.00    +0.000 C 
ATOM     17  F   UNL     1       2.564   3.258  16.321  0.00  0.00    +0.000 F 
ATOM     18  F   UNL     1       2.840   3.060  18.463  0.00  0.00    +0.000 F 
ATOM     19  F   UNL     1       1.283   4.367  17.680  0.00  0.00    +0.000 F 
ENDBRANCH  14  16
ENDBRANCH   6   9
BRANCH   8  20
ATOM     20  C   UNL     1       0.688  10.318  19.317  0.00  0.00    +0.000 C 
ATOM     21  O   UNL     1       1.275  11.288  19.783  0.00  0.00    +0.000 OA
ATOM     22  N   UNL     1      -0.335  10.441  18.384  0.00  0.00    +0.000 N 
ATOM     23  C   UNL     1      -0.829  11.699  17.824  0.00  0.00    +0.000 C 
ATOM     24  C   UNL     1      -2.250  11.264  18.224  0.00  0.00    +0.000 C 
ATOM     25  C   UNL     1      -1.677   9.872  18.534  0.00  0.00    +0.000 C 
BRANCH  24  26
ATOM     26  C   UNL     1      -3.005  12.039  19.392  0.00  0.00    +0.000 A 
ATOM     27  C   UNL     1      -4.395  12.267  19.330  0.00  0.00    +0.000 A 
ATOM     28  C   UNL     1      -5.072  12.983  20.318  0.00  0.00    +0.000 A 
ATOM     29  C   UNL     1      -4.373  13.490  21.413  0.00  0.00    +0.000 A 
ATOM     30  C   UNL     1      -3.002  13.259  21.522  0.00  0.00    +0.000 A 
ATOM     31  C   UNL     1      -2.338  12.538  20.528  0.00  0.00    +0.000 A 
BRANCH  29  32
ATOM     32  C   UNL     1      -5.053  14.251  22.409  0.00  0.00    +0.000 C 
ATOM     33  N   UNL     1      -5.608  14.873  23.220  0.00  0.00    +0.000 NA
ENDBRANCH  29  32
ENDBRANCH  24  26
ENDBRANCH   8  20
TORSDOF 5
ENDMDL
MODEL 4
REMARK VINA RESULT:      -8.7      0.514      1.239
REMARK  Name = 
REMARK  8 active torsions:
REMARK  status: ('A' for Active; 'I' for Inactive)
REMARK    1  A    between atoms: C_1  and  C_2
REMARK    2  A    between atoms: C_4  and  C_5
REMARK    3  A    between atoms: C_6  and  C_7
REMARK    4  A    between atoms: C_10  and  C_11
REMARK    5  A    between atoms: C_12  and  C_13
REMARK    6  A    between atoms: C_18  and  C_19
REMARK    7  A    between atoms: C_23  and  C_24
REMARK    8  A    between atoms: C_27  and  C_28
REMARK                            x       y       z     vdW  Elec       q    Type
REMARK                         _______ _______ _______ _____ _____    ______ ____
ROOT
ATOM      1  C   UNL     1       0.610  10.376  18.773  0.00  0.00    +0.000 C 
ATOM      2  C   UNL     1       1.364   9.094  18.991  0.00  0.00    +0.000 A 
ATOM      3  C   UNL     1       2.275   8.708  17.994  0.00  0.00    +0.000 A 
ATOM      4  C   UNL     1       2.988   7.499  18.048  0.00  0.00    +0.000 A 
ATOM      5  C   UNL     1       3.912   7.209  16.891  0.00  0.00    +0.000 C 
ATOM      6  C   UNL     1       2.801   6.636  19.147  0.00  0.00    +0.000 A 
ATOM      7  C   UNL     1       1.918   7.048  20.163  0.00  0.00    +0.000 A 
ATOM      8  C   UNL     1       1.186   8.252  20.101  0.00  0.00    +0.000 A 
ENDROOT
BRANCH   6   9
ATOM      9  C   UNL     1       3.467   5.324  19.249  0.00  0.00    +0.000 A 
ATOM     10  N   UNL     1       4.778   5.199  19.639  0.00  0.00    +0.000 N 
ATOM     11  N   UNL     1       5.265   3.960  19.597  0.00  0.00    +0.000 NA
ATOM     12  C   UNL     1       4.219   3.217  19.239  0.00  0.00    +0.000 A 
ATOM     13  C   UNL     1       4.388   1.748  19.110  0.00  0.00    +0.000 C 
ATOM     14  C   UNL     1       3.048   4.008  19.026  0.00  0.00    +0.000 A 
ATOM     15  H   UNL     1       5.415   5.932  19.923  0.00  0.00    +0.000 HD
BRANCH  14  16
ATOM     16  C   UNL     1       1.734   3.437  18.623  0.00  0.00    +0.000 C 
ATOM     17  F   UNL     1       0.963   4.269  17.882  0.00  0.00    +0.000 F 
ATOM     18  F   UNL     1       1.877   2.302  17.894  0.00  0.00    +0.000 F 
ATOM     19  F   UNL     1       0.994   3.105  19.716  0.00  0.00    +0.000 F 
ENDBRANCH  14  16
ENDBRANCH   6   9
BRANCH   8  20
ATOM     20  C   UNL     1       0.176   8.537  21.183  0.00  0.00    +0.000 C 
ATOM     21  O   UNL     1      -0.792   7.804  21.351  0.00  0.00    +0.000 OA
ATOM     22  N   UNL     1       0.443   9.625  22.006  0.00  0.00    +0.000 N 
ATOM     23  C   UNL     1      -0.351  10.028  23.167  0.00  0.00    +0.000 C 
ATOM     24  C   UNL     1      -0.422  11.443  22.568  0.00  0.00    +0.000 C 
ATOM     25  C   UNL     1       0.631  11.001  21.539  0.00  0.00    +0.000 C 
BRANCH  24  26
ATOM     26  C   UNL     1      -1.814  11.992  22.023  0.00  0.00    +0.000 A 
ATOM     27  C   UNL     1      -2.020  12.200  20.643  0.00  0.00    +0.000 A 
ATOM     28  C   UNL     1      -3.214  12.723  20.145  0.00  0.00    +0.000 A 
ATOM     29  C   UNL     1      -4.251  13.049  21.020  0.00  0.00    +0.000 A 
ATOM     30  C   UNL     1      -4.092  12.829  22.387  0.00  0.00    +0.000 A 
ATOM     31  C   UNL     1      -2.894  12.302  22.872  0.00  0.00    +0.000 A 
BRANCH  29  32
ATOM     32  C   UNL     1      -5.460  13.614  20.520  0.00  0.00    +0.000 C 
ATOM     33  N   UNL     1      -6.449  14.073  20.112  0.00  0.00    +0.000 NA
ENDBRANCH  29  32
ENDBRANCH  24  26
ENDBRANCH   8  20
TORSDOF 5
ENDMDL
MODEL 5
REMARK VINA RESULT:      -8.7      3.995     10.004
REMARK  Name = 
REMARK  8 active torsions:
REMARK  status: ('A' for Active; 'I' for Inactive)
REMARK    1  A    between atoms: C_1  and  C_2
REMARK    2  A    between atoms: C_4  and  C_5
REMARK    3  A    between atoms: C_6  and  C_7
REMARK    4  A    between atoms: C_10  and  C_11
REMARK    5  A    between atoms: C_12  and  C_13
REMARK    6  A    between atoms: C_18  and  C_19
REMARK    7  A    between atoms: C_23  and  C_24
REMARK    8  A    between atoms: C_27  and  C_28
REMARK                            x       y       z     vdW  Elec       q    Type
REMARK                         _______ _______ _______ _____ _____    ______ ____
ROOT
ATOM      1  C   UNL     1      -1.792   9.908  17.220  0.00  0.00    +0.000 C 
ATOM      2  C   UNL     1      -2.500  10.867  18.136  0.00  0.00    +0.000 A 
ATOM      3  C   UNL     1      -3.845  11.155  17.848  0.00  0.00    +0.000 A 
ATOM      4  C   UNL     1      -4.594  12.086  18.587  0.00  0.00    +0.000 A 
ATOM      5  C   UNL     1      -6.019  12.308  18.142  0.00  0.00    +0.000 C 
ATOM      6  C   UNL     1      -3.989  12.754  19.670  0.00  0.00    +0.000 A 
ATOM      7  C   UNL     1      -2.655  12.431  19.979  0.00  0.00    +0.000 A 
ATOM      8  C   UNL     1      -1.894  11.512  19.226  0.00  0.00    +0.000 A 
ENDROOT
BRANCH   6   9
ATOM      9  C   UNL     1      -4.689  13.787  20.457  0.00  0.00    +0.000 A 
ATOM     10  N   UNL     1      -4.343  15.115  20.390  0.00  0.00    +0.000 N 
ATOM     11  N   UNL     1      -5.005  15.915  21.224  0.00  0.00    +0.000 NA
ATOM     12  C   UNL     1      -5.879  15.104  21.819  0.00  0.00    +0.000 A 
ATOM     13  C   UNL     1      -6.819  15.667  22.820  0.00  0.00    +0.000 C 
ATOM     14  C   UNL     1      -5.750  13.754  21.367  0.00  0.00    +0.000 A 
ATOM     15  H   UNL     1      -3.636  15.544  19.807  0.00  0.00    +0.000 HD
BRANCH  14  16
ATOM     16  C   UNL     1      -6.603  12.639  21.860  0.00  0.00    +0.000 C 
ATOM     17  F   UNL     1      -6.548  12.439  23.199  0.00  0.00    +0.000 F 
ATOM     18  F   UNL     1      -7.913  12.832  21.560  0.00  0.00    +0.000 F 
ATOM     19  F   UNL     1      -6.243  11.460  21.284  0.00  0.00    +0.000 F 
ENDBRANCH  14  16
ENDBRANCH   6   9
BRANCH   8  20
ATOM     20  C   UNL     1      -0.437  11.332  19.569  0.00  0.00    +0.000 C 
ATOM     21  O   UNL     1       0.437  11.909  18.933  0.00  0.00    +0.000 OA
ATOM     22  N   UNL     1      -0.157  10.537  20.674  0.00  0.00    +0.000 N 
ATOM     23  C   UNL     1       1.174  10.300  21.235  0.00  0.00    +0.000 C 
ATOM     24  C   UNL     1       0.888   8.790  21.152  0.00  0.00    +0.000 C 
ATOM     25  C   UNL     1      -0.574   9.141  20.828  0.00  0.00    +0.000 C 
BRANCH  24  26
ATOM     26  C   UNL     1       1.691   7.899  20.105  0.00  0.00    +0.000 A 
ATOM     27  C   UNL     1       2.096   6.588  20.431  0.00  0.00    +0.000 A 
ATOM     28  C   UNL     1       2.841   5.803  19.549  0.00  0.00    +0.000 A 
ATOM     29  C   UNL     1       3.199   6.310  18.299  0.00  0.00    +0.000 A 
ATOM     30  C   UNL     1       2.792   7.592  17.933  0.00  0.00    +0.000 A 
ATOM     31  C   UNL     1       2.044   8.364  18.823  0.00  0.00    +0.000 A 
BRANCH  29  32
ATOM     32  C   UNL     1       3.988   5.525  17.407  0.00  0.00    +0.000 C 
ATOM     33  N   UNL     1       4.632   4.888  16.677  0.00  0.00    +0.000 NA
ENDBRANCH  29  32
ENDBRANCH  24  26
ENDBRANCH   8  20
TORSDOF 5
ENDMDL
MODEL 6
REMARK VINA RESULT:      -8.6      3.727      9.820
REMARK  Name = 
REMARK  8 active torsions:
REMARK  status: ('A' for Active; 'I' for Inactive)
REMARK    1  A    between atoms: C_1  and  C_2
REMARK    2  A    between atoms: C_4  and  C_5
REMARK    3  A    between atoms: C_6  and  C_7
REMARK    4  A    between atoms: C_10  and  C_11
REMARK    5  A    between atoms: C_12  and  C_13
REMARK    6  A    between atoms: C_18  and  C_19
REMARK    7  A    between atoms: C_23  and  C_24
REMARK    8  A    between atoms: C_27  and  C_28
REMARK                            x       y       z     vdW  Elec       q    Type
REMARK                         _______ _______ _______ _____ _____    ______ ____
ROOT
ATOM      1  C   UNL     1      -1.837   9.896  17.383  0.00  0.00    +0.000 C 
ATOM      2  C   UNL     1      -2.399  10.872  18.379  0.00  0.00    +0.000 A 
ATOM      3  C   UNL     1      -3.738  11.262  18.210  0.00  0.00    +0.000 A 
ATOM      4  C   UNL     1      -4.357  12.219  19.031  0.00  0.00    +0.000 A 
ATOM      5  C   UNL     1      -5.793  12.553  18.712  0.00  0.00    +0.000 C 
ATOM      6  C   UNL     1      -3.620  12.809  20.078  0.00  0.00    +0.000 A 
ATOM      7  C   UNL     1      -2.292  12.385  20.268  0.00  0.00    +0.000 A 
ATOM      8  C   UNL     1      -1.662  11.438  19.431  0.00  0.00    +0.000 A 
ENDROOT
BRANCH   6   9
ATOM      9  C   UNL     1      -4.178  13.863  20.947  0.00  0.00    +0.000 A 
ATOM     10  N   UNL     1      -4.622  15.063  20.445  0.00  0.00    +0.000 N 
ATOM     11  N   UNL     1      -5.015  15.947  21.360  0.00  0.00    +0.000 NA
ATOM     12  C   UNL     1      -4.902  15.287  22.512  0.00  0.00    +0.000 A 
ATOM     13  C   UNL     1      -5.282  15.970  23.775  0.00  0.00    +0.000 C 
ATOM     14  C   UNL     1      -4.402  13.962  22.324  0.00  0.00    +0.000 A 
ATOM     15  H   UNL     1      -4.658  15.357  19.478  0.00  0.00    +0.000 HD
BRANCH  14  16
ATOM     16  C   UNL     1      -4.181  13.002  23.439  0.00  0.00    +0.000 C 
ATOM     17  F   UNL     1      -3.491  11.888  23.094  0.00  0.00    +0.000 F 
ATOM     18  F   UNL     1      -3.497  13.568  24.466  0.00  0.00    +0.000 F 
ATOM     19  F   UNL     1      -5.366  12.573  23.952  0.00  0.00    +0.000 F 
ENDBRANCH  14  16
ENDBRANCH   6   9
BRANCH   8  20
ATOM     20  C   UNL     1      -0.199  11.147  19.648  0.00  0.00    +0.000 C 
ATOM     21  O   UNL     1       0.651  11.583  18.881  0.00  0.00    +0.000 OA
ATOM     22  N   UNL     1       0.124  10.423  20.790  0.00  0.00    +0.000 N 
ATOM     23  C   UNL     1       1.479  10.105  21.240  0.00  0.00    +0.000 C 
ATOM     24  C   UNL     1       1.053   8.629  21.325  0.00  0.00    +0.000 C 
ATOM     25  C   UNL     1      -0.397   9.092  21.111  0.00  0.00    +0.000 C 
BRANCH  24  26
ATOM     26  C   UNL     1       1.662   7.581  20.293  0.00  0.00    +0.000 A 
ATOM     27  C   UNL     1       1.782   6.217  20.631  0.00  0.00    +0.000 A 
ATOM     28  C   UNL     1       2.353   5.286  19.762  0.00  0.00    +0.000 A 
ATOM     29  C   UNL     1       2.820   5.695  18.513  0.00  0.00    +0.000 A 
ATOM     30  C   UNL     1       2.692   7.031  18.133  0.00  0.00    +0.000 A 
ATOM     31  C   UNL     1       2.115   7.950  19.011  0.00  0.00    +0.000 A 
BRANCH  29  32
ATOM     32  C   UNL     1       3.435   4.755  17.634  0.00  0.00    +0.000 C 
ATOM     33  N   UNL     1       3.938   3.991  16.916  0.00  0.00    +0.000 NA
ENDBRANCH  29  32
ENDBRANCH  24  26
ENDBRANCH   8  20
TORSDOF 5
ENDMDL
MODEL 7
REMARK VINA RESULT:      -8.4      3.961     10.133
REMARK  Name = 
REMARK  8 active torsions:
REMARK  status: ('A' for Active; 'I' for Inactive)
REMARK    1  A    between atoms: C_1  and  C_2
REMARK    2  A    between atoms: C_4  and  C_5
REMARK    3  A    between atoms: C_6  and  C_7
REMARK    4  A    between atoms: C_10  and  C_11
REMARK    5  A    between atoms: C_12  and  C_13
REMARK    6  A    between atoms: C_18  and  C_19
REMARK    7  A    between atoms: C_23  and  C_24
REMARK    8  A    between atoms: C_27  and  C_28
REMARK                            x       y       z     vdW  Elec       q    Type
REMARK                         _______ _______ _______ _____ _____    ______ ____
ROOT
ATOM      1  C   UNL     1      -3.195  10.054  17.110  0.00  0.00    +0.000 C 
ATOM      2  C   UNL     1      -3.751  10.988  18.149  0.00  0.00    +0.000 A 
ATOM      3  C   UNL     1      -5.148  11.048  18.276  0.00  0.00    +0.000 A 
ATOM      4  C   UNL     1      -5.790  11.931  19.160  0.00  0.00    +0.000 A 
ATOM      5  C   UNL     1      -7.298  11.898  19.168  0.00  0.00    +0.000 C 
ATOM      6  C   UNL     1      -5.012  12.788  19.965  0.00  0.00    +0.000 A 
ATOM      7  C   UNL     1      -3.612  12.695  19.862  0.00  0.00    +0.000 A 
ATOM      8  C   UNL     1      -2.966  11.823  18.961  0.00  0.00    +0.000 A 
ENDROOT
BRANCH   6   9
ATOM      9  C   UNL     1      -5.610  13.784  20.874  0.00  0.00    +0.000 A 
ATOM     10  N   UNL     1      -6.408  14.804  20.416  0.00  0.00    +0.000 N 
ATOM     11  N   UNL     1      -6.801  15.675  21.344  0.00  0.00    +0.000 NA
ATOM     12  C   UNL     1      -6.311  15.177  22.478  0.00  0.00    +0.000 A 
ATOM     13  C   UNL     1      -6.575  15.891  23.753  0.00  0.00    +0.000 C 
ATOM     14  C   UNL     1      -5.569  13.976  22.259  0.00  0.00    +0.000 A 
ATOM     15  H   UNL     1      -6.705  14.982  19.465  0.00  0.00    +0.000 HD
BRANCH  14  16
ATOM     16  C   UNL     1      -4.915  13.205  23.351  0.00  0.00    +0.000 C 
ATOM     17  F   UNL     1      -4.124  12.190  22.927  0.00  0.00    +0.000 F 
ATOM     18  F   UNL     1      -4.133  13.994  24.130  0.00  0.00    +0.000 F 
ATOM     19  F   UNL     1      -5.843  12.646  24.175  0.00  0.00    +0.000 F 
ENDBRANCH  14  16
ENDBRANCH   6   9
BRANCH   8  20
ATOM     20  C   UNL     1      -1.465  11.892  18.844  0.00  0.00    +0.000 C 
ATOM     21  O   UNL     1      -0.927  12.187  17.783  0.00  0.00    +0.000 OA
ATOM     22  N   UNL     1      -0.743  11.669  20.011  0.00  0.00    +0.000 N 
ATOM     23  C   UNL     1       0.710  11.773  20.146  0.00  0.00    +0.000 C 
ATOM     24  C   UNL     1       0.707  10.362  20.759  0.00  0.00    +0.000 C 
ATOM     25  C   UNL     1      -0.827  10.454  20.827  0.00  0.00    +0.000 C 
BRANCH  24  26
ATOM     26  C   UNL     1       1.346   9.154  19.942  0.00  0.00    +0.000 A 
ATOM     27  C   UNL     1       1.663   7.936  20.579  0.00  0.00    +0.000 A 
ATOM     28  C   UNL     1       2.266   6.879  19.896  0.00  0.00    +0.000 A 
ATOM     29  C   UNL     1       2.566   7.007  18.540  0.00  0.00    +0.000 A 
ATOM     30  C   UNL     1       2.241   8.187  17.871  0.00  0.00    +0.000 A 
ATOM     31  C   UNL     1       1.634   9.235  18.566  0.00  0.00    +0.000 A 
BRANCH  29  32
ATOM     32  C   UNL     1       3.212   5.943  17.845  0.00  0.00    +0.000 C 
ATOM     33  N   UNL     1       3.740   5.077  17.275  0.00  0.00    +0.000 NA
ENDBRANCH  29  32
ENDBRANCH  24  26
ENDBRANCH   8  20
TORSDOF 5
ENDMDL
MODEL 8
REMARK VINA RESULT:      -8.4      4.049      9.960
REMARK  Name = 
REMARK  8 active torsions:
REMARK  status: ('A' for Active; 'I' for Inactive)
REMARK    1  A    between atoms: C_1  and  C_2
REMARK    2  A    between atoms: C_4  and  C_5
REMARK    3  A    between atoms: C_6  and  C_7
REMARK    4  A    between atoms: C_10  and  C_11
REMARK    5  A    between atoms: C_12  and  C_13
REMARK    6  A    between atoms: C_18  and  C_19
REMARK    7  A    between atoms: C_23  and  C_24
REMARK    8  A    between atoms: C_27  and  C_28
REMARK                            x       y       z     vdW  Elec       q    Type
REMARK                         _______ _______ _______ _____ _____    ______ ____
ROOT
ATOM      1  C   UNL     1      -1.727   9.845  17.481  0.00  0.00    +0.000 C 
ATOM      2  C   UNL     1      -2.360  10.861  18.391  0.00  0.00    +0.000 A 
ATOM      3  C   UNL     1      -3.676  11.254  18.098  0.00  0.00    +0.000 A 
ATOM      4  C   UNL     1      -4.351  12.244  18.830  0.00  0.00    +0.000 A 
ATOM      5  C   UNL     1      -5.752  12.577  18.381  0.00  0.00    +0.000 C 
ATOM      6  C   UNL     1      -3.697  12.867  19.913  0.00  0.00    +0.000 A 
ATOM      7  C   UNL     1      -2.394  12.440  20.227  0.00  0.00    +0.000 A 
ATOM      8  C   UNL     1      -1.707  11.460  19.480  0.00  0.00    +0.000 A 
ENDROOT
BRANCH   6   9
ATOM      9  C   UNL     1      -4.315  13.956  20.694  0.00  0.00    +0.000 A 
ATOM     10  N   UNL     1      -3.996  15.276  20.484  0.00  0.00    +0.000 N 
ATOM     11  N   UNL     1      -4.567  16.136  21.326  0.00  0.00    +0.000 NA
ATOM     12  C   UNL     1      -5.356  15.370  22.078  0.00  0.00    +0.000 A 
ATOM     13  C   UNL     1      -6.183  16.006  23.135  0.00  0.00    +0.000 C 
ATOM     14  C   UNL     1      -5.264  13.990  21.720  0.00  0.00    +0.000 A 
ATOM     15  H   UNL     1      -3.367  15.661  19.792  0.00  0.00    +0.000 HD
BRANCH  14  16
ATOM     16  C   UNL     1      -6.040  12.914  22.394  0.00  0.00    +0.000 C 
ATOM     17  F   UNL     1      -7.247  13.305  22.871  0.00  0.00    +0.000 F 
ATOM     18  F   UNL     1      -6.282  11.868  21.564  0.00  0.00    +0.000 F 
ATOM     19  F   UNL     1      -5.354  12.414  23.458  0.00  0.00    +0.000 F 
ENDBRANCH  14  16
ENDBRANCH   6   9
BRANCH   8  20
ATOM     20  C   UNL     1      -0.270  11.166  19.828  0.00  0.00    +0.000 C 
ATOM     21  O   UNL     1       0.649  11.648  19.174  0.00  0.00    +0.000 OA
ATOM     22  N   UNL     1      -0.055  10.384  20.956  0.00  0.00    +0.000 N 
ATOM     23  C   UNL     1       1.252  10.051  21.524  0.00  0.00    +0.000 C 
ATOM     24  C   UNL     1       0.837   8.569  21.487  0.00  0.00    +0.000 C 
ATOM     25  C   UNL     1      -0.590   9.034  21.153  0.00  0.00    +0.000 C 
BRANCH  24  26
ATOM     26  C   UNL     1       1.559   7.582  20.468  0.00  0.00    +0.000 A 
ATOM     27  C   UNL     1       2.033   8.046  19.223  0.00  0.00    +0.000 A 
ATOM     28  C   UNL     1       2.628   7.191  18.293  0.00  0.00    +0.000 A 
ATOM     29  C   UNL     1       2.774   5.836  18.587  0.00  0.00    +0.000 A 
ATOM     30  C   UNL     1       2.342   5.348  19.820  0.00  0.00    +0.000 A 
ATOM     31  C   UNL     1       1.753   6.214  20.742  0.00  0.00    +0.000 A 
BRANCH  29  32
ATOM     32  C   UNL     1       3.351   4.952  17.628  0.00  0.00    +0.000 C 
ATOM     33  N   UNL     1       3.824   4.232  16.847  0.00  0.00    +0.000 NA
ENDBRANCH  29  32
ENDBRANCH  24  26
ENDBRANCH   8  20
TORSDOF 5
ENDMDL
MODEL 9
REMARK VINA RESULT:      -8.3      2.816      3.345
REMARK  Name = 
REMARK  8 active torsions:
REMARK  status: ('A' for Active; 'I' for Inactive)
REMARK    1  A    between atoms: C_1  and  C_2
REMARK    2  A    between atoms: C_4  and  C_5
REMARK    3  A    between atoms: C_6  and  C_7
REMARK    4  A    between atoms: C_10  and  C_11
REMARK    5  A    between atoms: C_12  and  C_13
REMARK    6  A    between atoms: C_18  and  C_19
REMARK    7  A    between atoms: C_23  and  C_24
REMARK    8  A    between atoms: C_27  and  C_28
REMARK                            x       y       z     vdW  Elec       q    Type
REMARK                         _______ _______ _______ _____ _____    ______ ____
ROOT
ATOM      1  C   UNL     1       1.850  10.936  17.567  0.00  0.00    +0.000 C 
ATOM      2  C   UNL     1       1.914   9.609  18.271  0.00  0.00    +0.000 A 
ATOM      3  C   UNL     1       2.874   8.688  17.818  0.00  0.00    +0.000 A 
ATOM      4  C   UNL     1       2.987   7.391  18.347  0.00  0.00    +0.000 A 
ATOM      5  C   UNL     1       4.049   6.507  17.741  0.00  0.00    +0.000 C 
ATOM      6  C   UNL     1       2.117   6.990  19.381  0.00  0.00    +0.000 A 
ATOM      7  C   UNL     1       1.186   7.930  19.859  0.00  0.00    +0.000 A 
ATOM      8  C   UNL     1       1.057   9.227  19.315  0.00  0.00    +0.000 A 
ENDROOT
BRANCH   6   9
ATOM      9  C   UNL     1       2.132   5.629  19.948  0.00  0.00    +0.000 A 
ATOM     10  N   UNL     1       2.436   5.390  21.267  0.00  0.00    +0.000 N 
ATOM     11  N   UNL     1       2.497   4.105  21.610  0.00  0.00    +0.000 NA
ATOM     12  C   UNL     1       2.146   3.460  20.498  0.00  0.00    +0.000 A 
ATOM     13  C   UNL     1       2.081   1.977  20.514  0.00  0.00    +0.000 C 
ATOM     14  C   UNL     1       1.881   4.359  19.419  0.00  0.00    +0.000 A 
ATOM     15  H   UNL     1       2.642   6.068  21.989  0.00  0.00    +0.000 HD
BRANCH  14  16
ATOM     16  C   UNL     1       1.465   3.911  18.062  0.00  0.00    +0.000 C 
ATOM     17  F   UNL     1       0.983   4.897  17.268  0.00  0.00    +0.000 F 
ATOM     18  F   UNL     1       2.490   3.342  17.380  0.00  0.00    +0.000 F 
ATOM     19  F   UNL     1       0.483   2.972  18.141  0.00  0.00    +0.000 F 
ENDBRANCH  14  16
ENDBRANCH   6   9
BRANCH   8  20
ATOM     20  C   UNL     1      -0.056  10.110  19.818  0.00  0.00    +0.000 C 
ATOM     21  O   UNL     1      -1.160  10.099  19.286  0.00  0.00    +0.000 OA
ATOM     22  N   UNL     1       0.224  10.875  20.944  0.00  0.00    +0.000 N 
ATOM     23  C   UNL     1      -0.731  11.731  21.649  0.00  0.00    +0.000 C 
ATOM     24  C   UNL     1       0.284  12.881  21.529  0.00  0.00    +0.000 C 
ATOM     25  C   UNL     1       1.315  11.848  21.045  0.00  0.00    +0.000 C 
BRANCH  24  26
ATOM     26  C   UNL     1      -0.041  14.114  20.575  0.00  0.00    +0.000 A 
ATOM     27  C   UNL     1       0.558  14.223  19.303  0.00  0.00    +0.000 A 
ATOM     28  C   UNL     1       0.325  15.316  18.467  0.00  0.00    +0.000 A 
ATOM     29  C   UNL     1      -0.530  16.338  18.880  0.00  0.00    +0.000 A 
ATOM     30  C   UNL     1      -1.162  16.249  20.119  0.00  0.00    +0.000 A 
ATOM     31  C   UNL     1      -0.923  15.148  20.944  0.00  0.00    +0.000 A 
BRANCH  29  32
ATOM     32  C   UNL     1      -0.746  17.473  18.044  0.00  0.00    +0.000 C 
ATOM     33  N   UNL     1      -0.926  18.399  17.363  0.00  0.00    +0.000 NA
ENDBRANCH  29  32
ENDBRANCH  24  26
ENDBRANCH   8  20
TORSDOF 5
ENDMDL
