MODEL 1
REMARK VINA RESULT:      -8.4      0.000      0.000
REMARK  Name = 
REMARK  3 active torsions:
REMARK  status: ('A' for Active; 'I' for Inactive)
REMARK    1  A    between atoms: C_2  and  C_3
REMARK    2  A    between atoms: C_3  and  N_4
REMARK    3  A    between atoms: C_5  and  C_7
REMARK                            x       y       z     vdW  Elec       q    Type
REMARK                         _______ _______ _______ _____ _____    ______ ____
ROOT
ATOM      1  C   UNL     1       5.287   5.340  16.011  0.00  0.00    +0.000 C 
ATOM      2  C   UNL     1       6.406   6.073  16.769  0.00  0.00    +0.000 C 
ATOM      3  O   UNL     1       7.469   6.488  16.340  0.00  0.00    +0.000 OA
ATOM      4  N   UNL     1       5.970   6.267  18.076  0.00  0.00    +0.000 N 
ATOM      5  C   UNL     1       4.774   5.621  18.299  0.00  0.00    +0.000 A 
ATOM      6  N   UNL     1       4.119   5.559  19.458  0.00  0.00    +0.000 NA
ATOM      7  C   UNL     1       3.033   4.753  19.441  0.00  0.00    +0.000 A 
ATOM      8  C   UNL     1       2.281   4.594  20.598  0.00  0.00    +0.000 A 
ATOM      9  C   UNL     1       1.212   3.699  20.653  0.00  0.00    +0.000 A 
ATOM     10  C   UNL     1       0.878   2.950  19.530  0.00  0.00    +0.000 A 
ATOM     11  C   UNL     1       1.586   3.133  18.344  0.00  0.00    +0.000 A 
ATOM     12  C   UNL     1       2.642   4.026  18.265  0.00  0.00    +0.000 A 
ATOM     13  N   UNL     1       3.289   4.169  17.090  0.00  0.00    +0.000 NA
ATOM     14  C   UNL     1       4.365   4.975  17.148  0.00  0.00    +0.000 A 
ATOM     15  H   UNL     1       6.500   6.737  18.792  0.00  0.00    +0.000 HD
ENDROOT
BRANCH   1  17
ATOM     16  N   UNL     1       5.652   4.458  13.756  0.00  0.00    +0.000 N 
ATOM     17  C   UNL     1       5.709   4.201  15.113  0.00  0.00    +0.000 C 
ATOM     18  O   UNL     1       6.199   3.162  15.550  0.00  0.00    +0.000 OA
ATOM     19  H   UNL     1       5.179   5.300  13.433  0.00  0.00    +0.000 HD
BRANCH  16  20
ATOM     20  C   UNL     1       6.281   3.609  12.774  0.00  0.00    +0.000 C 
BRANCH  20  22
ATOM     21  C   UNL     1       4.216   3.423  11.365  0.00  0.00    +0.000 C 
ATOM     22  C   UNL     1       5.226   2.853  12.036  0.00  0.00    +0.000 C 
ENDBRANCH  20  22
ENDBRANCH  16  20
ENDBRANCH   1  17
TORSDOF 3
ENDMDL
MODEL 2
REMARK VINA RESULT:      -8.3      2.282      4.613
REMARK  Name = 
REMARK  3 active torsions:
REMARK  status: ('A' for Active; 'I' for Inactive)
REMARK    1  A    between atoms: C_2  and  C_3
REMARK    2  A    between atoms: C_3  and  N_4
REMARK    3  A    between atoms: C_5  and  C_7
REMARK                            x       y       z     vdW  Elec       q    Type
REMARK                         _______ _______ _______ _____ _____    ______ ____
ROOT
ATOM      1  C   UNL     1       6.549   5.355  17.608  0.00  0.00    +0.000 C 
ATOM      2  C   UNL     1       6.749   4.490  16.353  0.00  0.00    +0.000 C 
ATOM      3  O   UNL     1       7.612   4.580  15.497  0.00  0.00    +0.000 OA
ATOM      4  N   UNL     1       5.787   3.485  16.378  0.00  0.00    +0.000 N 
ATOM      5  C   UNL     1       4.896   3.680  17.410  0.00  0.00    +0.000 A 
ATOM      6  N   UNL     1       3.825   2.933  17.675  0.00  0.00    +0.000 NA
ATOM      7  C   UNL     1       3.042   3.414  18.668  0.00  0.00    +0.000 A 
ATOM      8  C   UNL     1       1.886   2.730  19.020  0.00  0.00    +0.000 A 
ATOM      9  C   UNL     1       0.999   3.240  19.970  0.00  0.00    +0.000 A 
ATOM     10  C   UNL     1       1.273   4.454  20.589  0.00  0.00    +0.000 A 
ATOM     11  C   UNL     1       2.455   5.130  20.289  0.00  0.00    +0.000 A 
ATOM     12  C   UNL     1       3.352   4.635  19.360  0.00  0.00    +0.000 A 
ATOM     13  N   UNL     1       4.484   5.326  19.112  0.00  0.00    +0.000 NA
ATOM     14  C   UNL     1       5.234   4.819  18.116  0.00  0.00    +0.000 A 
ATOM     15  H   UNL     1       5.694   2.764  15.681  0.00  0.00    +0.000 HD
ENDROOT
BRANCH   1  17
ATOM     16  N   UNL     1       7.700   7.477  18.018  0.00  0.00    +0.000 N 
ATOM     17  C   UNL     1       6.622   6.852  17.419  0.00  0.00    +0.000 C 
ATOM     18  O   UNL     1       5.859   7.461  16.673  0.00  0.00    +0.000 OA
ATOM     19  H   UNL     1       8.269   6.953  18.681  0.00  0.00    +0.000 HD
BRANCH  16  20
ATOM     20  C   UNL     1       8.088   8.831  17.708  0.00  0.00    +0.000 C 
BRANCH  20  22
ATOM     21  C   UNL     1       9.374  10.628  18.892  0.00  0.00    +0.000 C 
ATOM     22  C   UNL     1       8.863   9.391  18.855  0.00  0.00    +0.000 C 
ENDBRANCH  20  22
ENDBRANCH  16  20
ENDBRANCH   1  17
TORSDOF 3
ENDMDL
MODEL 3
REMARK VINA RESULT:      -8.3      2.206      4.368
REMARK  Name = 
REMARK  3 active torsions:
REMARK  status: ('A' for Active; 'I' for Inactive)
REMARK    1  A    between atoms: C_2  and  C_3
REMARK    2  A    between atoms: C_3  and  N_4
REMARK    3  A    between atoms: C_5  and  C_7
REMARK                            x       y       z     vdW  Elec       q    Type
REMARK                         _______ _______ _______ _____ _____    ______ ____
ROOT
ATOM      1  C   UNL     1       6.854   4.447  17.438  0.00  0.00    +0.000 C 
ATOM      2  C   UNL     1       6.588   4.902  15.993  0.00  0.00    +0.000 C 
ATOM      3  O   UNL     1       7.377   5.355  15.182  0.00  0.00    +0.000 OA
ATOM      4  N   UNL     1       5.253   4.638  15.709  0.00  0.00    +0.000 N 
ATOM      5  C   UNL     1       4.583   4.210  16.834  0.00  0.00    +0.000 A 
ATOM      6  N   UNL     1       3.283   3.930  16.917  0.00  0.00    +0.000 NA
ATOM      7  C   UNL     1       2.851   3.653  18.168  0.00  0.00    +0.000 A 
ATOM      8  C   UNL     1       1.509   3.366  18.380  0.00  0.00    +0.000 A 
ATOM      9  C   UNL     1       1.001   3.171  19.666  0.00  0.00    +0.000 A 
ATOM     10  C   UNL     1       1.849   3.255  20.764  0.00  0.00    +0.000 A 
ATOM     11  C   UNL     1       3.210   3.490  20.569  0.00  0.00    +0.000 A 
ATOM     12  C   UNL     1       3.734   3.674  19.301  0.00  0.00    +0.000 A 
ATOM     13  N   UNL     1       5.059   3.891  19.168  0.00  0.00    +0.000 NA
ATOM     14  C   UNL     1       5.450   4.167  17.910  0.00  0.00    +0.000 A 
ATOM     15  H   UNL     1       4.808   4.824  14.825  0.00  0.00    +0.000 HD
ENDROOT
BRANCH   1  17
ATOM     16  N   UNL     1       7.761   6.683  17.854  0.00  0.00    +0.000 N 
ATOM     17  C   UNL     1       7.667   5.379  18.304  0.00  0.00    +0.000 C 
ATOM     18  O   UNL     1       8.104   5.046  19.403  0.00  0.00    +0.000 OA
ATOM     19  H   UNL     1       7.447   6.903  16.910  0.00  0.00    +0.000 HD
BRANCH  16  20
ATOM     20  C   UNL     1       8.241   7.762  18.682  0.00  0.00    +0.000 C 
BRANCH  20  22
ATOM     21  C   UNL     1       8.816  10.165  18.253  0.00  0.00    +0.000 C 
ATOM     22  C   UNL     1       8.186   9.035  17.903  0.00  0.00    +0.000 C 
ENDBRANCH  20  22
ENDBRANCH  16  20
ENDBRANCH   1  17
TORSDOF 3
ENDMDL
MODEL 4
REMARK VINA RESULT:      -8.2      1.640      1.894
REMARK  Name = 
REMARK  3 active torsions:
REMARK  status: ('A' for Active; 'I' for Inactive)
REMARK    1  A    between atoms: C_2  and  C_3
REMARK    2  A    between atoms: C_3  and  N_4
REMARK    3  A    between atoms: C_5  and  C_7
REMARK                            x       y       z     vdW  Elec       q    Type
REMARK                         _______ _______ _______ _____ _____    ______ ____
ROOT
ATOM      1  C   UNL     1       5.834   6.294  17.465  0.00  0.00    +0.000 C 
ATOM      2  C   UNL     1       7.082   6.004  18.314  0.00  0.00    +0.000 C 
ATOM      3  O   UNL     1       8.207   6.457  18.192  0.00  0.00    +0.000 OA
ATOM      4  N   UNL     1       6.699   5.154  19.347  0.00  0.00    +0.000 N 
ATOM      5  C   UNL     1       5.396   4.738  19.187  0.00  0.00    +0.000 A 
ATOM      6  N   UNL     1       4.744   3.876  19.967  0.00  0.00    +0.000 NA
ATOM      7  C   UNL     1       3.515   3.537  19.517  0.00  0.00    +0.000 A 
ATOM      8  C   UNL     1       2.749   2.630  20.238  0.00  0.00    +0.000 A 
ATOM      9  C   UNL     1       1.517   2.178  19.761  0.00  0.00    +0.000 A 
ATOM     10  C   UNL     1       1.034   2.644  18.544  0.00  0.00    +0.000 A 
ATOM     11  C   UNL     1       1.762   3.595  17.831  0.00  0.00    +0.000 A 
ATOM     12  C   UNL     1       2.979   4.065  18.293  0.00  0.00    +0.000 A 
ATOM     13  N   UNL     1       3.639   4.990  17.566  0.00  0.00    +0.000 NA
ATOM     14  C   UNL     1       4.859   5.299  18.043  0.00  0.00    +0.000 A 
ATOM     15  H   UNL     1       7.317   4.811  20.065  0.00  0.00    +0.000 HD
ENDROOT
BRANCH   1  17
ATOM     16  N   UNL     1       7.022   5.430  15.506  0.00  0.00    +0.000 N 
ATOM     17  C   UNL     1       6.009   6.250  15.965  0.00  0.00    +0.000 C 
ATOM     18  O   UNL     1       5.223   6.794  15.193  0.00  0.00    +0.000 OA
ATOM     19  H   UNL     1       7.692   5.051  16.174  0.00  0.00    +0.000 HD
BRANCH  16  20
ATOM     20  C   UNL     1       7.146   5.042  14.122  0.00  0.00    +0.000 C 
BRANCH  20  22
ATOM     21  C   UNL     1       5.932   3.431  12.633  0.00  0.00    +0.000 C 
ATOM     22  C   UNL     1       6.230   3.893  13.854  0.00  0.00    +0.000 C 
ENDBRANCH  20  22
ENDBRANCH  16  20
ENDBRANCH   1  17
TORSDOF 3
ENDMDL
MODEL 5
REMARK VINA RESULT:      -8.1      1.052      1.077
REMARK  Name = 
REMARK  3 active torsions:
REMARK  status: ('A' for Active; 'I' for Inactive)
REMARK    1  A    between atoms: C_2  and  C_3
REMARK    2  A    between atoms: C_3  and  N_4
REMARK    3  A    between atoms: C_5  and  C_7
REMARK                            x       y       z     vdW  Elec       q    Type
REMARK                         _______ _______ _______ _____ _____    ______ ____
ROOT
ATOM      1  C   UNL     1       5.858   5.859  16.116  0.00  0.00    +0.000 C 
ATOM      2  C   UNL     1       6.840   6.521  17.096  0.00  0.00    +0.000 C 
ATOM      3  O   UNL     1       7.845   7.165  16.846  0.00  0.00    +0.000 OA
ATOM      4  N   UNL     1       6.347   6.326  18.382  0.00  0.00    +0.000 N 
ATOM      5  C   UNL     1       5.249   5.493  18.369  0.00  0.00    +0.000 A 
ATOM      6  N   UNL     1       4.578   5.060  19.436  0.00  0.00    +0.000 NA
ATOM      7  C   UNL     1       3.619   4.148  19.158  0.00  0.00    +0.000 A 
ATOM      8  C   UNL     1       2.866   3.610  20.194  0.00  0.00    +0.000 A 
ATOM      9  C   UNL     1       1.934   2.597  19.965  0.00  0.00    +0.000 A 
ATOM     10  C   UNL     1       1.740   2.114  18.676  0.00  0.00    +0.000 A 
ATOM     11  C   UNL     1       2.447   2.677  17.615  0.00  0.00    +0.000 A 
ATOM     12  C   UNL     1       3.366   3.691  17.819  0.00  0.00    +0.000 A 
ATOM     13  N   UNL     1       4.018   4.205  16.756  0.00  0.00    +0.000 NA
ATOM     14  C   UNL     1       4.967   5.106  17.072  0.00  0.00    +0.000 A 
ATOM     15  H   UNL     1       6.786   6.667  19.222  0.00  0.00    +0.000 HD
ENDROOT
BRANCH   1  17
ATOM     16  N   UNL     1       5.581   4.226  14.312  0.00  0.00    +0.000 N 
ATOM     17  C   UNL     1       6.461   5.044  14.997  0.00  0.00    +0.000 C 
ATOM     18  O   UNL     1       7.622   5.193  14.623  0.00  0.00    +0.000 OA
ATOM     19  H   UNL     1       4.647   4.079  14.692  0.00  0.00    +0.000 HD
BRANCH  16  20
ATOM     20  C   UNL     1       5.909   3.609  13.051  0.00  0.00    +0.000 C 
BRANCH  20  22
ATOM     21  C   UNL     1       4.511   2.802  11.133  0.00  0.00    +0.000 C 
ATOM     22  C   UNL     1       4.702   3.626  12.171  0.00  0.00    +0.000 C 
ENDBRANCH  20  22
ENDBRANCH  16  20
ENDBRANCH   1  17
TORSDOF 3
ENDMDL
MODEL 6
REMARK VINA RESULT:      -7.9      0.618      1.106
REMARK  Name = 
REMARK  3 active torsions:
REMARK  status: ('A' for Active; 'I' for Inactive)
REMARK    1  A    between atoms: C_2  and  C_3
REMARK    2  A    between atoms: C_3  and  N_4
REMARK    3  A    between atoms: C_5  and  C_7
REMARK                            x       y       z     vdW  Elec       q    Type
REMARK                         _______ _______ _______ _____ _____    ______ ____
ROOT
ATOM      1  C   UNL     1       5.252   5.312  16.082  0.00  0.00    +0.000 C 
ATOM      2  C   UNL     1       6.399   6.021  16.820  0.00  0.00    +0.000 C 
ATOM      3  O   UNL     1       7.463   6.414  16.373  0.00  0.00    +0.000 OA
ATOM      4  N   UNL     1       5.991   6.225  18.134  0.00  0.00    +0.000 N 
ATOM      5  C   UNL     1       4.786   5.604  18.379  0.00  0.00    +0.000 A 
ATOM      6  N   UNL     1       4.149   5.556  19.548  0.00  0.00    +0.000 NA
ATOM      7  C   UNL     1       3.046   4.773  19.551  0.00  0.00    +0.000 A 
ATOM      8  C   UNL     1       2.312   4.630  20.721  0.00  0.00    +0.000 A 
ATOM      9  C   UNL     1       1.225   3.757  20.794  0.00  0.00    +0.000 A 
ATOM     10  C   UNL     1       0.856   3.016  19.678  0.00  0.00    +0.000 A 
ATOM     11  C   UNL     1       1.547   3.185  18.479  0.00  0.00    +0.000 A 
ATOM     12  C   UNL     1       2.619   4.054  18.382  0.00  0.00    +0.000 A 
ATOM     13  N   UNL     1       3.249   4.184  17.196  0.00  0.00    +0.000 NA
ATOM     14  C   UNL     1       4.343   4.967  17.234  0.00  0.00    +0.000 A 
ATOM     15  H   UNL     1       6.543   6.683  18.841  0.00  0.00    +0.000 HD
ENDROOT
BRANCH   1  17
ATOM     16  N   UNL     1       5.491   4.401  13.822  0.00  0.00    +0.000 N 
ATOM     17  C   UNL     1       5.634   4.166  15.177  0.00  0.00    +0.000 C 
ATOM     18  O   UNL     1       6.164   3.140  15.598  0.00  0.00    +0.000 OA
ATOM     19  H   UNL     1       4.987   5.231  13.516  0.00  0.00    +0.000 HD
BRANCH  16  20
ATOM     20  C   UNL     1       6.071   3.545  12.816  0.00  0.00    +0.000 C 
BRANCH  20  22
ATOM     21  C   UNL     1       7.868   5.283  12.635  0.00  0.00    +0.000 C 
ATOM     22  C   UNL     1       7.141   4.297  12.094  0.00  0.00    +0.000 C 
ENDBRANCH  20  22
ENDBRANCH  16  20
ENDBRANCH   1  17
TORSDOF 3
ENDMDL
MODEL 7
REMARK VINA RESULT:      -7.7      1.870      6.194
REMARK  Name = 
REMARK  3 active torsions:
REMARK  status: ('A' for Active; 'I' for Inactive)
REMARK    1  A    between atoms: C_2  and  C_3
REMARK    2  A    between atoms: C_3  and  N_4
REMARK    3  A    between atoms: C_5  and  C_7
REMARK                            x       y       z     vdW  Elec       q    Type
REMARK                         _______ _______ _______ _____ _____    ______ ____
ROOT
ATOM      1  C   UNL     1       5.751   3.989  18.034  0.00  0.00    +0.000 C 
ATOM      2  C   UNL     1       6.335   5.255  18.682  0.00  0.00    +0.000 C 
ATOM      3  O   UNL     1       6.211   5.648  19.829  0.00  0.00    +0.000 OA
ATOM      4  N   UNL     1       7.129   5.886  17.730  0.00  0.00    +0.000 N 
ATOM      5  C   UNL     1       7.014   5.269  16.503  0.00  0.00    +0.000 A 
ATOM      6  N   UNL     1       7.595   5.659  15.370  0.00  0.00    +0.000 NA
ATOM      7  C   UNL     1       7.216   4.955  14.278  0.00  0.00    +0.000 A 
ATOM      8  C   UNL     1       7.742   5.285  13.036  0.00  0.00    +0.000 A 
ATOM      9  C   UNL     1       7.307   4.651  11.871  0.00  0.00    +0.000 A 
ATOM     10  C   UNL     1       6.333   3.662  11.945  0.00  0.00    +0.000 A 
ATOM     11  C   UNL     1       5.830   3.280  13.187  0.00  0.00    +0.000 A 
ATOM     12  C   UNL     1       6.258   3.887  14.355  0.00  0.00    +0.000 A 
ATOM     13  N   UNL     1       5.744   3.475  15.532  0.00  0.00    +0.000 NA
ATOM     14  C   UNL     1       6.141   4.201  16.593  0.00  0.00    +0.000 A 
ATOM     15  H   UNL     1       7.647   6.735  17.888  0.00  0.00    +0.000 HD
ENDROOT
BRANCH   1  17
ATOM     16  N   UNL     1       3.538   4.792  18.707  0.00  0.00    +0.000 N 
ATOM     17  C   UNL     1       4.289   3.710  18.287  0.00  0.00    +0.000 C 
ATOM     18  O   UNL     1       3.764   2.633  18.011  0.00  0.00    +0.000 OA
ATOM     19  H   UNL     1       4.018   5.645  18.989  0.00  0.00    +0.000 HD
BRANCH  16  20
ATOM     20  C   UNL     1       2.095   4.786  18.716  0.00  0.00    +0.000 C 
BRANCH  20  22
ATOM     21  C   UNL     1       1.089   3.390  20.539  0.00  0.00    +0.000 C 
ATOM     22  C   UNL     1       1.618   4.543  20.110  0.00  0.00    +0.000 C 
ENDBRANCH  20  22
ENDBRANCH  16  20
ENDBRANCH   1  17
TORSDOF 3
ENDMDL
MODEL 8
REMARK VINA RESULT:      -7.7      1.924      6.224
REMARK  Name = 
REMARK  3 active torsions:
REMARK  status: ('A' for Active; 'I' for Inactive)
REMARK    1  A    between atoms: C_2  and  C_3
REMARK    2  A    between atoms: C_3  and  N_4
REMARK    3  A    between atoms: C_5  and  C_7
REMARK                            x       y       z     vdW  Elec       q    Type
REMARK                         _______ _______ _______ _____ _____    ______ ____
ROOT
ATOM      1  C   UNL     1       5.040   3.994  17.821  0.00  0.00    +0.000 C 
ATOM      2  C   UNL     1       5.581   5.201  18.605  0.00  0.00    +0.000 C 
ATOM      3  O   UNL     1       5.295   5.564  19.733  0.00  0.00    +0.000 OA
ATOM      4  N   UNL     1       6.553   5.811  17.819  0.00  0.00    +0.000 N 
ATOM      5  C   UNL     1       6.603   5.242  16.566  0.00  0.00    +0.000 A 
ATOM      6  N   UNL     1       7.382   5.631  15.557  0.00  0.00    +0.000 NA
ATOM      7  C   UNL     1       7.146   4.987  14.391  0.00  0.00    +0.000 A 
ATOM      8  C   UNL     1       7.884   5.322  13.263  0.00  0.00    +0.000 A 
ATOM      9  C   UNL     1       7.609   4.754  12.018  0.00  0.00    +0.000 A 
ATOM     10  C   UNL     1       6.582   3.825  11.895  0.00  0.00    +0.000 A 
ATOM     11  C   UNL     1       5.864   3.435  13.024  0.00  0.00    +0.000 A 
ATOM     12  C   UNL     1       6.130   3.978  14.269  0.00  0.00    +0.000 A 
ATOM     13  N   UNL     1       5.410   3.561  15.331  0.00  0.00    +0.000 NA
ATOM     14  C   UNL     1       5.670   4.227  16.471  0.00  0.00    +0.000 A 
ATOM     15  H   UNL     1       7.084   6.622  18.092  0.00  0.00    +0.000 HD
ENDROOT
BRANCH   1  17
ATOM     16  N   UNL     1       3.101   2.581  18.311  0.00  0.00    +0.000 N 
ATOM     17  C   UNL     1       3.543   3.797  17.825  0.00  0.00    +0.000 C 
ATOM     18  O   UNL     1       2.758   4.701  17.546  0.00  0.00    +0.000 OA
ATOM     19  H   UNL     1       3.779   1.837  18.468  0.00  0.00    +0.000 HD
BRANCH  16  20
ATOM     20  C   UNL     1       1.723   2.332  18.658  0.00  0.00    +0.000 C 
BRANCH  20  22
ATOM     21  C   UNL     1       1.145   3.746  20.646  0.00  0.00    +0.000 C 
ATOM     22  C   UNL     1       1.537   2.578  20.119  0.00  0.00    +0.000 C 
ENDBRANCH  20  22
ENDBRANCH  16  20
ENDBRANCH   1  17
TORSDOF 3
ENDMDL
MODEL 9
REMARK VINA RESULT:      -7.5      1.171      1.336
REMARK  Name = 
REMARK  3 active torsions:
REMARK  status: ('A' for Active; 'I' for Inactive)
REMARK    1  A    between atoms: C_2  and  C_3
REMARK    2  A    between atoms: C_3  and  N_4
REMARK    3  A    between atoms: C_5  and  C_7
REMARK                            x       y       z     vdW  Elec       q    Type
REMARK                         _______ _______ _______ _____ _____    ______ ____
ROOT
ATOM      1  C   UNL     1       6.107   5.740  17.221  0.00  0.00    +0.000 C 
ATOM      2  C   UNL     1       7.027   6.027  18.419  0.00  0.00    +0.000 C 
ATOM      3  O   UNL     1       8.167   6.458  18.415  0.00  0.00    +0.000 OA
ATOM      4  N   UNL     1       6.299   5.774  19.577  0.00  0.00    +0.000 N 
ATOM      5  C   UNL     1       5.075   5.216  19.279  0.00  0.00    +0.000 A 
ATOM      6  N   UNL     1       4.165   4.803  20.160  0.00  0.00    +0.000 NA
ATOM      7  C   UNL     1       3.101   4.175  19.609  0.00  0.00    +0.000 A 
ATOM      8  C   UNL     1       2.096   3.682  20.431  0.00  0.00    +0.000 A 
ATOM      9  C   UNL     1       1.031   2.942  19.914  0.00  0.00    +0.000 A 
ATOM     10  C   UNL     1       0.960   2.695  18.549  0.00  0.00    +0.000 A 
ATOM     11  C   UNL     1       1.930   3.225  17.700  0.00  0.00    +0.000 A 
ATOM     12  C   UNL     1       2.987   3.971  18.191  0.00  0.00    +0.000 A 
ATOM     13  N   UNL     1       3.895   4.467  17.325  0.00  0.00    +0.000 NA
ATOM     14  C   UNL     1       4.939   5.082  17.911  0.00  0.00    +0.000 A 
ATOM     15  H   UNL     1       6.653   5.892  20.513  0.00  0.00    +0.000 HD
ENDROOT
BRANCH   1  17
ATOM     16  N   UNL     1       6.033   5.064  14.868  0.00  0.00    +0.000 N 
ATOM     17  C   UNL     1       6.711   4.971  16.070  0.00  0.00    +0.000 C 
ATOM     18  O   UNL     1       7.802   4.412  16.150  0.00  0.00    +0.000 OA
ATOM     19  H   UNL     1       5.102   5.477  14.858  0.00  0.00    +0.000 HD
BRANCH  16  20
ATOM     20  C   UNL     1       6.608   4.645  13.613  0.00  0.00    +0.000 C 
BRANCH  20  22
ATOM     21  C   UNL     1       5.686   3.132  11.840  0.00  0.00    +0.000 C 
ATOM     22  C   UNL     1       5.889   3.428  13.130  0.00  0.00    +0.000 C 
ENDBRANCH  20  22
ENDBRANCH  16  20
ENDBRANCH   1  17
TORSDOF 3
ENDMDL
