MODEL 1
REMARK VINA RESULT:      -9.2      0.000      0.000
REMARK  Name = 
REMARK  5 active torsions:
REMARK  status: ('A' for Active; 'I' for Inactive)
REMARK    1  A    between atoms: C_1  and  C_2
REMARK    2  A    between atoms: C_2  and  C_3
REMARK    3  A    between atoms: N_18  and  C_19
REMARK    4  A    between atoms: C_19  and  N_20
REMARK    5  A    between atoms: N_20  and  C_21
REMARK                            x       y       z     vdW  Elec       q    Type
REMARK                         _______ _______ _______ _____ _____    ______ ____
ROOT
ATOM      1  C   UNL     1       1.605   8.700  19.050  0.00  0.00    +0.000 A 
ATOM      2  C   UNL     1       2.418   9.014  17.970  0.00  0.00    +0.000 A 
ATOM      3  C   UNL     1       3.348   8.078  17.488  0.00  0.00    +0.000 A 
ATOM      4  C   UNL     1       3.467   6.781  18.038  0.00  0.00    +0.000 A 
ATOM      5  C   UNL     1       2.672   6.450  19.173  0.00  0.00    +0.000 A 
ATOM      6  C   UNL     1       1.754   7.435  19.636  0.00  0.00    +0.000 A 
ATOM      7  C   UNL     1       2.768   5.139  19.881  0.00  0.00    +0.000 A 
ATOM      8  C   UNL     1       2.012   4.825  21.036  0.00  0.00    +0.000 A 
ATOM      9  C   UNL     1       2.073   3.575  21.670  0.00  0.00    +0.000 A 
ATOM     10  C   UNL     1       2.911   2.584  21.185  0.00  0.00    +0.000 A 
ATOM     11  C   UNL     1       3.676   2.851  20.061  0.00  0.00    +0.000 A 
ATOM     12  C   UNL     1       3.587   4.107  19.427  0.00  0.00    +0.000 A 
ATOM     13  S   UNL     1       4.465   4.275  17.933  0.00  0.00    +0.000 S 
ATOM     14  O   UNL     1       3.614   3.695  16.909  0.00  0.00    +0.000 OA
ATOM     15  O   UNL     1       5.806   3.770  18.147  0.00  0.00    +0.000 OA
ATOM     16  N   UNL     1       4.587   5.943  17.607  0.00  0.00    +0.000 N 
ENDROOT
BRANCH   1  18
ATOM     17  C   UNL     1      -0.401  10.156  18.588  0.00  0.00    +0.000 C 
ATOM     18  C   UNL     1       0.620   9.693  19.618  0.00  0.00    +0.000 C 
ENDBRANCH   1  18
BRANCH  16  19
ATOM     19  C   UNL     1       5.132   6.081  16.231  0.00  0.00    +0.000 C 
BRANCH  19  20
ATOM     20  N   UNL     1       6.068   5.012  15.921  0.00  0.00    +0.000 N 
ATOM     21  H   UNL     1       6.860   4.996  16.550  0.00  0.00    +0.000 HD
BRANCH  20  22
ATOM     22  C   UNL     1       6.386   4.749  14.583  0.00  0.00    +0.000 A 
ATOM     23  C   UNL     1       7.477   5.410  14.000  0.00  0.00    +0.000 A 
ATOM     24  C   UNL     1       7.876   5.147  12.684  0.00  0.00    +0.000 A 
ATOM     25  C   UNL     1       7.207   4.189  11.927  0.00  0.00    +0.000 A 
ATOM     26  C   UNL     1       6.152   3.492  12.499  0.00  0.00    +0.000 A 
ATOM     27 CL   UNL     1       5.336   2.282  11.586  0.00  0.00    +0.000 Cl
ATOM     28  C   UNL     1       5.752   3.756  13.814  0.00  0.00    +0.000 A 
ENDBRANCH  20  22
ENDBRANCH  19  20
ENDBRANCH  16  19
TORSDOF 4
ENDMDL
MODEL 2
REMARK VINA RESULT:      -8.4      2.743      3.426
REMARK  Name = 
REMARK  5 active torsions:
REMARK  status: ('A' for Active; 'I' for Inactive)
REMARK    1  A    between atoms: C_1  and  C_2
REMARK    2  A    between atoms: C_2  and  C_3
REMARK    3  A    between atoms: N_18  and  C_19
REMARK    4  A    between atoms: C_19  and  N_20
REMARK    5  A    between atoms: N_20  and  C_21
REMARK                            x       y       z     vdW  Elec       q    Type
REMARK                         _______ _______ _______ _____ _____    ______ ____
ROOT
ATOM      1  C   UNL     1       1.837   8.484  19.116  0.00  0.00    +0.000 A 
ATOM      2  C   UNL     1       2.652   8.671  18.008  0.00  0.00    +0.000 A 
ATOM      3  C   UNL     1       3.336   7.582  17.442  0.00  0.00    +0.000 A 
ATOM      4  C   UNL     1       3.195   6.264  17.933  0.00  0.00    +0.000 A 
ATOM      5  C   UNL     1       2.396   6.055  19.093  0.00  0.00    +0.000 A 
ATOM      6  C   UNL     1       1.733   7.190  19.642  0.00  0.00    +0.000 A 
ATOM      7  C   UNL     1       2.235   4.720  19.743  0.00  0.00    +0.000 A 
ATOM      8  C   UNL     1       1.478   4.518  20.922  0.00  0.00    +0.000 A 
ATOM      9  C   UNL     1       1.293   3.253  21.501  0.00  0.00    +0.000 A 
ATOM     10  C   UNL     1       1.876   2.132  20.934  0.00  0.00    +0.000 A 
ATOM     11  C   UNL     1       2.632   2.284  19.784  0.00  0.00    +0.000 A 
ATOM     12  C   UNL     1       2.791   3.561  19.206  0.00  0.00    +0.000 A 
ATOM     13  S   UNL     1       3.620   3.610  17.676  0.00  0.00    +0.000 S 
ATOM     14  O   UNL     1       2.622   3.279  16.675  0.00  0.00    +0.000 OA
ATOM     15  O   UNL     1       4.829   2.820  17.800  0.00  0.00    +0.000 OA
ATOM     16  N   UNL     1       4.088   5.228  17.411  0.00  0.00    +0.000 N 
ENDROOT
BRANCH   1  18
ATOM     17  C   UNL     1       0.596  10.651  18.764  0.00  0.00    +0.000 C 
ATOM     18  C   UNL     1       1.116   9.636  19.773  0.00  0.00    +0.000 C 
ENDBRANCH   1  18
BRANCH  16  19
ATOM     19  C   UNL     1       4.591   5.315  16.015  0.00  0.00    +0.000 C 
BRANCH  19  20
ATOM     20  N   UNL     1       6.044   5.282  15.971  0.00  0.00    +0.000 N 
ATOM     21  H   UNL     1       6.403   4.381  15.685  0.00  0.00    +0.000 HD
BRANCH  20  22
ATOM     22  C   UNL     1       6.772   5.897  16.998  0.00  0.00    +0.000 A 
ATOM     23  C   UNL     1       7.297   5.103  18.028  0.00  0.00    +0.000 A 
ATOM     24  C   UNL     1       8.080   5.652  19.051  0.00  0.00    +0.000 A 
ATOM     25  C   UNL     1       8.381   7.011  19.049  0.00  0.00    +0.000 A 
ATOM     26  C   UNL     1       7.909   7.807  18.014  0.00  0.00    +0.000 A 
ATOM     27 CL   UNL     1       8.301   9.483  17.981  0.00  0.00    +0.000 Cl
ATOM     28  C   UNL     1       7.126   7.258  16.993  0.00  0.00    +0.000 A 
ENDBRANCH  20  22
ENDBRANCH  19  20
ENDBRANCH  16  19
TORSDOF 4
ENDMDL
MODEL 3
REMARK VINA RESULT:      -8.3      1.079      1.416
REMARK  Name = 
REMARK  5 active torsions:
REMARK  status: ('A' for Active; 'I' for Inactive)
REMARK    1  A    between atoms: C_1  and  C_2
REMARK    2  A    between atoms: C_2  and  C_3
REMARK    3  A    between atoms: N_18  and  C_19
REMARK    4  A    between atoms: C_19  and  N_20
REMARK    5  A    between atoms: N_20  and  C_21
REMARK                            x       y       z     vdW  Elec       q    Type
REMARK                         _______ _______ _______ _____ _____    ______ ____
ROOT
ATOM      1  C   UNL     1       1.579   8.559  19.018  0.00  0.00    +0.000 A 
ATOM      2  C   UNL     1       2.447   8.836  17.971  0.00  0.00    +0.000 A 
ATOM      3  C   UNL     1       3.382   7.874  17.554  0.00  0.00    +0.000 A 
ATOM      4  C   UNL     1       3.454   6.589  18.137  0.00  0.00    +0.000 A 
ATOM      5  C   UNL     1       2.600   6.296  19.240  0.00  0.00    +0.000 A 
ATOM      6  C   UNL     1       1.679   7.306  19.637  0.00  0.00    +0.000 A 
ATOM      7  C   UNL     1       2.640   5.000  19.980  0.00  0.00    +0.000 A 
ATOM      8  C   UNL     1       1.825   4.725  21.104  0.00  0.00    +0.000 A 
ATOM      9  C   UNL     1       1.834   3.488  21.767  0.00  0.00    +0.000 A 
ATOM     10  C   UNL     1       2.677   2.473  21.345  0.00  0.00    +0.000 A 
ATOM     11  C   UNL     1       3.499   2.702  20.252  0.00  0.00    +0.000 A 
ATOM     12  C   UNL     1       3.461   3.945  19.588  0.00  0.00    +0.000 A 
ATOM     13  S   UNL     1       4.411   4.064  18.134  0.00  0.00    +0.000 S 
ATOM     14  O   UNL     1       3.599   3.476  17.084  0.00  0.00    +0.000 OA
ATOM     15  O   UNL     1       5.733   3.543  18.422  0.00  0.00    +0.000 OA
ATOM     16  N   UNL     1       4.578   5.723  17.778  0.00  0.00    +0.000 N 
ENDROOT
BRANCH   1  18
ATOM     17  C   UNL     1      -0.264  10.164  18.396  0.00  0.00    +0.000 C 
ATOM     18  C   UNL     1       0.586   9.581  19.516  0.00  0.00    +0.000 C 
ENDBRANCH   1  18
BRANCH  16  19
ATOM     19  C   UNL     1       5.189   5.821  16.426  0.00  0.00    +0.000 C 
BRANCH  19  20
ATOM     20  N   UNL     1       5.516   4.507  15.895  0.00  0.00    +0.000 N 
ATOM     21  H   UNL     1       5.913   3.895  16.595  0.00  0.00    +0.000 HD
BRANCH  20  22
ATOM     22  C   UNL     1       6.116   4.411  14.633  0.00  0.00    +0.000 A 
ATOM     23  C   UNL     1       5.587   3.509  13.697  0.00  0.00    +0.000 A 
ATOM     24  C   UNL     1       6.108   3.408  12.402  0.00  0.00    +0.000 A 
ATOM     25  C   UNL     1       7.157   4.232  12.002  0.00  0.00    +0.000 A 
ATOM     26  C   UNL     1       7.665   5.161  12.898  0.00  0.00    +0.000 A 
ATOM     27 CL   UNL     1       8.941   6.209  12.408  0.00  0.00    +0.000 Cl
ATOM     28  C   UNL     1       7.145   5.261  14.194  0.00  0.00    +0.000 A 
ENDBRANCH  20  22
ENDBRANCH  19  20
ENDBRANCH  16  19
TORSDOF 4
ENDMDL
MODEL 4
REMARK VINA RESULT:      -8.1      1.494      4.152
REMARK  Name = 
REMARK  5 active torsions:
REMARK  status: ('A' for Active; 'I' for Inactive)
REMARK    1  A    between atoms: C_1  and  C_2
REMARK    2  A    between atoms: C_2  and  C_3
REMARK    3  A    between atoms: N_18  and  C_19
REMARK    4  A    between atoms: C_19  and  N_20
REMARK    5  A    between atoms: N_20  and  C_21
REMARK                            x       y       z     vdW  Elec       q    Type
REMARK                         _______ _______ _______ _____ _____    ______ ____
ROOT
ATOM      1  C   UNL     1       3.308   3.049  20.471  0.00  0.00    +0.000 A 
ATOM      2  C   UNL     1       4.277   2.392  19.726  0.00  0.00    +0.000 A 
ATOM      3  C   UNL     1       4.890   3.035  18.637  0.00  0.00    +0.000 A 
ATOM      4  C   UNL     1       4.589   4.370  18.283  0.00  0.00    +0.000 A 
ATOM      5  C   UNL     1       3.569   5.050  19.008  0.00  0.00    +0.000 A 
ATOM      6  C   UNL     1       2.965   4.354  20.093  0.00  0.00    +0.000 A 
ATOM      7  C   UNL     1       3.116   6.434  18.675  0.00  0.00    +0.000 A 
ATOM      8  C   UNL     1       2.071   7.094  19.364  0.00  0.00    +0.000 A 
ATOM      9  C   UNL     1       1.682   8.412  19.076  0.00  0.00    +0.000 A 
ATOM     10  C   UNL     1       2.311   9.123  18.068  0.00  0.00    +0.000 A 
ATOM     11  C   UNL     1       3.334   8.512  17.361  0.00  0.00    +0.000 A 
ATOM     12  C   UNL     1       3.724   7.195  17.678  0.00  0.00    +0.000 A 
ATOM     13  S   UNL     1       5.124   6.589  16.840  0.00  0.00    +0.000 S 
ATOM     14  O   UNL     1       6.271   7.105  17.566  0.00  0.00    +0.000 OA
ATOM     15  O   UNL     1       4.956   6.874  15.429  0.00  0.00    +0.000 OA
ATOM     16  N   UNL     1       5.126   4.894  17.026  0.00  0.00    +0.000 N 
ENDROOT
BRANCH   1  18
ATOM     17  C   UNL     1       1.141   2.788  21.733  0.00  0.00    +0.000 C 
ATOM     18  C   UNL     1       2.603   2.377  21.624  0.00  0.00    +0.000 C 
ENDBRANCH   1  18
BRANCH  16  19
ATOM     19  C   UNL     1       6.429   4.399  16.511  0.00  0.00    +0.000 C 
BRANCH  19  20
ATOM     20  N   UNL     1       6.992   5.311  15.528  0.00  0.00    +0.000 N 
ATOM     21  H   UNL     1       6.733   6.273  15.699  0.00  0.00    +0.000 HD
BRANCH  20  22
ATOM     22  C   UNL     1       6.994   4.943  14.177  0.00  0.00    +0.000 A 
ATOM     23  C   UNL     1       7.878   5.586  13.298  0.00  0.00    +0.000 A 
ATOM     24  C   UNL     1       7.965   5.223  11.949  0.00  0.00    +0.000 A 
ATOM     25  C   UNL     1       7.186   4.182  11.452  0.00  0.00    +0.000 A 
ATOM     26  C   UNL     1       6.336   3.503  12.314  0.00  0.00    +0.000 A 
ATOM     27 CL   UNL     1       5.390   2.193  11.721  0.00  0.00    +0.000 Cl
ATOM     28  C   UNL     1       6.249   3.867  13.663  0.00  0.00    +0.000 A 
ENDBRANCH  20  22
ENDBRANCH  19  20
ENDBRANCH  16  19
TORSDOF 4
ENDMDL
MODEL 5
REMARK VINA RESULT:      -8.1      2.708      3.311
REMARK  Name = 
REMARK  5 active torsions:
REMARK  status: ('A' for Active; 'I' for Inactive)
REMARK    1  A    between atoms: C_1  and  C_2
REMARK    2  A    between atoms: C_2  and  C_3
REMARK    3  A    between atoms: N_18  and  C_19
REMARK    4  A    between atoms: C_19  and  N_20
REMARK    5  A    between atoms: N_20  and  C_21
REMARK                            x       y       z     vdW  Elec       q    Type
REMARK                         _______ _______ _______ _____ _____    ______ ____
ROOT
ATOM      1  C   UNL     1       1.849   8.426  18.962  0.00  0.00    +0.000 A 
ATOM      2  C   UNL     1       2.665   8.568  17.849  0.00  0.00    +0.000 A 
ATOM      3  C   UNL     1       3.351   7.459  17.327  0.00  0.00    +0.000 A 
ATOM      4  C   UNL     1       3.212   6.162  17.871  0.00  0.00    +0.000 A 
ATOM      5  C   UNL     1       2.412   5.999  19.038  0.00  0.00    +0.000 A 
ATOM      6  C   UNL     1       1.747   7.153  19.540  0.00  0.00    +0.000 A 
ATOM      7  C   UNL     1       2.252   4.691  19.742  0.00  0.00    +0.000 A 
ATOM      8  C   UNL     1       1.495   4.536  20.928  0.00  0.00    +0.000 A 
ATOM      9  C   UNL     1       1.312   3.295  21.558  0.00  0.00    +0.000 A 
ATOM     10  C   UNL     1       1.897   2.153  21.038  0.00  0.00    +0.000 A 
ATOM     11  C   UNL     1       2.654   2.260  19.882  0.00  0.00    +0.000 A 
ATOM     12  C   UNL     1       2.811   3.511  19.253  0.00  0.00    +0.000 A 
ATOM     13  S   UNL     1       3.641   3.500  17.723  0.00  0.00    +0.000 S 
ATOM     14  O   UNL     1       2.644   3.127  16.736  0.00  0.00    +0.000 OA
ATOM     15  O   UNL     1       4.851   2.718  17.880  0.00  0.00    +0.000 OA
ATOM     16  N   UNL     1       4.106   5.107  17.393  0.00  0.00    +0.000 N 
ENDROOT
BRANCH   1  18
ATOM     17  C   UNL     1       1.264  10.868  18.738  0.00  0.00    +0.000 C 
ATOM     18  C   UNL     1       1.125   9.602  19.571  0.00  0.00    +0.000 C 
ENDBRANCH   1  18
BRANCH  16  19
ATOM     19  C   UNL     1       4.610   5.138  15.994  0.00  0.00    +0.000 C 
BRANCH  19  20
ATOM     20  N   UNL     1       6.060   5.027  15.950  0.00  0.00    +0.000 N 
ATOM     21  H   UNL     1       6.371   4.078  15.790  0.00  0.00    +0.000 HD
BRANCH  20  22
ATOM     22  C   UNL     1       6.828   5.740  16.879  0.00  0.00    +0.000 A 
ATOM     23  C   UNL     1       7.028   7.114  16.683  0.00  0.00    +0.000 A 
ATOM     24  C   UNL     1       7.739   7.891  17.606  0.00  0.00    +0.000 A 
ATOM     25  C   UNL     1       8.245   7.312  18.766  0.00  0.00    +0.000 A 
ATOM     26  C   UNL     1       8.020   5.962  19.002  0.00  0.00    +0.000 A 
ATOM     27 CL   UNL     1       8.611   5.239  20.448  0.00  0.00    +0.000 Cl
ATOM     28  C   UNL     1       7.310   5.186  18.078  0.00  0.00    +0.000 A 
ENDBRANCH  20  22
ENDBRANCH  19  20
ENDBRANCH  16  19
TORSDOF 4
ENDMDL
MODEL 6
REMARK VINA RESULT:      -7.5      6.052      9.351
REMARK  Name = 
REMARK  5 active torsions:
REMARK  status: ('A' for Active; 'I' for Inactive)
REMARK    1  A    between atoms: C_1  and  C_2
REMARK    2  A    between atoms: C_2  and  C_3
REMARK    3  A    between atoms: N_18  and  C_19
REMARK    4  A    between atoms: C_19  and  N_20
REMARK    5  A    between atoms: N_20  and  C_21
REMARK                            x       y       z     vdW  Elec       q    Type
REMARK                         _______ _______ _______ _____ _____    ______ ____
ROOT
ATOM      1  C   UNL     1      -3.720  11.635  17.843  0.00  0.00    +0.000 A 
ATOM      2  C   UNL     1      -2.388  11.334  17.596  0.00  0.00    +0.000 A 
ATOM      3  C   UNL     1      -1.431  11.468  18.615  0.00  0.00    +0.000 A 
ATOM      4  C   UNL     1      -1.777  11.864  19.927  0.00  0.00    +0.000 A 
ATOM      5  C   UNL     1      -3.130  12.218  20.194  0.00  0.00    +0.000 A 
ATOM      6  C   UNL     1      -4.063  12.080  19.127  0.00  0.00    +0.000 A 
ATOM      7  C   UNL     1      -3.596  12.720  21.521  0.00  0.00    +0.000 A 
ATOM      8  C   UNL     1      -4.931  13.116  21.775  0.00  0.00    +0.000 A 
ATOM      9  C   UNL     1      -5.372  13.544  23.037  0.00  0.00    +0.000 A 
ATOM     10  C   UNL     1      -4.487  13.614  24.100  0.00  0.00    +0.000 A 
ATOM     11  C   UNL     1      -3.168  13.245  23.895  0.00  0.00    +0.000 A 
ATOM     12  C   UNL     1      -2.748  12.799  22.624  0.00  0.00    +0.000 A 
ATOM     13  S   UNL     1      -1.115  12.206  22.522  0.00  0.00    +0.000 S 
ATOM     14  O   UNL     1      -1.165  10.832  22.990  0.00  0.00    +0.000 OA
ATOM     15  O   UNL     1      -0.250  13.173  23.168  0.00  0.00    +0.000 OA
ATOM     16  N   UNL     1      -0.698  12.165  20.870  0.00  0.00    +0.000 N 
ENDROOT
BRANCH   1  18
ATOM     17  C   UNL     1      -6.034  12.314  17.105  0.00  0.00    +0.000 C 
ATOM     18  C   UNL     1      -4.770  11.538  16.763  0.00  0.00    +0.000 C 
ENDBRANCH   1  18
BRANCH  16  19
ATOM     19  C   UNL     1       0.602  11.452  20.764  0.00  0.00    +0.000 C 
BRANCH  19  20
ATOM     20  N   UNL     1       0.429  10.013  20.886  0.00  0.00    +0.000 N 
ATOM     21  H   UNL     1       0.437   9.703  21.849  0.00  0.00    +0.000 HD
BRANCH  20  22
ATOM     22  C   UNL     1       1.104   9.166  19.998  0.00  0.00    +0.000 A 
ATOM     23  C   UNL     1       1.379   9.622  18.701  0.00  0.00    +0.000 A 
ATOM     24  C   UNL     1       2.098   8.842  17.787  0.00  0.00    +0.000 A 
ATOM     25  C   UNL     1       2.586   7.594  18.162  0.00  0.00    +0.000 A 
ATOM     26  C   UNL     1       2.363   7.142  19.456  0.00  0.00    +0.000 A 
ATOM     27 CL   UNL     1       2.988   5.614  19.945  0.00  0.00    +0.000 Cl
ATOM     28  C   UNL     1       1.643   7.921  20.369  0.00  0.00    +0.000 A 
ENDBRANCH  20  22
ENDBRANCH  19  20
ENDBRANCH  16  19
TORSDOF 4
ENDMDL
MODEL 7
REMARK VINA RESULT:      -7.4      5.838      9.015
REMARK  Name = 
REMARK  5 active torsions:
REMARK  status: ('A' for Active; 'I' for Inactive)
REMARK    1  A    between atoms: C_1  and  C_2
REMARK    2  A    between atoms: C_2  and  C_3
REMARK    3  A    between atoms: N_18  and  C_19
REMARK    4  A    between atoms: C_19  and  N_20
REMARK    5  A    between atoms: N_20  and  C_21
REMARK                            x       y       z     vdW  Elec       q    Type
REMARK                         _______ _______ _______ _____ _____    ______ ____
ROOT
ATOM      1  C   UNL     1      -3.114  10.936  17.119  0.00  0.00    +0.000 A 
ATOM      2  C   UNL     1      -1.795  10.510  17.055  0.00  0.00    +0.000 A 
ATOM      3  C   UNL     1      -0.915  10.768  18.119  0.00  0.00    +0.000 A 
ATOM      4  C   UNL     1      -1.332  11.421  19.302  0.00  0.00    +0.000 A 
ATOM      5  C   UNL     1      -2.670  11.903  19.374  0.00  0.00    +0.000 A 
ATOM      6  C   UNL     1      -3.522  11.631  18.266  0.00  0.00    +0.000 A 
ATOM      7  C   UNL     1      -3.199  12.670  20.541  0.00  0.00    +0.000 A 
ATOM      8  C   UNL     1      -4.514  13.190  20.595  0.00  0.00    +0.000 A 
ATOM      9  C   UNL     1      -5.019  13.870  21.714  0.00  0.00    +0.000 A 
ATOM     10  C   UNL     1      -4.220  14.078  22.826  0.00  0.00    +0.000 A 
ATOM     11  C   UNL     1      -2.922  13.594  22.813  0.00  0.00    +0.000 A 
ATOM     12  C   UNL     1      -2.439  12.896  21.687  0.00  0.00    +0.000 A 
ATOM     13  S   UNL     1      -0.855  12.191  21.845  0.00  0.00    +0.000 S 
ATOM     14  O   UNL     1      -1.052  10.933  22.543  0.00  0.00    +0.000 OA
ATOM     15  O   UNL     1       0.029  13.203  22.387  0.00  0.00    +0.000 OA
ATOM     16  N   UNL     1      -0.312  11.820  20.272  0.00  0.00    +0.000 N 
ENDROOT
BRANCH   1  18
ATOM     17  C   UNL     1      -3.390  10.179  14.731  0.00  0.00    +0.000 C 
ATOM     18  C   UNL     1      -4.078  10.709  15.981  0.00  0.00    +0.000 C 
ENDBRANCH   1  18
BRANCH  16  19
ATOM     19  C   UNL     1       0.931  11.018  20.417  0.00  0.00    +0.000 C 
BRANCH  19  20
ATOM     20  N   UNL     1       0.634   9.630  20.732  0.00  0.00    +0.000 N 
ATOM     21  H   UNL     1       0.554   9.467  21.727  0.00  0.00    +0.000 HD
BRANCH  20  22
ATOM     22  C   UNL     1       1.293   8.614  20.029  0.00  0.00    +0.000 A 
ATOM     23  C   UNL     1       1.801   8.890  18.751  0.00  0.00    +0.000 A 
ATOM     24  C   UNL     1       2.518   7.932  18.025  0.00  0.00    +0.000 A 
ATOM     25  C   UNL     1       2.769   6.678  18.575  0.00  0.00    +0.000 A 
ATOM     26  C   UNL     1       2.313   6.399  19.856  0.00  0.00    +0.000 A 
ATOM     27 CL   UNL     1       2.644   4.864  20.563  0.00  0.00    +0.000 Cl
ATOM     28  C   UNL     1       1.596   7.357  20.582  0.00  0.00    +0.000 A 
ENDBRANCH  20  22
ENDBRANCH  19  20
ENDBRANCH  16  19
TORSDOF 4
ENDMDL
MODEL 8
REMARK VINA RESULT:      -7.4      1.792      4.331
REMARK  Name = 
REMARK  5 active torsions:
REMARK  status: ('A' for Active; 'I' for Inactive)
REMARK    1  A    between atoms: C_1  and  C_2
REMARK    2  A    between atoms: C_2  and  C_3
REMARK    3  A    between atoms: N_18  and  C_19
REMARK    4  A    between atoms: C_19  and  N_20
REMARK    5  A    between atoms: N_20  and  C_21
REMARK                            x       y       z     vdW  Elec       q    Type
REMARK                         _______ _______ _______ _____ _____    ______ ____
ROOT
ATOM      1  C   UNL     1       2.352   2.705  19.308  0.00  0.00    +0.000 A 
ATOM      2  C   UNL     1       3.249   2.016  18.503  0.00  0.00    +0.000 A 
ATOM      3  C   UNL     1       4.051   2.710  17.582  0.00  0.00    +0.000 A 
ATOM      4  C   UNL     1       4.018   4.118  17.463  0.00  0.00    +0.000 A 
ATOM      5  C   UNL     1       3.076   4.842  18.250  0.00  0.00    +0.000 A 
ATOM      6  C   UNL     1       2.274   4.096  19.159  0.00  0.00    +0.000 A 
ATOM      7  C   UNL     1       2.901   6.322  18.154  0.00  0.00    +0.000 A 
ATOM      8  C   UNL     1       1.934   7.038  18.900  0.00  0.00    +0.000 A 
ATOM      9  C   UNL     1       1.805   8.434  18.839  0.00  0.00    +0.000 A 
ATOM     10  C   UNL     1       2.629   9.178  18.010  0.00  0.00    +0.000 A 
ATOM     11  C   UNL     1       3.584   8.517  17.254  0.00  0.00    +0.000 A 
ATOM     12  C   UNL     1       3.711   7.116  17.343  0.00  0.00    +0.000 A 
ATOM     13  S   UNL     1       5.047   6.412  16.479  0.00  0.00    +0.000 S 
ATOM     14  O   UNL     1       6.204   6.573  17.342  0.00  0.00    +0.000 OA
ATOM     15  O   UNL     1       5.047   6.960  15.137  0.00  0.00    +0.000 OA
ATOM     16  N   UNL     1       4.738   4.740  16.351  0.00  0.00    +0.000 N 
ENDROOT
BRANCH   1  18
ATOM     17  C   UNL     1       1.464   2.624  21.666  0.00  0.00    +0.000 C 
ATOM     18  C   UNL     1       1.449   1.989  20.283  0.00  0.00    +0.000 C 
ENDBRANCH   1  18
BRANCH  16  19
ATOM     19  C   UNL     1       5.973   4.106  15.819  0.00  0.00    +0.000 C 
BRANCH  19  20
ATOM     20  N   UNL     1       6.377   4.708  14.558  0.00  0.00    +0.000 N 
ATOM     21  H   UNL     1       6.166   5.696  14.516  0.00  0.00    +0.000 HD
BRANCH  20  22
ATOM     22  C   UNL     1       6.146   4.014  13.364  0.00  0.00    +0.000 A 
ATOM     23  C   UNL     1       7.213   3.340  12.752  0.00  0.00    +0.000 A 
ATOM     24  C   UNL     1       7.031   2.584  11.588  0.00  0.00    +0.000 A 
ATOM     25  C   UNL     1       5.765   2.460  11.023  0.00  0.00    +0.000 A 
ATOM     26  C   UNL     1       4.688   3.083  11.638  0.00  0.00    +0.000 A 
ATOM     27 CL   UNL     1       3.110   2.913  10.969  0.00  0.00    +0.000 Cl
ATOM     28  C   UNL     1       4.870   3.840  12.801  0.00  0.00    +0.000 A 
ENDBRANCH  20  22
ENDBRANCH  19  20
ENDBRANCH  16  19
TORSDOF 4
ENDMDL
MODEL 9
REMARK VINA RESULT:      -7.4      3.316      7.211
REMARK  Name = 
REMARK  5 active torsions:
REMARK  status: ('A' for Active; 'I' for Inactive)
REMARK    1  A    between atoms: C_1  and  C_2
REMARK    2  A    between atoms: C_2  and  C_3
REMARK    3  A    between atoms: N_18  and  C_19
REMARK    4  A    between atoms: C_19  and  N_20
REMARK    5  A    between atoms: N_20  and  C_21
REMARK                            x       y       z     vdW  Elec       q    Type
REMARK                         _______ _______ _______ _____ _____    ______ ____
ROOT
ATOM      1  C   UNL     1       5.859   4.745  15.109  0.00  0.00    +0.000 A 
ATOM      2  C   UNL     1       5.669   6.118  15.176  0.00  0.00    +0.000 A 
ATOM      3  C   UNL     1       4.785   6.665  16.121  0.00  0.00    +0.000 A 
ATOM      4  C   UNL     1       4.096   5.866  17.061  0.00  0.00    +0.000 A 
ATOM      5  C   UNL     1       4.245   4.451  16.986  0.00  0.00    +0.000 A 
ATOM      6  C   UNL     1       5.139   3.941  16.003  0.00  0.00    +0.000 A 
ATOM      7  C   UNL     1       3.510   3.505  17.878  0.00  0.00    +0.000 A 
ATOM      8  C   UNL     1       3.621   2.098  17.774  0.00  0.00    +0.000 A 
ATOM      9  C   UNL     1       2.963   1.216  18.645  0.00  0.00    +0.000 A 
ATOM     10  C   UNL     1       2.146   1.704  19.651  0.00  0.00    +0.000 A 
ATOM     11  C   UNL     1       2.001   3.076  19.783  0.00  0.00    +0.000 A 
ATOM     12  C   UNL     1       2.685   3.947  18.911  0.00  0.00    +0.000 A 
ATOM     13  S   UNL     1       2.561   5.645  19.271  0.00  0.00    +0.000 S 
ATOM     14  O   UNL     1       3.549   5.901  20.305  0.00  0.00    +0.000 OA
ATOM     15  O   UNL     1       1.163   5.951  19.498  0.00  0.00    +0.000 OA
ATOM     16  N   UNL     1       3.054   6.492  17.876  0.00  0.00    +0.000 N 
ENDROOT
BRANCH   1  18
ATOM     17  C   UNL     1       6.012   3.565  12.887  0.00  0.00    +0.000 C 
ATOM     18  C   UNL     1       6.772   4.119  14.083  0.00  0.00    +0.000 C 
ENDBRANCH   1  18
BRANCH  16  19
ATOM     19  C   UNL     1       3.166   7.926  18.252  0.00  0.00    +0.000 C 
BRANCH  19  20
ATOM     20  N   UNL     1       2.063   8.704  17.711  0.00  0.00    +0.000 N 
ATOM     21  H   UNL     1       2.340   9.272  16.921  0.00  0.00    +0.000 HD
BRANCH  20  22
ATOM     22  C   UNL     1       1.172   9.331  18.592  0.00  0.00    +0.000 A 
ATOM     23  C   UNL     1       0.073  10.026  18.067  0.00  0.00    +0.000 A 
ATOM     24  C   UNL     1      -0.881  10.625  18.898  0.00  0.00    +0.000 A 
ATOM     25  C   UNL     1      -0.772  10.516  20.282  0.00  0.00    +0.000 A 
ATOM     26  C   UNL     1       0.284   9.794  20.821  0.00  0.00    +0.000 A 
ATOM     27 CL   UNL     1       0.415   9.624  22.530  0.00  0.00    +0.000 Cl
ATOM     28  C   UNL     1       1.239   9.197  19.990  0.00  0.00    +0.000 A 
ENDBRANCH  20  22
ENDBRANCH  19  20
ENDBRANCH  16  19
TORSDOF 4
ENDMDL
