MODEL 1
REMARK VINA RESULT:      -7.5      0.000      0.000
REMARK  Name = 
REMARK  9 active torsions:
REMARK  status: ('A' for Active; 'I' for Inactive)
REMARK    1  A    between atoms: C_1  and  C_2
REMARK    2  A    between atoms: C_2  and  C_3
REMARK    3  A    between atoms: C_2  and  C_4
REMARK    4  A    between atoms: C_4  and  C_5
REMARK    5  A    between atoms: C_5  and  S_6
REMARK    6  A    between atoms: S_6  and  C_9
REMARK    7  A    between atoms: C_9  and  C_10
REMARK    8  A    between atoms: C_16  and  C_17
REMARK    9  A    between atoms: N_20  and  C_21
REMARK                            x       y       z     vdW  Elec       q    Type
REMARK                         _______ _______ _______ _____ _____    ______ ____
ROOT
ATOM      1  C   UNL     1       5.123   5.923  18.254  0.00  0.00    +0.000 C 
ATOM      2  O   UNL     1       5.493   5.333  19.273  0.00  0.00    +0.000 OA
ATOM      3  N   UNL     1       3.877   6.532  18.222  0.00  0.00    +0.000 N 
ATOM      4  C   UNL     1       3.260   7.278  17.140  0.00  0.00    +0.000 C 
ATOM      5  C   UNL     1       2.530   8.404  17.852  0.00  0.00    +0.000 C 
ATOM      6  C   UNL     1       2.068   7.774  19.160  0.00  0.00    +0.000 C 
ATOM      7  C   UNL     1       3.083   6.649  19.448  0.00  0.00    +0.000 C 
ENDROOT
BRANCH   7   8
ATOM      8  C   UNL     1       2.372   5.380  19.795  0.00  0.00    +0.000 A 
ATOM      9  C   UNL     1       1.739   4.499  18.882  0.00  0.00    +0.000 A 
ATOM     10  N   UNL     1       1.306   3.377  19.460  0.00  0.00    +0.000 NA
ATOM     11  N   UNL     1       1.608   3.555  20.756  0.00  0.00    +0.000 N 
ATOM     12  C   UNL     1       1.359   2.501  21.710  0.00  0.00    +0.000 C 
ATOM     13  C   UNL     1       2.232   4.741  21.012  0.00  0.00    +0.000 A 
ENDBRANCH   7   8
BRANCH   1  14
ATOM     14  C   UNL     1       6.045   6.132  17.075  0.00  0.00    +0.000 C 
BRANCH  14  15
ATOM     15  S   UNL     1       6.662   4.574  16.457  0.00  0.00    +0.000 S 
ATOM     16  O   UNL     1       5.613   3.587  16.637  0.00  0.00    +0.000 OA
ATOM     17  O   UNL     1       8.010   4.359  16.940  0.00  0.00    +0.000 OA
BRANCH  15  18
ATOM     18  C   UNL     1       6.824   4.833  14.687  0.00  0.00    +0.000 C 
BRANCH  18  19
ATOM     19  C   UNL     1       5.645   4.183  13.944  0.00  0.00    +0.000 C 
BRANCH  19  21
ATOM     20  C   UNL     1       4.773   3.303  11.752  0.00  0.00    +0.000 C 
ATOM     21  C   UNL     1       6.013   3.444  12.644  0.00  0.00    +0.000 C 
ATOM     22  C   UNL     1       7.117   4.154  11.860  0.00  0.00    +0.000 C 
ENDBRANCH  19  21
ENDBRANCH  18  19
ENDBRANCH  15  18
ENDBRANCH  14  15
ENDBRANCH   1  14
TORSDOF 6
ENDMDL
MODEL 2
REMARK VINA RESULT:      -7.1      0.773      1.124
REMARK  Name = 
REMARK  9 active torsions:
REMARK  status: ('A' for Active; 'I' for Inactive)
REMARK    1  A    between atoms: C_1  and  C_2
REMARK    2  A    between atoms: C_2  and  C_3
REMARK    3  A    between atoms: C_2  and  C_4
REMARK    4  A    between atoms: C_4  and  C_5
REMARK    5  A    between atoms: C_5  and  S_6
REMARK    6  A    between atoms: S_6  and  C_9
REMARK    7  A    between atoms: C_9  and  C_10
REMARK    8  A    between atoms: C_16  and  C_17
REMARK    9  A    between atoms: N_20  and  C_21
REMARK                            x       y       z     vdW  Elec       q    Type
REMARK                         _______ _______ _______ _____ _____    ______ ____
ROOT
ATOM      1  C   UNL     1       5.336   5.786  18.670  0.00  0.00    +0.000 C 
ATOM      2  O   UNL     1       5.520   5.189  19.734  0.00  0.00    +0.000 OA
ATOM      3  N   UNL     1       4.105   6.370  18.409  0.00  0.00    +0.000 N 
ATOM      4  C   UNL     1       3.688   7.119  17.237  0.00  0.00    +0.000 C 
ATOM      5  C   UNL     1       2.811   8.220  17.809  0.00  0.00    +0.000 C 
ATOM      6  C   UNL     1       2.124   7.562  18.999  0.00  0.00    +0.000 C 
ATOM      7  C   UNL     1       3.091   6.454  19.463  0.00  0.00    +0.000 C 
ENDROOT
BRANCH   7   8
ATOM      8  C   UNL     1       2.356   5.167  19.656  0.00  0.00    +0.000 A 
ATOM      9  C   UNL     1       1.734   4.729  20.852  0.00  0.00    +0.000 A 
ATOM     10  N   UNL     1       1.035   3.604  20.692  0.00  0.00    +0.000 NA
ATOM     11  N   UNL     1       1.251   3.280  19.407  0.00  0.00    +0.000 N 
ATOM     12  C   UNL     1       0.586   2.140  18.824  0.00  0.00    +0.000 C 
ATOM     13  C   UNL     1       2.045   4.173  18.747  0.00  0.00    +0.000 A 
ENDBRANCH   7   8
BRANCH   1  14
ATOM     14  C   UNL     1       6.460   6.030  17.689  0.00  0.00    +0.000 C 
BRANCH  14  15
ATOM     15  S   UNL     1       6.570   4.706  16.495  0.00  0.00    +0.000 S 
ATOM     16  O   UNL     1       5.589   3.702  16.865  0.00  0.00    +0.000 OA
ATOM     17  O   UNL     1       7.960   4.373  16.266  0.00  0.00    +0.000 OA
BRANCH  15  18
ATOM     18  C   UNL     1       5.995   5.445  14.961  0.00  0.00    +0.000 C 
BRANCH  18  19
ATOM     19  C   UNL     1       5.429   4.361  14.029  0.00  0.00    +0.000 C 
BRANCH  19  21
ATOM     20  C   UNL     1       5.712   2.956  11.959  0.00  0.00    +0.000 C 
ATOM     21  C   UNL     1       6.448   3.726  13.063  0.00  0.00    +0.000 C 
ATOM     22  C   UNL     1       7.372   4.762  12.424  0.00  0.00    +0.000 C 
ENDBRANCH  19  21
ENDBRANCH  18  19
ENDBRANCH  15  18
ENDBRANCH  14  15
ENDBRANCH   1  14
TORSDOF 6
ENDMDL
MODEL 3
REMARK VINA RESULT:      -6.9      1.767      3.358
REMARK  Name = 
REMARK  9 active torsions:
REMARK  status: ('A' for Active; 'I' for Inactive)
REMARK    1  A    between atoms: C_1  and  C_2
REMARK    2  A    between atoms: C_2  and  C_3
REMARK    3  A    between atoms: C_2  and  C_4
REMARK    4  A    between atoms: C_4  and  C_5
REMARK    5  A    between atoms: C_5  and  S_6
REMARK    6  A    between atoms: S_6  and  C_9
REMARK    7  A    between atoms: C_9  and  C_10
REMARK    8  A    between atoms: C_16  and  C_17
REMARK    9  A    between atoms: N_20  and  C_21
REMARK                            x       y       z     vdW  Elec       q    Type
REMARK                         _______ _______ _______ _____ _____    ______ ____
ROOT
ATOM      1  C   UNL     1       5.031   6.516  17.337  0.00  0.00    +0.000 C 
ATOM      2  O   UNL     1       4.471   7.153  16.441  0.00  0.00    +0.000 OA
ATOM      3  N   UNL     1       4.281   5.964  18.365  0.00  0.00    +0.000 N 
ATOM      4  C   UNL     1       4.736   5.178  19.498  0.00  0.00    +0.000 C 
ATOM      5  C   UNL     1       3.645   4.134  19.671  0.00  0.00    +0.000 C 
ATOM      6  C   UNL     1       2.368   4.868  19.279  0.00  0.00    +0.000 C 
ATOM      7  C   UNL     1       2.818   5.962  18.290  0.00  0.00    +0.000 C 
ENDROOT
BRANCH   7   8
ATOM      8  C   UNL     1       2.222   7.281  18.664  0.00  0.00    +0.000 A 
ATOM      9  C   UNL     1       1.850   7.692  19.969  0.00  0.00    +0.000 A 
ATOM     10  N   UNL     1       1.473   8.971  20.023  0.00  0.00    +0.000 NA
ATOM     11  N   UNL     1       1.547   9.374  18.744  0.00  0.00    +0.000 N 
ATOM     12  C   UNL     1       1.285  10.751  18.402  0.00  0.00    +0.000 C 
ATOM     13  C   UNL     1       1.975   8.400  17.890  0.00  0.00    +0.000 A 
ENDBRANCH   7   8
BRANCH   1  14
ATOM     14  C   UNL     1       6.506   6.190  17.281  0.00  0.00    +0.000 C 
BRANCH  14  15
ATOM     15  S   UNL     1       6.784   4.609  16.496  0.00  0.00    +0.000 S 
ATOM     16  O   UNL     1       5.594   3.803  16.702  0.00  0.00    +0.000 OA
ATOM     17  O   UNL     1       8.106   4.126  16.833  0.00  0.00    +0.000 OA
BRANCH  15  18
ATOM     18  C   UNL     1       6.847   4.992  14.741  0.00  0.00    +0.000 C 
BRANCH  18  19
ATOM     19  C   UNL     1       5.654   4.350  14.014  0.00  0.00    +0.000 C 
BRANCH  19  21
ATOM     20  C   UNL     1       4.786   3.337  11.879  0.00  0.00    +0.000 C 
ATOM     21  C   UNL     1       6.015   3.497  12.783  0.00  0.00    +0.000 C 
ATOM     22  C   UNL     1       7.162   4.098  11.971  0.00  0.00    +0.000 C 
ENDBRANCH  19  21
ENDBRANCH  18  19
ENDBRANCH  15  18
ENDBRANCH  14  15
ENDBRANCH   1  14
TORSDOF 6
ENDMDL
MODEL 4
REMARK VINA RESULT:      -6.8      1.829      2.868
REMARK  Name = 
REMARK  9 active torsions:
REMARK  status: ('A' for Active; 'I' for Inactive)
REMARK    1  A    between atoms: C_1  and  C_2
REMARK    2  A    between atoms: C_2  and  C_3
REMARK    3  A    between atoms: C_2  and  C_4
REMARK    4  A    between atoms: C_4  and  C_5
REMARK    5  A    between atoms: C_5  and  S_6
REMARK    6  A    between atoms: S_6  and  C_9
REMARK    7  A    between atoms: C_9  and  C_10
REMARK    8  A    between atoms: C_16  and  C_17
REMARK    9  A    between atoms: N_20  and  C_21
REMARK                            x       y       z     vdW  Elec       q    Type
REMARK                         _______ _______ _______ _____ _____    ______ ____
ROOT
ATOM      1  C   UNL     1       5.182   5.050  16.257  0.00  0.00    +0.000 C 
ATOM      2  O   UNL     1       4.487   4.030  16.293  0.00  0.00    +0.000 OA
ATOM      3  N   UNL     1       5.727   5.557  17.427  0.00  0.00    +0.000 N 
ATOM      4  C   UNL     1       6.573   6.725  17.602  0.00  0.00    +0.000 C 
ATOM      5  C   UNL     1       7.562   6.294  18.671  0.00  0.00    +0.000 C 
ATOM      6  C   UNL     1       6.750   5.376  19.576  0.00  0.00    +0.000 C 
ATOM      7  C   UNL     1       5.649   4.786  18.670  0.00  0.00    +0.000 C 
ENDROOT
BRANCH   7   8
ATOM      8  C   UNL     1       4.314   4.897  19.332  0.00  0.00    +0.000 A 
ATOM      9  C   UNL     1       3.528   6.073  19.440  0.00  0.00    +0.000 A 
ATOM     10  N   UNL     1       2.321   5.844  19.960  0.00  0.00    +0.000 NA
ATOM     11  N   UNL     1       2.344   4.532  20.242  0.00  0.00    +0.000 N 
ATOM     12  C   UNL     1       1.165   3.880  20.759  0.00  0.00    +0.000 C 
ATOM     13  C   UNL     1       3.516   3.922  19.901  0.00  0.00    +0.000 A 
ENDBRANCH   7   8
BRANCH   1  14
ATOM     14  C   UNL     1       5.584   5.694  14.950  0.00  0.00    +0.000 C 
BRANCH  14  15
ATOM     15  S   UNL     1       7.025   4.897  14.257  0.00  0.00    +0.000 S 
ATOM     16  O   UNL     1       7.805   4.369  15.361  0.00  0.00    +0.000 OA
ATOM     17  O   UNL     1       7.609   5.747  13.242  0.00  0.00    +0.000 OA
BRANCH  15  18
ATOM     18  C   UNL     1       6.363   3.480  13.372  0.00  0.00    +0.000 C 
BRANCH  18  19
ATOM     19  C   UNL     1       5.109   3.886  12.580  0.00  0.00    +0.000 C 
BRANCH  19  21
ATOM     20  C   UNL     1       3.742   3.413  10.519  0.00  0.00    +0.000 C 
ATOM     21  C   UNL     1       4.507   2.782  11.690  0.00  0.00    +0.000 C 
ATOM     22  C   UNL     1       5.568   1.828  11.142  0.00  0.00    +0.000 C 
ENDBRANCH  19  21
ENDBRANCH  18  19
ENDBRANCH  15  18
ENDBRANCH  14  15
ENDBRANCH   1  14
TORSDOF 6
ENDMDL
MODEL 5
REMARK VINA RESULT:      -6.7      2.785      6.349
REMARK  Name = 
REMARK  9 active torsions:
REMARK  status: ('A' for Active; 'I' for Inactive)
REMARK    1  A    between atoms: C_1  and  C_2
REMARK    2  A    between atoms: C_2  and  C_3
REMARK    3  A    between atoms: C_2  and  C_4
REMARK    4  A    between atoms: C_4  and  C_5
REMARK    5  A    between atoms: C_5  and  S_6
REMARK    6  A    between atoms: S_6  and  C_9
REMARK    7  A    between atoms: C_9  and  C_10
REMARK    8  A    between atoms: C_16  and  C_17
REMARK    9  A    between atoms: N_20  and  C_21
REMARK                            x       y       z     vdW  Elec       q    Type
REMARK                         _______ _______ _______ _____ _____    ______ ____
ROOT
ATOM      1  C   UNL     1       4.933   3.721  18.416  0.00  0.00    +0.000 C 
ATOM      2  O   UNL     1       5.690   3.670  19.390  0.00  0.00    +0.000 OA
ATOM      3  N   UNL     1       5.402   4.201  17.201  0.00  0.00    +0.000 N 
ATOM      4  C   UNL     1       4.688   4.333  15.943  0.00  0.00    +0.000 C 
ATOM      5  C   UNL     1       5.728   3.958  14.901  0.00  0.00    +0.000 C 
ATOM      6  C   UNL     1       7.038   4.473  15.485  0.00  0.00    +0.000 C 
ATOM      7  C   UNL     1       6.831   4.460  17.014  0.00  0.00    +0.000 C 
ENDROOT
BRANCH   7   8
ATOM      8  C   UNL     1       7.261   5.762  17.609  0.00  0.00    +0.000 A 
ATOM      9  C   UNL     1       7.957   5.934  18.833  0.00  0.00    +0.000 A 
ATOM     10  N   UNL     1       8.330   7.198  19.044  0.00  0.00    +0.000 NA
ATOM     11  N   UNL     1       7.827   7.855  17.987  0.00  0.00    +0.000 N 
ATOM     12  C   UNL     1       8.091   9.262  17.815  0.00  0.00    +0.000 C 
ATOM     13  C   UNL     1       7.166   7.047  17.107  0.00  0.00    +0.000 A 
ENDBRANCH   7   8
BRANCH   1  14
ATOM     14  C   UNL     1       3.539   3.140  18.459  0.00  0.00    +0.000 C 
BRANCH  14  15
ATOM     15  S   UNL     1       2.339   4.383  18.914  0.00  0.00    +0.000 S 
ATOM     16  O   UNL     1       1.686   3.935  20.131  0.00  0.00    +0.000 OA
ATOM     17  O   UNL     1       1.588   4.785  17.744  0.00  0.00    +0.000 OA
BRANCH  15  18
ATOM     18  C   UNL     1       3.332   5.813  19.361  0.00  0.00    +0.000 C 
BRANCH  18  19
ATOM     19  C   UNL     1       2.463   7.081  19.371  0.00  0.00    +0.000 C 
BRANCH  19  21
ATOM     20  C   UNL     1       1.888   9.254  18.236  0.00  0.00    +0.000 C 
ATOM     21  C   UNL     1       2.338   7.804  18.016  0.00  0.00    +0.000 C 
ATOM     22  C   UNL     1       3.647   7.798  17.227  0.00  0.00    +0.000 C 
ENDBRANCH  19  21
ENDBRANCH  18  19
ENDBRANCH  15  18
ENDBRANCH  14  15
ENDBRANCH   1  14
TORSDOF 6
ENDMDL
MODEL 6
REMARK VINA RESULT:      -6.7      1.013      1.392
REMARK  Name = 
REMARK  9 active torsions:
REMARK  status: ('A' for Active; 'I' for Inactive)
REMARK    1  A    between atoms: C_1  and  C_2
REMARK    2  A    between atoms: C_2  and  C_3
REMARK    3  A    between atoms: C_2  and  C_4
REMARK    4  A    between atoms: C_4  and  C_5
REMARK    5  A    between atoms: C_5  and  S_6
REMARK    6  A    between atoms: S_6  and  C_9
REMARK    7  A    between atoms: C_9  and  C_10
REMARK    8  A    between atoms: C_16  and  C_17
REMARK    9  A    between atoms: N_20  and  C_21
REMARK                            x       y       z     vdW  Elec       q    Type
REMARK                         _______ _______ _______ _____ _____    ______ ____
ROOT
ATOM      1  C   UNL     1       5.307   6.019  18.042  0.00  0.00    +0.000 C 
ATOM      2  O   UNL     1       5.531   5.174  18.914  0.00  0.00    +0.000 OA
ATOM      3  N   UNL     1       4.058   6.616  17.963  0.00  0.00    +0.000 N 
ATOM      4  C   UNL     1       3.594   7.629  17.031  0.00  0.00    +0.000 C 
ATOM      5  C   UNL     1       2.709   8.522  17.884  0.00  0.00    +0.000 C 
ATOM      6  C   UNL     1       2.067   7.562  18.879  0.00  0.00    +0.000 C 
ATOM      7  C   UNL     1       3.070   6.399  19.023  0.00  0.00    +0.000 C 
ENDROOT
BRANCH   7   8
ATOM      8  C   UNL     1       2.368   5.085  18.893  0.00  0.00    +0.000 A 
ATOM      9  C   UNL     1       1.759   4.574  17.719  0.00  0.00    +0.000 A 
ATOM     10  N   UNL     1       1.330   3.319  17.861  0.00  0.00    +0.000 NA
ATOM     11  N   UNL     1       1.610   3.035  19.143  0.00  0.00    +0.000 N 
ATOM     12  C   UNL     1       1.358   1.714  19.665  0.00  0.00    +0.000 C 
ATOM     13  C   UNL     1       2.217   4.061  19.808  0.00  0.00    +0.000 A 
ENDBRANCH   7   8
BRANCH   1  14
ATOM     14  C   UNL     1       6.400   6.538  17.135  0.00  0.00    +0.000 C 
BRANCH  14  15
ATOM     15  S   UNL     1       7.025   5.242  16.076  0.00  0.00    +0.000 S 
ATOM     16  O   UNL     1       7.594   4.216  16.930  0.00  0.00    +0.000 OA
ATOM     17  O   UNL     1       7.767   5.828  14.980  0.00  0.00    +0.000 OA
BRANCH  15  18
ATOM     18  C   UNL     1       5.552   4.532  15.331  0.00  0.00    +0.000 C 
BRANCH  18  19
ATOM     19  C   UNL     1       5.943   3.513  14.248  0.00  0.00    +0.000 C 
BRANCH  19  21
ATOM     20  C   UNL     1       7.167   3.923  12.086  0.00  0.00    +0.000 C 
ATOM     21  C   UNL     1       5.810   4.012  12.796  0.00  0.00    +0.000 C 
ATOM     22  C   UNL     1       4.772   3.222  11.999  0.00  0.00    +0.000 C 
ENDBRANCH  19  21
ENDBRANCH  18  19
ENDBRANCH  15  18
ENDBRANCH  14  15
ENDBRANCH   1  14
TORSDOF 6
ENDMDL
MODEL 7
REMARK VINA RESULT:      -6.6      2.850      6.538
REMARK  Name = 
REMARK  9 active torsions:
REMARK  status: ('A' for Active; 'I' for Inactive)
REMARK    1  A    between atoms: C_1  and  C_2
REMARK    2  A    between atoms: C_2  and  C_3
REMARK    3  A    between atoms: C_2  and  C_4
REMARK    4  A    between atoms: C_4  and  C_5
REMARK    5  A    between atoms: C_5  and  S_6
REMARK    6  A    between atoms: S_6  and  C_9
REMARK    7  A    between atoms: C_9  and  C_10
REMARK    8  A    between atoms: C_16  and  C_17
REMARK    9  A    between atoms: N_20  and  C_21
REMARK                            x       y       z     vdW  Elec       q    Type
REMARK                         _______ _______ _______ _____ _____    ______ ____
ROOT
ATOM      1  C   UNL     1       4.877   3.710  18.279  0.00  0.00    +0.000 C 
ATOM      2  O   UNL     1       5.622   3.586  19.255  0.00  0.00    +0.000 OA
ATOM      3  N   UNL     1       5.372   4.233  17.094  0.00  0.00    +0.000 N 
ATOM      4  C   UNL     1       4.676   4.450  15.838  0.00  0.00    +0.000 C 
ATOM      5  C   UNL     1       5.713   4.092  14.787  0.00  0.00    +0.000 C 
ATOM      6  C   UNL     1       7.033   4.534  15.406  0.00  0.00    +0.000 C 
ATOM      7  C   UNL     1       6.811   4.454  16.931  0.00  0.00    +0.000 C 
ENDROOT
BRANCH   7   8
ATOM      8  C   UNL     1       7.278   5.710  17.593  0.00  0.00    +0.000 A 
ATOM      9  C   UNL     1       7.914   5.804  18.857  0.00  0.00    +0.000 A 
ATOM     10  N   UNL     1       8.342   7.037  19.132  0.00  0.00    +0.000 NA
ATOM     11  N   UNL     1       7.935   7.755  18.073  0.00  0.00    +0.000 N 
ATOM     12  C   UNL     1       8.285   9.150  17.964  0.00  0.00    +0.000 C 
ATOM     13  C   UNL     1       7.281   7.013  17.131  0.00  0.00    +0.000 A 
ENDBRANCH   7   8
BRANCH   1  14
ATOM     14  C   UNL     1       3.464   3.175  18.283  0.00  0.00    +0.000 C 
BRANCH  14  15
ATOM     15  S   UNL     1       2.371   4.249  19.202  0.00  0.00    +0.000 S 
ATOM     16  O   UNL     1       3.176   4.955  20.182  0.00  0.00    +0.000 OA
ATOM     17  O   UNL     1       1.174   3.525  19.569  0.00  0.00    +0.000 OA
BRANCH  15  18
ATOM     18  C   UNL     1       1.840   5.473  17.997  0.00  0.00    +0.000 C 
BRANCH  18  19
ATOM     19  C   UNL     1       2.607   6.789  18.203  0.00  0.00    +0.000 C 
BRANCH  19  21
ATOM     20  C   UNL     1       1.720   8.245  20.056  0.00  0.00    +0.000 C 
ATOM     21  C   UNL     1       1.735   8.014  18.539  0.00  0.00    +0.000 C 
ATOM     22  C   UNL     1       2.218   9.285  17.842  0.00  0.00    +0.000 C 
ENDBRANCH  19  21
ENDBRANCH  18  19
ENDBRANCH  15  18
ENDBRANCH  14  15
ENDBRANCH   1  14
TORSDOF 6
ENDMDL
MODEL 8
REMARK VINA RESULT:      -6.6      1.838      3.114
REMARK  Name = 
REMARK  9 active torsions:
REMARK  status: ('A' for Active; 'I' for Inactive)
REMARK    1  A    between atoms: C_1  and  C_2
REMARK    2  A    between atoms: C_2  and  C_3
REMARK    3  A    between atoms: C_2  and  C_4
REMARK    4  A    between atoms: C_4  and  C_5
REMARK    5  A    between atoms: C_5  and  S_6
REMARK    6  A    between atoms: S_6  and  C_9
REMARK    7  A    between atoms: C_9  and  C_10
REMARK    8  A    between atoms: C_16  and  C_17
REMARK    9  A    between atoms: N_20  and  C_21
REMARK                            x       y       z     vdW  Elec       q    Type
REMARK                         _______ _______ _______ _____ _____    ______ ____
ROOT
ATOM      1  C   UNL     1       5.039   6.090  18.093  0.00  0.00    +0.000 C 
ATOM      2  O   UNL     1       4.970   7.198  17.552  0.00  0.00    +0.000 OA
ATOM      3  N   UNL     1       3.880   5.447  18.502  0.00  0.00    +0.000 N 
ATOM      4  C   UNL     1       3.740   4.151  19.141  0.00  0.00    +0.000 C 
ATOM      5  C   UNL     1       2.481   3.577  18.514  0.00  0.00    +0.000 C 
ATOM      6  C   UNL     1       1.595   4.795  18.286  0.00  0.00    +0.000 C 
ATOM      7  C   UNL     1       2.569   5.979  18.120  0.00  0.00    +0.000 C 
ENDROOT
BRANCH   7   8
ATOM      8  C   UNL     1       2.145   7.128  18.976  0.00  0.00    +0.000 A 
ATOM      9  C   UNL     1       1.815   8.432  18.526  0.00  0.00    +0.000 A 
ATOM     10  N   UNL     1       1.340   9.212  19.498  0.00  0.00    +0.000 NA
ATOM     11  N   UNL     1       1.414   8.435  20.590  0.00  0.00    +0.000 N 
ATOM     12  C   UNL     1       0.908   8.910  21.854  0.00  0.00    +0.000 C 
ATOM     13  C   UNL     1       1.902   7.185  20.336  0.00  0.00    +0.000 A 
ENDBRANCH   7   8
BRANCH   1  14
ATOM     14  C   UNL     1       6.345   5.336  18.200  0.00  0.00    +0.000 C 
BRANCH  14  15
ATOM     15  S   UNL     1       7.138   5.196  16.605  0.00  0.00    +0.000 S 
ATOM     16  O   UNL     1       8.043   4.063  16.666  0.00  0.00    +0.000 OA
ATOM     17  O   UNL     1       7.573   6.503  16.163  0.00  0.00    +0.000 OA
BRANCH  15  18
ATOM     18  C   UNL     1       5.808   4.731  15.490  0.00  0.00    +0.000 C 
BRANCH  18  19
ATOM     19  C   UNL     1       6.330   3.763  14.414  0.00  0.00    +0.000 C 
BRANCH  19  21
ATOM     20  C   UNL     1       7.236   3.981  12.075  0.00  0.00    +0.000 C 
ATOM     21  C   UNL     1       5.995   4.152  12.962  0.00  0.00    +0.000 C 
ATOM     22  C   UNL     1       4.847   3.324  12.384  0.00  0.00    +0.000 C 
ENDBRANCH  19  21
ENDBRANCH  18  19
ENDBRANCH  15  18
ENDBRANCH  14  15
ENDBRANCH   1  14
TORSDOF 6
ENDMDL
MODEL 9
REMARK VINA RESULT:      -6.6      1.733      3.126
REMARK  Name = 
REMARK  9 active torsions:
REMARK  status: ('A' for Active; 'I' for Inactive)
REMARK    1  A    between atoms: C_1  and  C_2
REMARK    2  A    between atoms: C_2  and  C_3
REMARK    3  A    between atoms: C_2  and  C_4
REMARK    4  A    between atoms: C_4  and  C_5
REMARK    5  A    between atoms: C_5  and  S_6
REMARK    6  A    between atoms: S_6  and  C_9
REMARK    7  A    between atoms: C_9  and  C_10
REMARK    8  A    between atoms: C_16  and  C_17
REMARK    9  A    between atoms: N_20  and  C_21
REMARK                            x       y       z     vdW  Elec       q    Type
REMARK                         _______ _______ _______ _____ _____    ______ ____
ROOT
ATOM      1  C   UNL     1       5.001   6.475  17.764  0.00  0.00    +0.000 C 
ATOM      2  O   UNL     1       4.577   7.245  16.896  0.00  0.00    +0.000 OA
ATOM      3  N   UNL     1       4.118   5.899  18.666  0.00  0.00    +0.000 N 
ATOM      4  C   UNL     1       4.404   4.969  19.744  0.00  0.00    +0.000 C 
ATOM      5  C   UNL     1       3.218   4.020  19.722  0.00  0.00    +0.000 C 
ATOM      6  C   UNL     1       2.047   4.903  19.308  0.00  0.00    +0.000 C 
ATOM      7  C   UNL     1       2.673   6.040  18.475  0.00  0.00    +0.000 C 
ENDROOT
BRANCH   7   8
ATOM      8  C   UNL     1       2.160   7.367  18.934  0.00  0.00    +0.000 A 
ATOM      9  C   UNL     1       1.897   8.493  18.114  0.00  0.00    +0.000 A 
ATOM     10  N   UNL     1       1.316   9.494  18.778  0.00  0.00    +0.000 NA
ATOM     11  N   UNL     1       1.255   9.040  20.040  0.00  0.00    +0.000 N 
ATOM     12  C   UNL     1       0.607   9.826  21.062  0.00  0.00    +0.000 C 
ATOM     13  C   UNL     1       1.759   7.781  20.191  0.00  0.00    +0.000 A 
ENDBRANCH   7   8
BRANCH   1  14
ATOM     14  C   UNL     1       6.441   6.020  17.791  0.00  0.00    +0.000 C 
BRANCH  14  15
ATOM     15  S   UNL     1       6.687   4.600  16.735  0.00  0.00    +0.000 S 
ATOM     16  O   UNL     1       5.579   3.691  16.961  0.00  0.00    +0.000 OA
ATOM     17  O   UNL     1       8.066   4.166  16.818  0.00  0.00    +0.000 OA
BRANCH  15  18
ATOM     18  C   UNL     1       6.489   5.248  15.071  0.00  0.00    +0.000 C 
BRANCH  18  19
ATOM     19  C   UNL     1       5.634   4.289  14.226  0.00  0.00    +0.000 C 
BRANCH  19  21
ATOM     20  C   UNL     1       5.315   3.141  12.007  0.00  0.00    +0.000 C 
ATOM     21  C   UNL     1       6.349   3.665  13.013  0.00  0.00    +0.000 C 
ATOM     22  C   UNL     1       7.279   4.654  12.309  0.00  0.00    +0.000 C 
ENDBRANCH  19  21
ENDBRANCH  18  19
ENDBRANCH  15  18
ENDBRANCH  14  15
ENDBRANCH   1  14
TORSDOF 6
ENDMDL
