MODEL 1
REMARK VINA RESULT:      -7.0      0.000      0.000
REMARK  Name = 
REMARK  4 active torsions:
REMARK  status: ('A' for Active; 'I' for Inactive)
REMARK    1  A    between atoms: C_2  and  C_11
REMARK    2  A    between atoms: N_3  and  N_4
REMARK    3  A    between atoms: C_5  and  C_6
REMARK    4  A    between atoms: C_13  and  C_14
REMARK                            x       y       z     vdW  Elec       q    Type
REMARK                         _______ _______ _______ _____ _____    ______ ____
ROOT
ATOM      1  O   UNL     1       1.036   4.708  20.633  0.00  0.00    +0.000 OA
ATOM      2  C   UNL     1       1.954   5.325  20.105  0.00  0.00    +0.000 C 
ATOM      3  N   UNL     1       2.204   6.681  20.247  0.00  0.00    +0.000 N 
ATOM      4  H   UNL     1       2.979   7.114  19.761  0.00  0.00    +0.000 HD
ENDROOT
BRANCH   2   5
ATOM      5  C   UNL     1       2.923   4.627  19.210  0.00  0.00    +0.000 C 
ATOM      6  C   UNL     1       2.422   3.742  18.097  0.00  0.00    +0.000 C 
ATOM      7  C   UNL     1       3.057   5.072  17.761  0.00  0.00    +0.000 C 
BRANCH   7   8
ATOM      8  C   UNL     1       4.417   5.104  17.101  0.00  0.00    +0.000 A 
ATOM      9  C   UNL     1       4.837   4.064  16.254  0.00  0.00    +0.000 A 
ATOM     10  C   UNL     1       6.098   4.074  15.653  0.00  0.00    +0.000 A 
ATOM     11  C   UNL     1       6.969   5.135  15.881  0.00  0.00    +0.000 A 
ATOM     12  C   UNL     1       6.569   6.192  16.694  0.00  0.00    +0.000 A 
ATOM     13  C   UNL     1       5.304   6.177  17.289  0.00  0.00    +0.000 A 
ENDBRANCH   7   8
ENDBRANCH   2   5
BRANCH   3  14
ATOM     14  N   UNL     1       1.412   7.433  21.066  0.00  0.00    +0.000 NA
ATOM     15  C   UNL     1       1.250   8.670  20.724  0.00  0.00    +0.000 C 
BRANCH  15  16
ATOM     16  C   UNL     1       0.443   9.533  21.542  0.00  0.00    +0.000 A 
ATOM     17  C   UNL     1      -0.316   9.227  22.658  0.00  0.00    +0.000 A 
ATOM     18  C   UNL     1      -0.940  10.421  23.099  0.00  0.00    +0.000 A 
ATOM     19  C   UNL     1      -0.548  11.427  22.246  0.00  0.00    +0.000 A 
ATOM     20  N   UNL     1       0.295  10.884  21.313  0.00  0.00    +0.000 N 
ATOM     21  H   UNL     1       0.748  11.378  20.553  0.00  0.00    +0.000 HD
ENDBRANCH  15  16
ENDBRANCH   3  14
TORSDOF 4
ENDMDL
MODEL 2
REMARK VINA RESULT:      -7.0      5.554      7.313
REMARK  Name = 
REMARK  4 active torsions:
REMARK  status: ('A' for Active; 'I' for Inactive)
REMARK    1  A    between atoms: C_2  and  C_11
REMARK    2  A    between atoms: N_3  and  N_4
REMARK    3  A    between atoms: C_5  and  C_6
REMARK    4  A    between atoms: C_13  and  C_14
REMARK                            x       y       z     vdW  Elec       q    Type
REMARK                         _______ _______ _______ _____ _____    ______ ____
ROOT
ATOM      1  O   UNL     1       7.529   6.834  16.135  0.00  0.00    +0.000 OA
ATOM      2  C   UNL     1       7.455   6.706  17.351  0.00  0.00    +0.000 C 
ATOM      3  N   UNL     1       7.871   7.637  18.290  0.00  0.00    +0.000 N 
ATOM      4  H   UNL     1       7.786   7.444  19.280  0.00  0.00    +0.000 HD
ENDROOT
BRANCH   2   5
ATOM      5  C   UNL     1       6.887   5.464  17.952  0.00  0.00    +0.000 C 
ATOM      6  C   UNL     1       6.709   5.359  19.446  0.00  0.00    +0.000 C 
ATOM      7  C   UNL     1       5.493   5.496  18.560  0.00  0.00    +0.000 C 
BRANCH   7   8
ATOM      8  C   UNL     1       4.562   4.318  18.384  0.00  0.00    +0.000 A 
ATOM      9  C   UNL     1       3.639   4.274  17.325  0.00  0.00    +0.000 A 
ATOM     10  C   UNL     1       2.761   3.199  17.164  0.00  0.00    +0.000 A 
ATOM     11  C   UNL     1       2.793   2.135  18.058  0.00  0.00    +0.000 A 
ATOM     12  C   UNL     1       3.715   2.138  19.101  0.00  0.00    +0.000 A 
ATOM     13  C   UNL     1       4.593   3.216  19.255  0.00  0.00    +0.000 A 
ENDBRANCH   7   8
ENDBRANCH   2   5
BRANCH   3  14
ATOM     14  N   UNL     1       8.380   8.835  17.875  0.00  0.00    +0.000 NA
ATOM     15  C   UNL     1       8.876   9.594  18.797  0.00  0.00    +0.000 C 
BRANCH  15  16
ATOM     16  C   UNL     1       9.419  10.878  18.444  0.00  0.00    +0.000 A 
ATOM     17  C   UNL     1      10.668  11.408  18.716  0.00  0.00    +0.000 A 
ATOM     18  C   UNL     1      10.713  12.714  18.168  0.00  0.00    +0.000 A 
ATOM     19  C   UNL     1       9.495  12.952  17.575  0.00  0.00    +0.000 A 
ATOM     20  N   UNL     1       8.721  11.834  17.739  0.00  0.00    +0.000 N 
ATOM     21  H   UNL     1       7.772  11.706  17.407  0.00  0.00    +0.000 HD
ENDBRANCH  15  16
ENDBRANCH   3  14
TORSDOF 4
ENDMDL
MODEL 3
REMARK VINA RESULT:      -6.9      5.143      7.157
REMARK  Name = 
REMARK  4 active torsions:
REMARK  status: ('A' for Active; 'I' for Inactive)
REMARK    1  A    between atoms: C_2  and  C_11
REMARK    2  A    between atoms: N_3  and  N_4
REMARK    3  A    between atoms: C_5  and  C_6
REMARK    4  A    between atoms: C_13  and  C_14
REMARK                            x       y       z     vdW  Elec       q    Type
REMARK                         _______ _______ _______ _____ _____    ______ ____
ROOT
ATOM      1  O   UNL     1       6.140   7.259  16.214  0.00  0.00    +0.000 OA
ATOM      2  C   UNL     1       6.599   6.808  17.256  0.00  0.00    +0.000 C 
ATOM      3  N   UNL     1       7.613   7.380  18.009  0.00  0.00    +0.000 N 
ATOM      4  H   UNL     1       7.943   6.931  18.854  0.00  0.00    +0.000 HD
ENDROOT
BRANCH   2   5
ATOM      5  C   UNL     1       6.081   5.529  17.825  0.00  0.00    +0.000 C 
ATOM      6  C   UNL     1       6.112   5.296  19.315  0.00  0.00    +0.000 C 
ATOM      7  C   UNL     1       4.787   5.537  18.627  0.00  0.00    +0.000 C 
BRANCH   7   8
ATOM      8  C   UNL     1       3.802   4.399  18.486  0.00  0.00    +0.000 A 
ATOM      9  C   UNL     1       4.161   3.083  18.825  0.00  0.00    +0.000 A 
ATOM     10  C   UNL     1       3.264   2.021  18.681  0.00  0.00    +0.000 A 
ATOM     11  C   UNL     1       1.979   2.254  18.203  0.00  0.00    +0.000 A 
ATOM     12  C   UNL     1       1.587   3.552  17.886  0.00  0.00    +0.000 A 
ATOM     13  C   UNL     1       2.488   4.611  18.035  0.00  0.00    +0.000 A 
ENDBRANCH   7   8
ENDBRANCH   2   5
BRANCH   3  14
ATOM     14  N   UNL     1       8.155   8.572  17.620  0.00  0.00    +0.000 NA
ATOM     15  C   UNL     1       8.589   9.338  18.567  0.00  0.00    +0.000 C 
BRANCH  15  16
ATOM     16  C   UNL     1       9.160  10.616  18.241  0.00  0.00    +0.000 A 
ATOM     17  C   UNL     1      10.481  11.025  18.290  0.00  0.00    +0.000 A 
ATOM     18  C   UNL     1      10.530  12.382  17.885  0.00  0.00    +0.000 A 
ATOM     19  C   UNL     1       9.241  12.770  17.597  0.00  0.00    +0.000 A 
ATOM     20  N   UNL     1       8.420  11.694  17.806  0.00  0.00    +0.000 N 
ATOM     21  H   UNL     1       7.416  11.671  17.676  0.00  0.00    +0.000 HD
ENDBRANCH  15  16
ENDBRANCH   3  14
TORSDOF 4
ENDMDL
MODEL 4
REMARK VINA RESULT:      -6.9      5.019      7.343
REMARK  Name = 
REMARK  4 active torsions:
REMARK  status: ('A' for Active; 'I' for Inactive)
REMARK    1  A    between atoms: C_2  and  C_11
REMARK    2  A    between atoms: N_3  and  N_4
REMARK    3  A    between atoms: C_5  and  C_6
REMARK    4  A    between atoms: C_13  and  C_14
REMARK                            x       y       z     vdW  Elec       q    Type
REMARK                         _______ _______ _______ _____ _____    ______ ____
ROOT
ATOM      1  O   UNL     1       7.750   6.229  18.397  0.00  0.00    +0.000 OA
ATOM      2  C   UNL     1       7.012   6.938  17.725  0.00  0.00    +0.000 C 
ATOM      3  N   UNL     1       7.260   8.254  17.365  0.00  0.00    +0.000 N 
ATOM      4  H   UNL     1       6.587   8.774  16.817  0.00  0.00    +0.000 HD
ENDROOT
BRANCH   2   5
ATOM      5  C   UNL     1       5.708   6.416  17.220  0.00  0.00    +0.000 C 
ATOM      6  C   UNL     1       5.627   5.777  15.856  0.00  0.00    +0.000 C 
ATOM      7  C   UNL     1       5.503   4.914  17.091  0.00  0.00    +0.000 C 
BRANCH   7   8
ATOM      8  C   UNL     1       4.167   4.298  17.440  0.00  0.00    +0.000 A 
ATOM      9  C   UNL     1       4.013   2.905  17.535  0.00  0.00    +0.000 A 
ATOM     10  C   UNL     1       2.779   2.325  17.839  0.00  0.00    +0.000 A 
ATOM     11  C   UNL     1       1.668   3.130  18.065  0.00  0.00    +0.000 A 
ATOM     12  C   UNL     1       1.797   4.515  18.005  0.00  0.00    +0.000 A 
ATOM     13  C   UNL     1       3.036   5.089  17.704  0.00  0.00    +0.000 A 
ENDBRANCH   7   8
ENDBRANCH   2   5
BRANCH   3  14
ATOM     14  N   UNL     1       8.435   8.845  17.734  0.00  0.00    +0.000 NA
ATOM     15  C   UNL     1       8.344  10.044  18.212  0.00  0.00    +0.000 C 
BRANCH  15  16
ATOM     16  C   UNL     1       9.536  10.741  18.610  0.00  0.00    +0.000 A 
ATOM     17  C   UNL     1      10.019  11.000  19.881  0.00  0.00    +0.000 A 
ATOM     18  C   UNL     1      11.224  11.734  19.747  0.00  0.00    +0.000 A 
ATOM     19  C   UNL     1      11.450  11.906  18.400  0.00  0.00    +0.000 A 
ATOM     20  N   UNL     1      10.430  11.295  17.720  0.00  0.00    +0.000 N 
ATOM     21  H   UNL     1      10.322  11.250  16.713  0.00  0.00    +0.000 HD
ENDBRANCH  15  16
ENDBRANCH   3  14
TORSDOF 4
ENDMDL
MODEL 5
REMARK VINA RESULT:      -6.9      4.949      7.361
REMARK  Name = 
REMARK  4 active torsions:
REMARK  status: ('A' for Active; 'I' for Inactive)
REMARK    1  A    between atoms: C_2  and  C_11
REMARK    2  A    between atoms: N_3  and  N_4
REMARK    3  A    between atoms: C_5  and  C_6
REMARK    4  A    between atoms: C_13  and  C_14
REMARK                            x       y       z     vdW  Elec       q    Type
REMARK                         _______ _______ _______ _____ _____    ______ ____
ROOT
ATOM      1  O   UNL     1       7.793   6.112  18.645  0.00  0.00    +0.000 OA
ATOM      2  C   UNL     1       7.131   6.760  17.843  0.00  0.00    +0.000 C 
ATOM      3  N   UNL     1       7.385   8.064  17.449  0.00  0.00    +0.000 N 
ATOM      4  H   UNL     1       6.776   8.530  16.789  0.00  0.00    +0.000 HD
ENDROOT
BRANCH   2   5
ATOM      5  C   UNL     1       5.924   6.164  17.198  0.00  0.00    +0.000 C 
ATOM      6  C   UNL     1       6.080   5.176  16.069  0.00  0.00    +0.000 C 
ATOM      7  C   UNL     1       5.606   4.693  17.420  0.00  0.00    +0.000 C 
BRANCH   7   8
ATOM      8  C   UNL     1       4.172   4.245  17.591  0.00  0.00    +0.000 A 
ATOM      9  C   UNL     1       3.142   5.176  17.808  0.00  0.00    +0.000 A 
ATOM     10  C   UNL     1       1.816   4.773  17.986  0.00  0.00    +0.000 A 
ATOM     11  C   UNL     1       1.488   3.422  17.940  0.00  0.00    +0.000 A 
ATOM     12  C   UNL     1       2.483   2.479  17.699  0.00  0.00    +0.000 A 
ATOM     13  C   UNL     1       3.808   2.890  17.519  0.00  0.00    +0.000 A 
ENDBRANCH   7   8
ENDBRANCH   2   5
BRANCH   3  14
ATOM     14  N   UNL     1       8.480   8.717  17.939  0.00  0.00    +0.000 NA
ATOM     15  C   UNL     1       8.366   9.998  18.078  0.00  0.00    +0.000 C 
BRANCH  15  16
ATOM     16  C   UNL     1       9.478  10.761  18.573  0.00  0.00    +0.000 A 
ATOM     17  C   UNL     1       9.894  10.961  19.878  0.00  0.00    +0.000 A 
ATOM     18  C   UNL     1      11.034  11.802  19.846  0.00  0.00    +0.000 A 
ATOM     19  C   UNL     1      11.290  12.095  18.526  0.00  0.00    +0.000 A 
ATOM     20  N   UNL     1      10.350  11.454  17.762  0.00  0.00    +0.000 N 
ATOM     21  H   UNL     1      10.281  11.477  16.752  0.00  0.00    +0.000 HD
ENDBRANCH  15  16
ENDBRANCH   3  14
TORSDOF 4
ENDMDL
MODEL 6
REMARK VINA RESULT:      -6.9      5.118      7.632
REMARK  Name = 
REMARK  4 active torsions:
REMARK  status: ('A' for Active; 'I' for Inactive)
REMARK    1  A    between atoms: C_2  and  C_11
REMARK    2  A    between atoms: N_3  and  N_4
REMARK    3  A    between atoms: C_5  and  C_6
REMARK    4  A    between atoms: C_13  and  C_14
REMARK                            x       y       z     vdW  Elec       q    Type
REMARK                         _______ _______ _______ _____ _____    ______ ____
ROOT
ATOM      1  O   UNL     1       7.985   6.835  16.406  0.00  0.00    +0.000 OA
ATOM      2  C   UNL     1       7.101   7.353  17.077  0.00  0.00    +0.000 C 
ATOM      3  N   UNL     1       7.272   8.392  17.979  0.00  0.00    +0.000 N 
ATOM      4  H   UNL     1       6.486   8.752  18.504  0.00  0.00    +0.000 HD
ENDROOT
BRANCH   2   5
ATOM      5  C   UNL     1       5.691   6.873  16.977  0.00  0.00    +0.000 C 
ATOM      6  C   UNL     1       5.304   5.876  15.914  0.00  0.00    +0.000 C 
ATOM      7  C   UNL     1       5.360   5.438  17.360  0.00  0.00    +0.000 C 
BRANCH   7   8
ATOM      8  C   UNL     1       4.077   5.126  18.094  0.00  0.00    +0.000 A 
ATOM      9  C   UNL     1       3.005   4.490  17.445  0.00  0.00    +0.000 A 
ATOM     10  C   UNL     1       1.807   4.214  18.109  0.00  0.00    +0.000 A 
ATOM     11  C   UNL     1       1.657   4.561  19.447  0.00  0.00    +0.000 A 
ATOM     12  C   UNL     1       2.712   5.167  20.124  0.00  0.00    +0.000 A 
ATOM     13  C   UNL     1       3.910   5.438  19.454  0.00  0.00    +0.000 A 
ENDBRANCH   7   8
ENDBRANCH   2   5
BRANCH   3  14
ATOM     14  N   UNL     1       8.509   8.948  18.142  0.00  0.00    +0.000 NA
ATOM     15  C   UNL     1       8.537  10.225  18.347  0.00  0.00    +0.000 C 
BRANCH  15  16
ATOM     16  C   UNL     1       9.801  10.889  18.514  0.00  0.00    +0.000 A 
ATOM     17  C   UNL     1      10.513  11.143  19.674  0.00  0.00    +0.000 A 
ATOM     18  C   UNL     1      11.693  11.839  19.315  0.00  0.00    +0.000 A 
ATOM     19  C   UNL     1      11.677  11.994  17.947  0.00  0.00    +0.000 A 
ATOM     20  N   UNL     1      10.534  11.410  17.470  0.00  0.00    +0.000 N 
ATOM     21  H   UNL     1      10.244  11.360  16.500  0.00  0.00    +0.000 HD
ENDBRANCH  15  16
ENDBRANCH   3  14
TORSDOF 4
ENDMDL
MODEL 7
REMARK VINA RESULT:      -6.8      4.842      7.286
REMARK  Name = 
REMARK  4 active torsions:
REMARK  status: ('A' for Active; 'I' for Inactive)
REMARK    1  A    between atoms: C_2  and  C_11
REMARK    2  A    between atoms: N_3  and  N_4
REMARK    3  A    between atoms: C_5  and  C_6
REMARK    4  A    between atoms: C_13  and  C_14
REMARK                            x       y       z     vdW  Elec       q    Type
REMARK                         _______ _______ _______ _____ _____    ______ ____
ROOT
ATOM      1  O   UNL     1       8.020   6.137  18.728  0.00  0.00    +0.000 OA
ATOM      2  C   UNL     1       7.302   6.683  17.899  0.00  0.00    +0.000 C 
ATOM      3  N   UNL     1       7.479   7.960  17.390  0.00  0.00    +0.000 N 
ATOM      4  H   UNL     1       6.828   8.341  16.716  0.00  0.00    +0.000 HD
ENDROOT
BRANCH   2   5
ATOM      5  C   UNL     1       6.107   5.979  17.347  0.00  0.00    +0.000 C 
ATOM      6  C   UNL     1       6.272   4.677  16.604  0.00  0.00    +0.000 C 
ATOM      7  C   UNL     1       5.648   4.674  17.981  0.00  0.00    +0.000 C 
BRANCH   7   8
ATOM      8  C   UNL     1       4.172   4.382  18.130  0.00  0.00    +0.000 A 
ATOM      9  C   UNL     1       3.500   3.554  17.215  0.00  0.00    +0.000 A 
ATOM     10  C   UNL     1       2.133   3.293  17.332  0.00  0.00    +0.000 A 
ATOM     11  C   UNL     1       1.405   3.849  18.379  0.00  0.00    +0.000 A 
ATOM     12  C   UNL     1       2.050   4.652  19.316  0.00  0.00    +0.000 A 
ATOM     13  C   UNL     1       3.420   4.907  19.195  0.00  0.00    +0.000 A 
ENDBRANCH   7   8
ENDBRANCH   2   5
BRANCH   3  14
ATOM     14  N   UNL     1       8.555   8.703  17.786  0.00  0.00    +0.000 NA
ATOM     15  C   UNL     1       8.295   9.882  18.250  0.00  0.00    +0.000 C 
BRANCH  15  16
ATOM     16  C   UNL     1       9.373  10.732  18.675  0.00  0.00    +0.000 A 
ATOM     17  C   UNL     1      10.306  11.414  17.912  0.00  0.00    +0.000 A 
ATOM     18  C   UNL     1      11.170  12.102  18.799  0.00  0.00    +0.000 A 
ATOM     19  C   UNL     1      10.747  11.828  20.079  0.00  0.00    +0.000 A 
ATOM     20  N   UNL     1       9.655  11.006  19.995  0.00  0.00    +0.000 N 
ATOM     21  H   UNL     1       9.121  10.635  20.773  0.00  0.00    +0.000 HD
ENDBRANCH  15  16
ENDBRANCH   3  14
TORSDOF 4
ENDMDL
MODEL 8
REMARK VINA RESULT:      -6.8      0.627      1.408
REMARK  Name = 
REMARK  4 active torsions:
REMARK  status: ('A' for Active; 'I' for Inactive)
REMARK    1  A    between atoms: C_2  and  C_11
REMARK    2  A    between atoms: N_3  and  N_4
REMARK    3  A    between atoms: C_5  and  C_6
REMARK    4  A    between atoms: C_13  and  C_14
REMARK                            x       y       z     vdW  Elec       q    Type
REMARK                         _______ _______ _______ _____ _____    ______ ____
ROOT
ATOM      1  O   UNL     1       1.129   5.016  20.738  0.00  0.00    +0.000 OA
ATOM      2  C   UNL     1       2.032   5.578  20.130  0.00  0.00    +0.000 C 
ATOM      3  N   UNL     1       2.358   6.922  20.224  0.00  0.00    +0.000 N 
ATOM      4  H   UNL     1       3.114   7.308  19.674  0.00  0.00    +0.000 HD
ENDROOT
BRANCH   2   5
ATOM      5  C   UNL     1       2.896   4.818  19.179  0.00  0.00    +0.000 C 
ATOM      6  C   UNL     1       2.285   4.143  17.976  0.00  0.00    +0.000 C 
ATOM      7  C   UNL     1       3.141   5.374  17.783  0.00  0.00    +0.000 C 
BRANCH   7   8
ATOM      8  C   UNL     1       4.504   5.242  17.144  0.00  0.00    +0.000 A 
ATOM      9  C   UNL     1       5.518   6.183  17.394  0.00  0.00    +0.000 A 
ATOM     10  C   UNL     1       6.775   6.081  16.793  0.00  0.00    +0.000 A 
ATOM     11  C   UNL     1       7.051   5.024  15.932  0.00  0.00    +0.000 A 
ATOM     12  C   UNL     1       6.076   4.061  15.688  0.00  0.00    +0.000 A 
ATOM     13  C   UNL     1       4.820   4.168  16.295  0.00  0.00    +0.000 A 
ENDBRANCH   7   8
ENDBRANCH   2   5
BRANCH   3  14
ATOM     14  N   UNL     1       1.667   7.726  21.086  0.00  0.00    +0.000 NA
ATOM     15  C   UNL     1       1.062   8.741  20.558  0.00  0.00    +0.000 C 
BRANCH  15  16
ATOM     16  C   UNL     1       0.326   9.644  21.399  0.00  0.00    +0.000 A 
ATOM     17  C   UNL     1       0.100  11.001  21.244  0.00  0.00    +0.000 A 
ATOM     18  C   UNL     1      -0.672  11.441  22.347  0.00  0.00    +0.000 A 
ATOM     19  C   UNL     1      -0.902  10.346  23.149  0.00  0.00    +0.000 A 
ATOM     20  N   UNL     1      -0.303   9.262  22.564  0.00  0.00    +0.000 N 
ATOM     21  H   UNL     1      -0.302   8.312  22.918  0.00  0.00    +0.000 HD
ENDBRANCH  15  16
ENDBRANCH   3  14
TORSDOF 4
ENDMDL
MODEL 9
REMARK VINA RESULT:      -6.8      5.504      7.277
REMARK  Name = 
REMARK  4 active torsions:
REMARK  status: ('A' for Active; 'I' for Inactive)
REMARK    1  A    between atoms: C_2  and  C_11
REMARK    2  A    between atoms: N_3  and  N_4
REMARK    3  A    between atoms: C_5  and  C_6
REMARK    4  A    between atoms: C_13  and  C_14
REMARK                            x       y       z     vdW  Elec       q    Type
REMARK                         _______ _______ _______ _____ _____    ______ ____
ROOT
ATOM      1  O   UNL     1       6.917   7.427  16.462  0.00  0.00    +0.000 OA
ATOM      2  C   UNL     1       7.269   7.007  17.557  0.00  0.00    +0.000 C 
ATOM      3  N   UNL     1       8.114   7.660  18.441  0.00  0.00    +0.000 N 
ATOM      4  H   UNL     1       8.366   7.233  19.323  0.00  0.00    +0.000 HD
ENDROOT
BRANCH   2   5
ATOM      5  C   UNL     1       6.797   5.681  18.051  0.00  0.00    +0.000 C 
ATOM      6  C   UNL     1       6.716   5.410  19.532  0.00  0.00    +0.000 C 
ATOM      7  C   UNL     1       5.442   5.576  18.735  0.00  0.00    +0.000 C 
BRANCH   7   8
ATOM      8  C   UNL     1       4.557   4.376  18.485  0.00  0.00    +0.000 A 
ATOM      9  C   UNL     1       4.607   3.249  19.325  0.00  0.00    +0.000 A 
ATOM     10  C   UNL     1       3.808   2.128  19.092  0.00  0.00    +0.000 A 
ATOM     11  C   UNL     1       2.929   2.111  18.013  0.00  0.00    +0.000 A 
ATOM     12  C   UNL     1       2.839   3.223  17.181  0.00  0.00    +0.000 A 
ATOM     13  C   UNL     1       3.639   4.344  17.422  0.00  0.00    +0.000 A 
ENDBRANCH   7   8
ENDBRANCH   2   5
BRANCH   3  14
ATOM     14  N   UNL     1       8.593   8.901  18.128  0.00  0.00    +0.000 NA
ATOM     15  C   UNL     1       9.025   9.612  19.118  0.00  0.00    +0.000 C 
BRANCH  15  16
ATOM     16  C   UNL     1       9.532  10.935  18.874  0.00  0.00    +0.000 A 
ATOM     17  C   UNL     1      10.216  11.424  17.775  0.00  0.00    +0.000 A 
ATOM     18  C   UNL     1      10.511  12.788  18.019  0.00  0.00    +0.000 A 
ATOM     19  C   UNL     1      10.000  13.102  19.258  0.00  0.00    +0.000 A 
ATOM     20  N   UNL     1       9.402  11.979  19.764  0.00  0.00    +0.000 N 
ATOM     21  H   UNL     1       8.934  11.898  20.660  0.00  0.00    +0.000 HD
ENDBRANCH  15  16
ENDBRANCH   3  14
TORSDOF 4
ENDMDL
