MODEL 1
REMARK VINA RESULT:      -4.5      0.000      0.000
REMARK  Name = 
REMARK  2 active torsions:
REMARK  status: ('A' for Active; 'I' for Inactive)
REMARK    1  A    between atoms: C_2  and  O_3
REMARK    2  A    between atoms: C_2  and  C_4
REMARK                            x       y       z     vdW  Elec       q    Type
REMARK                         _______ _______ _______ _____ _____    ______ ____
ROOT
ATOM      1  C   UNL     1       6.472   5.040  16.463  0.00  0.00    +0.000 C 
ATOM      2  C   UNL     1       5.625   3.950  15.838  0.00  0.00    +0.000 C 
ATOM      3  C   UNL     1       5.674   4.295  14.372  0.00  0.00    +0.000 C 
ATOM      4  C   UNL     1       7.076   4.834  14.210  0.00  0.00    +0.000 C 
ATOM      5  O   UNL     1       7.435   5.448  15.459  0.00  0.00    +0.000 OA
ENDROOT
BRANCH   1   7
ATOM      6  O   UNL     1       8.374   4.148  17.704  0.00  0.00    +0.000 OA
ATOM      7  C   UNL     1       7.219   4.546  17.698  0.00  0.00    +0.000 C 
BRANCH   7   8
ATOM      8  O   UNL     1       6.449   4.612  18.814  0.00  0.00    +0.000 OA
ATOM      9  H   UNL     1       5.813   3.858  18.782  0.00  0.00    +0.000 HD
ENDBRANCH   7   8
ENDBRANCH   1   7
TORSDOF 2
ENDMDL
MODEL 2
REMARK VINA RESULT:      -4.4      0.629      1.293
REMARK  Name = 
REMARK  2 active torsions:
REMARK  status: ('A' for Active; 'I' for Inactive)
REMARK    1  A    between atoms: C_2  and  O_3
REMARK    2  A    between atoms: C_2  and  C_4
REMARK                            x       y       z     vdW  Elec       q    Type
REMARK                         _______ _______ _______ _____ _____    ______ ____
ROOT
ATOM      1  C   UNL     1       6.802   5.345  16.585  0.00  0.00    +0.000 C 
ATOM      2  C   UNL     1       5.364   5.017  16.237  0.00  0.00    +0.000 C 
ATOM      3  C   UNL     1       5.388   4.996  14.730  0.00  0.00    +0.000 C 
ATOM      4  C   UNL     1       6.755   4.426  14.433  0.00  0.00    +0.000 C 
ATOM      5  O   UNL     1       7.621   4.835  15.503  0.00  0.00    +0.000 OA
ENDROOT
BRANCH   1   7
ATOM      6  O   UNL     1       6.619   4.748  18.944  0.00  0.00    +0.000 OA
ATOM      7  C   UNL     1       7.237   4.689  17.892  0.00  0.00    +0.000 C 
BRANCH   7   8
ATOM      8  O   UNL     1       8.404   4.008  17.751  0.00  0.00    +0.000 OA
ATOM      9  H   UNL     1       9.113   4.667  17.564  0.00  0.00    +0.000 HD
ENDBRANCH   7   8
ENDBRANCH   1   7
TORSDOF 2
ENDMDL
MODEL 3
REMARK VINA RESULT:      -4.4     11.413     12.423
REMARK  Name = 
REMARK  2 active torsions:
REMARK  status: ('A' for Active; 'I' for Inactive)
REMARK    1  A    between atoms: C_2  and  O_3
REMARK    2  A    between atoms: C_2  and  C_4
REMARK                            x       y       z     vdW  Elec       q    Type
REMARK                         _______ _______ _______ _____ _____    ______ ____
ROOT
ATOM      1  C   UNL     1      10.316   4.317  27.350  0.00  0.00    +0.000 C 
ATOM      2  C   UNL     1      10.906   3.241  28.240  0.00  0.00    +0.000 C 
ATOM      3  C   UNL     1      12.333   3.697  28.405  0.00  0.00    +0.000 C 
ATOM      4  C   UNL     1      12.194   5.201  28.433  0.00  0.00    +0.000 C 
ATOM      5  O   UNL     1      11.060   5.532  27.613  0.00  0.00    +0.000 OA
ENDROOT
BRANCH   1   7
ATOM      6  O   UNL     1       8.415   5.397  28.432  0.00  0.00    +0.000 OA
ATOM      7  C   UNL     1       8.841   4.560  27.650  0.00  0.00    +0.000 C 
BRANCH   7   8
ATOM      8  O   UNL     1       8.036   3.738  26.929  0.00  0.00    +0.000 OA
ATOM      9  H   UNL     1       7.113   3.862  27.256  0.00  0.00    +0.000 HD
ENDBRANCH   7   8
ENDBRANCH   1   7
TORSDOF 2
ENDMDL
MODEL 4
REMARK VINA RESULT:      -4.4     11.406     12.370
REMARK  Name = 
REMARK  2 active torsions:
REMARK  status: ('A' for Active; 'I' for Inactive)
REMARK    1  A    between atoms: C_2  and  O_3
REMARK    2  A    between atoms: C_2  and  C_4
REMARK                            x       y       z     vdW  Elec       q    Type
REMARK                         _______ _______ _______ _____ _____    ______ ____
ROOT
ATOM      1  C   UNL     1      10.289   4.287  27.294  0.00  0.00    +0.000 C 
ATOM      2  C   UNL     1      10.946   3.322  28.261  0.00  0.00    +0.000 C 
ATOM      3  C   UNL     1      12.333   3.893  28.404  0.00  0.00    +0.000 C 
ATOM      4  C   UNL     1      12.083   5.381  28.326  0.00  0.00    +0.000 C 
ATOM      5  O   UNL     1      10.939   5.570  27.478  0.00  0.00    +0.000 OA
ENDROOT
BRANCH   1   7
ATOM      6  O   UNL     1       7.923   3.729  27.093  0.00  0.00    +0.000 OA
ATOM      7  C   UNL     1       8.796   4.441  27.566  0.00  0.00    +0.000 C 
BRANCH   7   8
ATOM      8  O   UNL     1       8.541   5.467  28.417  0.00  0.00    +0.000 OA
ATOM      9  H   UNL     1       9.280   6.114  28.335  0.00  0.00    +0.000 HD
ENDBRANCH   7   8
ENDBRANCH   1   7
TORSDOF 2
ENDMDL
MODEL 5
REMARK VINA RESULT:      -4.3      1.761      3.219
REMARK  Name = 
REMARK  2 active torsions:
REMARK  status: ('A' for Active; 'I' for Inactive)
REMARK    1  A    between atoms: C_2  and  O_3
REMARK    2  A    between atoms: C_2  and  C_4
REMARK                            x       y       z     vdW  Elec       q    Type
REMARK                         _______ _______ _______ _____ _____    ______ ____
ROOT
ATOM      1  C   UNL     1       5.798   4.443  17.254  0.00  0.00    +0.000 C 
ATOM      2  C   UNL     1       4.764   5.509  16.954  0.00  0.00    +0.000 C 
ATOM      3  C   UNL     1       3.840   5.415  18.140  0.00  0.00    +0.000 C 
ATOM      4  C   UNL     1       4.790   5.082  19.268  0.00  0.00    +0.000 C 
ATOM      5  O   UNL     1       5.867   4.321  18.697  0.00  0.00    +0.000 OA
ENDROOT
BRANCH   1   7
ATOM      6  O   UNL     1       7.389   5.661  15.863  0.00  0.00    +0.000 OA
ATOM      7  C   UNL     1       7.177   4.815  16.718  0.00  0.00    +0.000 C 
BRANCH   7   8
ATOM      8  O   UNL     1       8.162   4.100  17.318  0.00  0.00    +0.000 OA
ATOM      9  H   UNL     1       8.660   3.626  16.610  0.00  0.00    +0.000 HD
ENDBRANCH   7   8
ENDBRANCH   1   7
TORSDOF 2
ENDMDL
MODEL 6
REMARK VINA RESULT:      -4.3      1.368      1.964
REMARK  Name = 
REMARK  2 active torsions:
REMARK  status: ('A' for Active; 'I' for Inactive)
REMARK    1  A    between atoms: C_2  and  O_3
REMARK    2  A    between atoms: C_2  and  C_4
REMARK                            x       y       z     vdW  Elec       q    Type
REMARK                         _______ _______ _______ _____ _____    ______ ____
ROOT
ATOM      1  C   UNL     1       7.077   6.092  17.225  0.00  0.00    +0.000 C 
ATOM      2  C   UNL     1       5.579   6.235  17.410  0.00  0.00    +0.000 C 
ATOM      3  C   UNL     1       5.091   6.432  15.999  0.00  0.00    +0.000 C 
ATOM      4  C   UNL     1       6.027   5.551  15.204  0.00  0.00    +0.000 C 
ATOM      5  O   UNL     1       7.283   5.539  15.901  0.00  0.00    +0.000 OA
ENDROOT
BRANCH   1   7
ATOM      6  O   UNL     1       7.697   5.350  19.465  0.00  0.00    +0.000 OA
ATOM      7  C   UNL     1       7.693   5.155  18.259  0.00  0.00    +0.000 C 
BRANCH   7   8
ATOM      8  O   UNL     1       8.237   4.053  17.682  0.00  0.00    +0.000 OA
ATOM      9  H   UNL     1       7.594   3.313  17.789  0.00  0.00    +0.000 HD
ENDBRANCH   7   8
ENDBRANCH   1   7
TORSDOF 2
ENDMDL
MODEL 7
REMARK VINA RESULT:      -4.3      1.143      1.203
REMARK  Name = 
REMARK  2 active torsions:
REMARK  status: ('A' for Active; 'I' for Inactive)
REMARK    1  A    between atoms: C_2  and  O_3
REMARK    2  A    between atoms: C_2  and  C_4
REMARK                            x       y       z     vdW  Elec       q    Type
REMARK                         _______ _______ _______ _____ _____    ______ ____
ROOT
ATOM      1  C   UNL     1       6.969   5.541  16.923  0.00  0.00    +0.000 C 
ATOM      2  C   UNL     1       5.509   5.603  16.521  0.00  0.00    +0.000 C 
ATOM      3  C   UNL     1       5.573   5.437  15.025  0.00  0.00    +0.000 C 
ATOM      4  C   UNL     1       6.728   4.478  14.851  0.00  0.00    +0.000 C 
ATOM      5  O   UNL     1       7.641   4.723  15.933  0.00  0.00    +0.000 OA
ENDROOT
BRANCH   1   7
ATOM      6  O   UNL     1       8.000   5.254  19.116  0.00  0.00    +0.000 OA
ATOM      7  C   UNL     1       7.157   4.913  18.300  0.00  0.00    +0.000 C 
BRANCH   7   8
ATOM      8  O   UNL     1       6.257   3.922  18.530  0.00  0.00    +0.000 OA
ATOM      9  H   UNL     1       6.076   3.477  17.668  0.00  0.00    +0.000 HD
ENDBRANCH   7   8
ENDBRANCH   1   7
TORSDOF 2
ENDMDL
MODEL 8
REMARK VINA RESULT:      -4.2      5.459      6.130
REMARK  Name = 
REMARK  2 active torsions:
REMARK  status: ('A' for Active; 'I' for Inactive)
REMARK    1  A    between atoms: C_2  and  O_3
REMARK    2  A    between atoms: C_2  and  C_4
REMARK                            x       y       z     vdW  Elec       q    Type
REMARK                         _______ _______ _______ _____ _____    ______ ____
ROOT
ATOM      1  C   UNL     1       3.335   3.084  20.163  0.00  0.00    +0.000 C 
ATOM      2  C   UNL     1       2.376   2.899  21.322  0.00  0.00    +0.000 C 
ATOM      3  C   UNL     1       1.075   3.407  20.758  0.00  0.00    +0.000 C 
ATOM      4  C   UNL     1       1.156   2.978  19.311  0.00  0.00    +0.000 C 
ATOM      5  O   UNL     1       2.547   2.987  18.950  0.00  0.00    +0.000 OA
ENDROOT
BRANCH   1   7
ATOM      6  O   UNL     1       5.168   1.756  21.071  0.00  0.00    +0.000 OA
ATOM      7  C   UNL     1       4.420   2.012  20.141  0.00  0.00    +0.000 C 
BRANCH   7   8
ATOM      8  O   UNL     1       4.454   1.352  18.955  0.00  0.00    +0.000 OA
ATOM      9  H   UNL     1       3.712   0.702  18.954  0.00  0.00    +0.000 HD
ENDBRANCH   7   8
ENDBRANCH   1   7
TORSDOF 2
ENDMDL
MODEL 9
REMARK VINA RESULT:      -4.2      1.299      3.282
REMARK  Name = 
REMARK  2 active torsions:
REMARK  status: ('A' for Active; 'I' for Inactive)
REMARK    1  A    between atoms: C_2  and  O_3
REMARK    2  A    between atoms: C_2  and  C_4
REMARK                            x       y       z     vdW  Elec       q    Type
REMARK                         _______ _______ _______ _____ _____    ______ ____
ROOT
ATOM      1  C   UNL     1       6.695   4.255  16.213  0.00  0.00    +0.000 C 
ATOM      2  C   UNL     1       5.683   5.221  16.796  0.00  0.00    +0.000 C 
ATOM      3  C   UNL     1       6.117   5.324  18.235  0.00  0.00    +0.000 C 
ATOM      4  C   UNL     1       7.621   5.229  18.130  0.00  0.00    +0.000 C 
ATOM      5  O   UNL     1       7.910   4.404  16.989  0.00  0.00    +0.000 OA
ENDROOT
BRANCH   1   7
ATOM      6  O   UNL     1       7.660   5.504  14.354  0.00  0.00    +0.000 OA
ATOM      7  C   UNL     1       6.997   4.558  14.749  0.00  0.00    +0.000 C 
BRANCH   7   8
ATOM      8  O   UNL     1       6.449   3.634  13.918  0.00  0.00    +0.000 OA
ATOM      9  H   UNL     1       6.490   2.761  14.374  0.00  0.00    +0.000 HD
ENDBRANCH   7   8
ENDBRANCH   1   7
TORSDOF 2
ENDMDL
