MODEL 1
REMARK VINA RESULT:      -7.6      0.000      0.000
REMARK  Name = 
REMARK  14 active torsions:
REMARK  status: ('A' for Active; 'I' for Inactive)
REMARK    1  A    between atoms: C_1  and  C_2
REMARK    2  A    between atoms: C_2  and  O_3
REMARK    3  A    between atoms: O_3  and  C_4
REMARK    4  A    between atoms: C_6  and  C_7
REMARK    5  A    between atoms: C_7  and  N_8
REMARK    6  A    between atoms: N_8  and  C_9
REMARK    7  A    between atoms: C_9  and  C_10
REMARK    8  A    between atoms: C_9  and  C_11
REMARK    9  A    between atoms: C_9  and  C_12
REMARK   10  A    between atoms: C_15  and  O_16
REMARK   11  A    between atoms: O_16  and  C_17
REMARK   12  A    between atoms: C_17  and  C_18
REMARK   13  A    between atoms: N_20  and  C_21
REMARK   14  A    between atoms: C_25  and  C_26
REMARK                            x       y       z     vdW  Elec       q    Type
REMARK                         _______ _______ _______ _____ _____    ______ ____
ROOT
ATOM      1  C   UNL     1       3.807   4.039  17.007  0.00  0.00    +0.000 A 
ATOM      2  C   UNL     1       4.786   3.808  16.023  0.00  0.00    +0.000 A 
ATOM      3  C   UNL     1       5.556   4.848  15.507  0.00  0.00    +0.000 A 
ATOM      4  C   UNL     1       5.337   6.157  15.942  0.00  0.00    +0.000 A 
ATOM      5  C   UNL     1       4.373   6.417  16.910  0.00  0.00    +0.000 A 
ATOM      6  C   UNL     1       3.614   5.380  17.468  0.00  0.00    +0.000 A 
ENDROOT
BRANCH   1   7
ATOM      7  O   UNL     1       3.068   2.996  17.495  0.00  0.00    +0.000 OA
BRANCH   7   9
ATOM      8  C   UNL     1       4.194   2.529  19.583  0.00  0.00    +0.000 C 
ATOM      9  C   UNL     1       3.571   1.985  18.307  0.00  0.00    +0.000 C 
ENDBRANCH   7   9
ENDBRANCH   1   7
BRANCH   3  10
ATOM     10  C   UNL     1       6.633   4.533  14.517  0.00  0.00    +0.000 C 
BRANCH  10  11
ATOM     11  N   UNL     1       6.342   3.279  13.801  0.00  0.00    +0.000 NA
ATOM     12  H   UNL     1       5.434   2.901  14.162  0.00  0.00    +0.000 HD
BRANCH  11  13
ATOM     13  C   UNL     1       6.273   3.405  12.322  0.00  0.00    +0.000 C 
ATOM     14  C   UNL     1       4.825   3.681  11.854  0.00  0.00    +0.000 C 
ATOM     15  C   UNL     1       7.142   4.606  11.895  0.00  0.00    +0.000 C 
ATOM     16  C   UNL     1       6.819   2.139  11.623  0.00  0.00    +0.000 C 
ENDBRANCH  11  13
ENDBRANCH  10  11
ENDBRANCH   3  10
BRANCH   6  17
ATOM     17  O   UNL     1       2.770   5.736  18.470  0.00  0.00    +0.000 OA
BRANCH  17  18
ATOM     18  C   UNL     1       3.105   6.567  19.514  0.00  0.00    +0.000 C 
BRANCH  18  19
ATOM     19  C   UNL     1       2.042   7.593  19.781  0.00  0.00    +0.000 C 
ATOM     20  O   UNL     1       1.413   7.565  20.829  0.00  0.00    +0.000 OA
ATOM     21  N   UNL     1       1.855   8.556  18.839  0.00  0.00    +0.000 N 
ATOM     22  H   UNL     1       2.469   8.511  18.014  0.00  0.00    +0.000 HD
BRANCH  21  23
ATOM     23  C   UNL     1       0.938   9.660  18.882  0.00  0.00    +0.000 A 
ATOM     24  C   UNL     1       1.096  10.800  19.700  0.00  0.00    +0.000 A 
ATOM     25  C   UNL     1       0.156  11.834  19.656  0.00  0.00    +0.000 A 
ATOM     26  C   UNL     1      -0.945  11.755  18.801  0.00  0.00    +0.000 A 
ATOM     27  C   UNL     1      -1.128  10.627  17.987  0.00  0.00    +0.000 A 
ATOM     28  C   UNL     1      -0.192   9.588  18.046  0.00  0.00    +0.000 A 
BRANCH  27  29
ATOM     29  C   UNL     1      -2.295  10.506  17.041  0.00  0.00    +0.000 C 
ATOM     30  F   UNL     1      -2.298  11.522  16.101  0.00  0.00    +0.000 F 
ATOM     31  F   UNL     1      -2.225   9.294  16.378  0.00  0.00    +0.000 F 
ATOM     32  F   UNL     1      -3.479  10.561  17.756  0.00  0.00    +0.000 F 
ENDBRANCH  27  29
ENDBRANCH  21  23
ENDBRANCH  18  19
ENDBRANCH  17  18
ENDBRANCH   6  17
TORSDOF 10
ENDMDL
MODEL 2
REMARK VINA RESULT:      -7.6      6.720      8.666
REMARK  Name = 
REMARK  14 active torsions:
REMARK  status: ('A' for Active; 'I' for Inactive)
REMARK    1  A    between atoms: C_1  and  C_2
REMARK    2  A    between atoms: C_2  and  O_3
REMARK    3  A    between atoms: O_3  and  C_4
REMARK    4  A    between atoms: C_6  and  C_7
REMARK    5  A    between atoms: C_7  and  N_8
REMARK    6  A    between atoms: N_8  and  C_9
REMARK    7  A    between atoms: C_9  and  C_10
REMARK    8  A    between atoms: C_9  and  C_11
REMARK    9  A    between atoms: C_9  and  C_12
REMARK   10  A    between atoms: C_15  and  O_16
REMARK   11  A    between atoms: O_16  and  C_17
REMARK   12  A    between atoms: C_17  and  C_18
REMARK   13  A    between atoms: N_20  and  C_21
REMARK   14  A    between atoms: C_25  and  C_26
REMARK                            x       y       z     vdW  Elec       q    Type
REMARK                         _______ _______ _______ _____ _____    ______ ____
ROOT
ATOM      1  C   UNL     1       5.917   5.029  16.038  0.00  0.00    +0.000 A 
ATOM      2  C   UNL     1       4.953   4.059  16.371  0.00  0.00    +0.000 A 
ATOM      3  C   UNL     1       4.769   3.640  17.686  0.00  0.00    +0.000 A 
ATOM      4  C   UNL     1       5.572   4.163  18.701  0.00  0.00    +0.000 A 
ATOM      5  C   UNL     1       6.537   5.120  18.403  0.00  0.00    +0.000 A 
ATOM      6  C   UNL     1       6.713   5.581  17.092  0.00  0.00    +0.000 A 
ENDROOT
BRANCH   1   7
ATOM      7  O   UNL     1       6.074   5.420  14.737  0.00  0.00    +0.000 OA
BRANCH   7   9
ATOM      8  C   UNL     1       7.990   5.361  13.264  0.00  0.00    +0.000 C 
ATOM      9  C   UNL     1       6.727   4.675  13.762  0.00  0.00    +0.000 C 
ENDBRANCH   7   9
ENDBRANCH   1   7
BRANCH   3  10
ATOM     10  C   UNL     1       3.679   2.660  17.990  0.00  0.00    +0.000 C 
BRANCH  10  11
ATOM     11  N   UNL     1       3.115   2.897  19.331  0.00  0.00    +0.000 NA
ATOM     12  H   UNL     1       3.856   3.342  19.922  0.00  0.00    +0.000 HD
BRANCH  11  13
ATOM     13  C   UNL     1       1.891   3.739  19.353  0.00  0.00    +0.000 C 
ATOM     14  C   UNL     1       1.324   3.934  17.928  0.00  0.00    +0.000 C 
ATOM     15  C   UNL     1       0.817   3.015  20.192  0.00  0.00    +0.000 C 
ATOM     16  C   UNL     1       2.167   5.114  20.003  0.00  0.00    +0.000 C 
ENDBRANCH  11  13
ENDBRANCH  10  11
ENDBRANCH   3  10
BRANCH   6  17
ATOM     17  O   UNL     1       7.616   6.582  16.932  0.00  0.00    +0.000 OA
BRANCH  17  18
ATOM     18  C   UNL     1       7.317   7.922  17.019  0.00  0.00    +0.000 C 
BRANCH  18  19
ATOM     19  C   UNL     1       8.212   8.637  17.990  0.00  0.00    +0.000 C 
ATOM     20  O   UNL     1       8.794   8.011  18.864  0.00  0.00    +0.000 OA
ATOM     21  N   UNL     1       8.371   9.977  17.818  0.00  0.00    +0.000 N 
ATOM     22  H   UNL     1       7.869  10.397  17.024  0.00  0.00    +0.000 HD
BRANCH  21  23
ATOM     23  C   UNL     1       9.198  10.867  18.583  0.00  0.00    +0.000 A 
ATOM     24  C   UNL     1       9.440  10.744  19.968  0.00  0.00    +0.000 A 
ATOM     25  C   UNL     1      10.279  11.653  20.620  0.00  0.00    +0.000 A 
ATOM     26  C   UNL     1      10.892  12.687  19.910  0.00  0.00    +0.000 A 
ATOM     27  C   UNL     1      10.658  12.835  18.534  0.00  0.00    +0.000 A 
ATOM     28  C   UNL     1       9.805  11.931  17.889  0.00  0.00    +0.000 A 
BRANCH  27  29
ATOM     29  C   UNL     1      11.309  13.929  17.728  0.00  0.00    +0.000 C 
ATOM     30  F   UNL     1      11.831  13.447  16.540  0.00  0.00    +0.000 F 
ATOM     31  F   UNL     1      10.369  14.901  17.431  0.00  0.00    +0.000 F 
ATOM     32  F   UNL     1      12.332  14.501  18.462  0.00  0.00    +0.000 F 
ENDBRANCH  27  29
ENDBRANCH  21  23
ENDBRANCH  18  19
ENDBRANCH  17  18
ENDBRANCH   6  17
TORSDOF 10
ENDMDL
MODEL 3
REMARK VINA RESULT:      -7.4      6.781      8.729
REMARK  Name = 
REMARK  14 active torsions:
REMARK  status: ('A' for Active; 'I' for Inactive)
REMARK    1  A    between atoms: C_1  and  C_2
REMARK    2  A    between atoms: C_2  and  O_3
REMARK    3  A    between atoms: O_3  and  C_4
REMARK    4  A    between atoms: C_6  and  C_7
REMARK    5  A    between atoms: C_7  and  N_8
REMARK    6  A    between atoms: N_8  and  C_9
REMARK    7  A    between atoms: C_9  and  C_10
REMARK    8  A    between atoms: C_9  and  C_11
REMARK    9  A    between atoms: C_9  and  C_12
REMARK   10  A    between atoms: C_15  and  O_16
REMARK   11  A    between atoms: O_16  and  C_17
REMARK   12  A    between atoms: C_17  and  C_18
REMARK   13  A    between atoms: N_20  and  C_21
REMARK   14  A    between atoms: C_25  and  C_26
REMARK                            x       y       z     vdW  Elec       q    Type
REMARK                         _______ _______ _______ _____ _____    ______ ____
ROOT
ATOM      1  C   UNL     1       6.338   5.276  16.541  0.00  0.00    +0.000 A 
ATOM      2  C   UNL     1       5.305   4.350  16.781  0.00  0.00    +0.000 A 
ATOM      3  C   UNL     1       4.818   4.123  18.066  0.00  0.00    +0.000 A 
ATOM      4  C   UNL     1       5.381   4.798  19.152  0.00  0.00    +0.000 A 
ATOM      5  C   UNL     1       6.406   5.715  18.946  0.00  0.00    +0.000 A 
ATOM      6  C   UNL     1       6.884   5.985  17.658  0.00  0.00    +0.000 A 
ENDROOT
BRANCH   1   7
ATOM      7  O   UNL     1       6.793   5.477  15.266  0.00  0.00    +0.000 OA
BRANCH   7   9
ATOM      8  C   UNL     1       7.476   4.910  13.018  0.00  0.00    +0.000 C 
ATOM      9  C   UNL     1       6.573   4.608  14.203  0.00  0.00    +0.000 C 
ENDBRANCH   7   9
ENDBRANCH   1   7
BRANCH   3  10
ATOM     10  C   UNL     1       3.670   3.183  18.252  0.00  0.00    +0.000 C 
BRANCH  10  11
ATOM     11  N   UNL     1       3.381   2.977  19.683  0.00  0.00    +0.000 NA
ATOM     12  H   UNL     1       4.018   3.599  20.236  0.00  0.00    +0.000 HD
BRANCH  11  13
ATOM     13  C   UNL     1       1.972   3.232  20.079  0.00  0.00    +0.000 C 
ATOM     14  C   UNL     1       0.987   2.578  19.082  0.00  0.00    +0.000 C 
ATOM     15  C   UNL     1       1.732   2.596  21.463  0.00  0.00    +0.000 C 
ATOM     16  C   UNL     1       1.684   4.747  20.186  0.00  0.00    +0.000 C 
ENDBRANCH  11  13
ENDBRANCH  10  11
ENDBRANCH   3  10
BRANCH   6  17
ATOM     17  O   UNL     1       7.819   6.965  17.565  0.00  0.00    +0.000 OA
BRANCH  17  18
ATOM     18  C   UNL     1       7.535   8.306  17.465  0.00  0.00    +0.000 C 
BRANCH  18  19
ATOM     19  C   UNL     1       8.458   9.143  18.302  0.00  0.00    +0.000 C 
ATOM     20  O   UNL     1       9.027   8.651  19.266  0.00  0.00    +0.000 OA
ATOM     21  N   UNL     1       8.657  10.431  17.913  0.00  0.00    +0.000 N 
ATOM     22  H   UNL     1       8.162  10.730  17.062  0.00  0.00    +0.000 HD
BRANCH  21  23
ATOM     23  C   UNL     1       9.517  11.408  18.518  0.00  0.00    +0.000 A 
ATOM     24  C   UNL     1      10.355  11.160  19.627  0.00  0.00    +0.000 A 
ATOM     25  C   UNL     1      11.172  12.175  20.133  0.00  0.00    +0.000 A 
ATOM     26  C   UNL     1      11.176  13.441  19.546  0.00  0.00    +0.000 A 
ATOM     27  C   UNL     1      10.344  13.713  18.449  0.00  0.00    +0.000 A 
ATOM     28  C   UNL     1       9.516  12.698  17.956  0.00  0.00    +0.000 A 
BRANCH  27  29
ATOM     29  C   UNL     1      10.326  15.063  17.778  0.00  0.00    +0.000 C 
ATOM     30  F   UNL     1       9.034  15.487  17.521  0.00  0.00    +0.000 F 
ATOM     31  F   UNL     1      10.939  15.992  18.600  0.00  0.00    +0.000 F 
ATOM     32  F   UNL     1      11.017  14.995  16.581  0.00  0.00    +0.000 F 
ENDBRANCH  27  29
ENDBRANCH  21  23
ENDBRANCH  18  19
ENDBRANCH  17  18
ENDBRANCH   6  17
TORSDOF 10
ENDMDL
MODEL 4
REMARK VINA RESULT:      -7.4      0.897      1.286
REMARK  Name = 
REMARK  14 active torsions:
REMARK  status: ('A' for Active; 'I' for Inactive)
REMARK    1  A    between atoms: C_1  and  C_2
REMARK    2  A    between atoms: C_2  and  O_3
REMARK    3  A    between atoms: O_3  and  C_4
REMARK    4  A    between atoms: C_6  and  C_7
REMARK    5  A    between atoms: C_7  and  N_8
REMARK    6  A    between atoms: N_8  and  C_9
REMARK    7  A    between atoms: C_9  and  C_10
REMARK    8  A    between atoms: C_9  and  C_11
REMARK    9  A    between atoms: C_9  and  C_12
REMARK   10  A    between atoms: C_15  and  O_16
REMARK   11  A    between atoms: O_16  and  C_17
REMARK   12  A    between atoms: C_17  and  C_18
REMARK   13  A    between atoms: N_20  and  C_21
REMARK   14  A    between atoms: C_25  and  C_26
REMARK                            x       y       z     vdW  Elec       q    Type
REMARK                         _______ _______ _______ _____ _____    ______ ____
ROOT
ATOM      1  C   UNL     1       3.790   4.227  17.033  0.00  0.00    +0.000 A 
ATOM      2  C   UNL     1       4.788   3.859  16.112  0.00  0.00    +0.000 A 
ATOM      3  C   UNL     1       5.624   4.809  15.529  0.00  0.00    +0.000 A 
ATOM      4  C   UNL     1       5.455   6.162  15.832  0.00  0.00    +0.000 A 
ATOM      5  C   UNL     1       4.474   6.557  16.734  0.00  0.00    +0.000 A 
ATOM      6  C   UNL     1       3.648   5.614  17.359  0.00  0.00    +0.000 A 
ENDROOT
BRANCH   1   7
ATOM      7  O   UNL     1       2.986   3.270  17.589  0.00  0.00    +0.000 OA
BRANCH   7   9
ATOM      8  C   UNL     1       4.136   2.540  19.586  0.00  0.00    +0.000 C 
ATOM      9  C   UNL     1       3.448   2.159  18.285  0.00  0.00    +0.000 C 
ENDBRANCH   7   9
ENDBRANCH   1   7
BRANCH   3  10
ATOM     10  C   UNL     1       6.715   4.352  14.613  0.00  0.00    +0.000 C 
BRANCH  10  11
ATOM     11  N   UNL     1       6.286   3.187  13.819  0.00  0.00    +0.000 NA
ATOM     12  H   UNL     1       5.323   2.918  14.131  0.00  0.00    +0.000 HD
BRANCH  11  13
ATOM     13  C   UNL     1       6.290   3.399  12.349  0.00  0.00    +0.000 C 
ATOM     14  C   UNL     1       6.806   2.144  11.607  0.00  0.00    +0.000 C 
ATOM     15  C   UNL     1       4.840   3.654  11.890  0.00  0.00    +0.000 C 
ATOM     16  C   UNL     1       7.144   4.627  11.959  0.00  0.00    +0.000 C 
ENDBRANCH  11  13
ENDBRANCH  10  11
ENDBRANCH   3  10
BRANCH   6  17
ATOM     17  O   UNL     1       2.791   6.102  18.292  0.00  0.00    +0.000 OA
BRANCH  17  18
ATOM     18  C   UNL     1       2.981   7.271  18.989  0.00  0.00    +0.000 C 
BRANCH  18  19
ATOM     19  C   UNL     1       2.202   8.412  18.401  0.00  0.00    +0.000 C 
ATOM     20  O   UNL     1       2.346   8.711  17.224  0.00  0.00    +0.000 OA
ATOM     21  N   UNL     1       1.317   9.047  19.215  0.00  0.00    +0.000 N 
ATOM     22  H   UNL     1       1.243   8.686  20.176  0.00  0.00    +0.000 HD
BRANCH  21  23
ATOM     23  C   UNL     1       0.434  10.128  18.878  0.00  0.00    +0.000 A 
ATOM     24  C   UNL     1       0.709  11.492  19.119  0.00  0.00    +0.000 A 
ATOM     25  C   UNL     1      -0.209  12.474  18.735  0.00  0.00    +0.000 A 
ATOM     26  C   UNL     1      -1.403  12.120  18.105  0.00  0.00    +0.000 A 
ATOM     27  C   UNL     1      -1.702  10.771  17.864  0.00  0.00    +0.000 A 
ATOM     28  C   UNL     1      -0.787   9.790  18.264  0.00  0.00    +0.000 A 
BRANCH  27  29
ATOM     29  C   UNL     1      -2.974  10.346  17.176  0.00  0.00    +0.000 C 
ATOM     30  F   UNL     1      -2.803  10.240  15.807  0.00  0.00    +0.000 F 
ATOM     31  F   UNL     1      -3.372   9.115  17.665  0.00  0.00    +0.000 F 
ATOM     32  F   UNL     1      -3.970  11.274  17.427  0.00  0.00    +0.000 F 
ENDBRANCH  27  29
ENDBRANCH  21  23
ENDBRANCH  18  19
ENDBRANCH  17  18
ENDBRANCH   6  17
TORSDOF 10
ENDMDL
MODEL 5
REMARK VINA RESULT:      -7.4      5.042     10.475
REMARK  Name = 
REMARK  14 active torsions:
REMARK  status: ('A' for Active; 'I' for Inactive)
REMARK    1  A    between atoms: C_1  and  C_2
REMARK    2  A    between atoms: C_2  and  O_3
REMARK    3  A    between atoms: O_3  and  C_4
REMARK    4  A    between atoms: C_6  and  C_7
REMARK    5  A    between atoms: C_7  and  N_8
REMARK    6  A    between atoms: N_8  and  C_9
REMARK    7  A    between atoms: C_9  and  C_10
REMARK    8  A    between atoms: C_9  and  C_11
REMARK    9  A    between atoms: C_9  and  C_12
REMARK   10  A    between atoms: C_15  and  O_16
REMARK   11  A    between atoms: O_16  and  C_17
REMARK   12  A    between atoms: C_17  and  C_18
REMARK   13  A    between atoms: N_20  and  C_21
REMARK   14  A    between atoms: C_25  and  C_26
REMARK                            x       y       z     vdW  Elec       q    Type
REMARK                         _______ _______ _______ _____ _____    ______ ____
ROOT
ATOM      1  C   UNL     1      -0.834  11.705  20.298  0.00  0.00    +0.000 A 
ATOM      2  C   UNL     1      -2.068  12.344  20.075  0.00  0.00    +0.000 A 
ATOM      3  C   UNL     1      -2.926  12.651  21.128  0.00  0.00    +0.000 A 
ATOM      4  C   UNL     1      -2.582  12.294  22.433  0.00  0.00    +0.000 A 
ATOM      5  C   UNL     1      -1.372  11.657  22.684  0.00  0.00    +0.000 A 
ATOM      6  C   UNL     1      -0.478  11.372  21.644  0.00  0.00    +0.000 A 
ENDROOT
BRANCH   1   7
ATOM      7  O   UNL     1      -0.012  11.417  19.243  0.00  0.00    +0.000 OA
BRANCH   7   9
ATOM      8  C   UNL     1      -1.255  10.095  17.646  0.00  0.00    +0.000 C 
ATOM      9  C   UNL     1      -0.027  10.222  18.533  0.00  0.00    +0.000 C 
ENDBRANCH   7   9
ENDBRANCH   1   7
BRANCH   3  10
ATOM     10  C   UNL     1      -4.191  13.397  20.839  0.00  0.00    +0.000 C 
BRANCH  10  11
ATOM     11  N   UNL     1      -4.740  13.019  19.525  0.00  0.00    +0.000 NA
ATOM     12  H   UNL     1      -4.098  12.311  19.096  0.00  0.00    +0.000 HD
BRANCH  11  13
ATOM     13  C   UNL     1      -6.123  12.477  19.559  0.00  0.00    +0.000 C 
ATOM     14  C   UNL     1      -6.237  11.189  18.710  0.00  0.00    +0.000 C 
ATOM     15  C   UNL     1      -6.468  12.111  21.017  0.00  0.00    +0.000 C 
ATOM     16  C   UNL     1      -7.149  13.523  19.067  0.00  0.00    +0.000 C 
ENDBRANCH  11  13
ENDBRANCH  10  11
ENDBRANCH   3  10
BRANCH   6  17
ATOM     17  O   UNL     1       0.713  10.835  22.015  0.00  0.00    +0.000 OA
BRANCH  17  18
ATOM     18  C   UNL     1       0.860   9.612  22.625  0.00  0.00    +0.000 C 
BRANCH  18  19
ATOM     19  C   UNL     1       0.732   8.476  21.651  0.00  0.00    +0.000 C 
ATOM     20  O   UNL     1      -0.374   8.073  21.321  0.00  0.00    +0.000 OA
ATOM     21  N   UNL     1       1.883   7.966  21.136  0.00  0.00    +0.000 N 
ATOM     22  H   UNL     1       2.757   8.409  21.449  0.00  0.00    +0.000 HD
BRANCH  21  23
ATOM     23  C   UNL     1       2.020   6.917  20.165  0.00  0.00    +0.000 A 
ATOM     24  C   UNL     1       2.504   7.100  18.851  0.00  0.00    +0.000 A 
ATOM     25  C   UNL     1       2.618   6.009  17.984  0.00  0.00    +0.000 A 
ATOM     26  C   UNL     1       2.264   4.727  18.408  0.00  0.00    +0.000 A 
ATOM     27  C   UNL     1       1.772   4.523  19.706  0.00  0.00    +0.000 A 
ATOM     28  C   UNL     1       1.644   5.621  20.565  0.00  0.00    +0.000 A 
BRANCH  27  29
ATOM     29  C   UNL     1       1.389   3.154  20.208  0.00  0.00    +0.000 C 
ATOM     30  F   UNL     1       0.287   2.654  19.536  0.00  0.00    +0.000 F 
ATOM     31  F   UNL     1       2.449   2.284  20.022  0.00  0.00    +0.000 F 
ATOM     32  F   UNL     1       1.092   3.222  21.558  0.00  0.00    +0.000 F 
ENDBRANCH  27  29
ENDBRANCH  21  23
ENDBRANCH  18  19
ENDBRANCH  17  18
ENDBRANCH   6  17
TORSDOF 10
ENDMDL
MODEL 6
REMARK VINA RESULT:      -7.3      6.554      8.348
REMARK  Name = 
REMARK  14 active torsions:
REMARK  status: ('A' for Active; 'I' for Inactive)
REMARK    1  A    between atoms: C_1  and  C_2
REMARK    2  A    between atoms: C_2  and  O_3
REMARK    3  A    between atoms: O_3  and  C_4
REMARK    4  A    between atoms: C_6  and  C_7
REMARK    5  A    between atoms: C_7  and  N_8
REMARK    6  A    between atoms: N_8  and  C_9
REMARK    7  A    between atoms: C_9  and  C_10
REMARK    8  A    between atoms: C_9  and  C_11
REMARK    9  A    between atoms: C_9  and  C_12
REMARK   10  A    between atoms: C_15  and  O_16
REMARK   11  A    between atoms: O_16  and  C_17
REMARK   12  A    between atoms: C_17  and  C_18
REMARK   13  A    between atoms: N_20  and  C_21
REMARK   14  A    between atoms: C_25  and  C_26
REMARK                            x       y       z     vdW  Elec       q    Type
REMARK                         _______ _______ _______ _____ _____    ______ ____
ROOT
ATOM      1  C   UNL     1       6.220   5.382  16.091  0.00  0.00    +0.000 A 
ATOM      2  C   UNL     1       5.337   4.295  16.230  0.00  0.00    +0.000 A 
ATOM      3  C   UNL     1       4.812   3.939  17.470  0.00  0.00    +0.000 A 
ATOM      4  C   UNL     1       5.188   4.648  18.613  0.00  0.00    +0.000 A 
ATOM      5  C   UNL     1       6.063   5.724  18.509  0.00  0.00    +0.000 A 
ATOM      6  C   UNL     1       6.573   6.120  17.266  0.00  0.00    +0.000 A 
ENDROOT
BRANCH   1   7
ATOM      7  O   UNL     1       6.717   5.707  14.859  0.00  0.00    +0.000 OA
BRANCH   7   9
ATOM      8  C   UNL     1       7.940   5.380  12.799  0.00  0.00    +0.000 C 
ATOM      9  C   UNL     1       7.041   4.784  13.870  0.00  0.00    +0.000 C 
ENDBRANCH   7   9
ENDBRANCH   1   7
BRANCH   3  10
ATOM     10  C   UNL     1       3.821   2.821  17.546  0.00  0.00    +0.000 C 
BRANCH  10  11
ATOM     11  N   UNL     1       2.448   3.340  17.680  0.00  0.00    +0.000 NA
ATOM     12  H   UNL     1       1.848   2.859  16.969  0.00  0.00    +0.000 HD
BRANCH  11  13
ATOM     13  C   UNL     1       1.848   3.175  19.029  0.00  0.00    +0.000 C 
ATOM     14  C   UNL     1       1.597   4.546  19.698  0.00  0.00    +0.000 C 
ATOM     15  C   UNL     1       0.484   2.471  18.873  0.00  0.00    +0.000 C 
ATOM     16  C   UNL     1       2.741   2.302  19.939  0.00  0.00    +0.000 C 
ENDBRANCH  11  13
ENDBRANCH  10  11
ENDBRANCH   3  10
BRANCH   6  17
ATOM     17  O   UNL     1       7.342   7.240  17.269  0.00  0.00    +0.000 OA
BRANCH  17  18
ATOM     18  C   UNL     1       8.226   7.575  18.267  0.00  0.00    +0.000 C 
BRANCH  18  19
ATOM     19  C   UNL     1       8.455   9.056  18.345  0.00  0.00    +0.000 C 
ATOM     20  O   UNL     1       7.831   9.812  17.613  0.00  0.00    +0.000 OA
ATOM     21  N   UNL     1       9.336   9.502  19.280  0.00  0.00    +0.000 N 
ATOM     22  H   UNL     1       9.773   8.783  19.873  0.00  0.00    +0.000 HD
BRANCH  21  23
ATOM     23  C   UNL     1       9.689  10.862  19.575  0.00  0.00    +0.000 A 
ATOM     24  C   UNL     1      10.478  11.684  18.741  0.00  0.00    +0.000 A 
ATOM     25  C   UNL     1      10.752  13.005  19.108  0.00  0.00    +0.000 A 
ATOM     26  C   UNL     1      10.243  13.529  20.297  0.00  0.00    +0.000 A 
ATOM     27  C   UNL     1       9.464  12.729  21.147  0.00  0.00    +0.000 A 
ATOM     28  C   UNL     1       9.207  11.402  20.782  0.00  0.00    +0.000 A 
BRANCH  27  29
ATOM     29  C   UNL     1       8.886  13.259  22.434  0.00  0.00    +0.000 C 
ATOM     30  F   UNL     1       9.543  14.400  22.857  0.00  0.00    +0.000 F 
ATOM     31  F   UNL     1       7.550  13.566  22.244  0.00  0.00    +0.000 F 
ATOM     32  F   UNL     1       8.991  12.295  23.421  0.00  0.00    +0.000 F 
ENDBRANCH  27  29
ENDBRANCH  21  23
ENDBRANCH  18  19
ENDBRANCH  17  18
ENDBRANCH   6  17
TORSDOF 10
ENDMDL
MODEL 7
REMARK VINA RESULT:      -7.3      4.561     10.415
REMARK  Name = 
REMARK  14 active torsions:
REMARK  status: ('A' for Active; 'I' for Inactive)
REMARK    1  A    between atoms: C_1  and  C_2
REMARK    2  A    between atoms: C_2  and  O_3
REMARK    3  A    between atoms: O_3  and  C_4
REMARK    4  A    between atoms: C_6  and  C_7
REMARK    5  A    between atoms: C_7  and  N_8
REMARK    6  A    between atoms: N_8  and  C_9
REMARK    7  A    between atoms: C_9  and  C_10
REMARK    8  A    between atoms: C_9  and  C_11
REMARK    9  A    between atoms: C_9  and  C_12
REMARK   10  A    between atoms: C_15  and  O_16
REMARK   11  A    between atoms: O_16  and  C_17
REMARK   12  A    between atoms: C_17  and  C_18
REMARK   13  A    between atoms: N_20  and  C_21
REMARK   14  A    between atoms: C_25  and  C_26
REMARK                            x       y       z     vdW  Elec       q    Type
REMARK                         _______ _______ _______ _____ _____    ______ ____
ROOT
ATOM      1  C   UNL     1      -1.387  11.629  19.143  0.00  0.00    +0.000 A 
ATOM      2  C   UNL     1      -2.687  11.909  18.682  0.00  0.00    +0.000 A 
ATOM      3  C   UNL     1      -3.259  11.185  17.639  0.00  0.00    +0.000 A 
ATOM      4  C   UNL     1      -2.525  10.179  17.007  0.00  0.00    +0.000 A 
ATOM      5  C   UNL     1      -1.237   9.882  17.437  0.00  0.00    +0.000 A 
ATOM      6  C   UNL     1      -0.657  10.574  18.509  0.00  0.00    +0.000 A 
ENDROOT
BRANCH   1   7
ATOM      7  O   UNL     1      -0.854  12.358  20.171  0.00  0.00    +0.000 OA
BRANCH   7   9
ATOM      8  C   UNL     1       0.295  14.085  18.930  0.00  0.00    +0.000 C 
ATOM      9  C   UNL     1      -0.585  13.721  20.115  0.00  0.00    +0.000 C 
ENDBRANCH   7   9
ENDBRANCH   1   7
BRANCH   3  10
ATOM     10  C   UNL     1      -4.671  11.478  17.240  0.00  0.00    +0.000 C 
BRANCH  10  11
ATOM     11  N   UNL     1      -5.259  12.518  18.102  0.00  0.00    +0.000 NA
ATOM     12  H   UNL     1      -5.574  13.308  17.490  0.00  0.00    +0.000 HD
BRANCH  11  13
ATOM     13  C   UNL     1      -6.394  12.062  18.946  0.00  0.00    +0.000 C 
ATOM     14  C   UNL     1      -6.065  12.210  20.449  0.00  0.00    +0.000 C 
ATOM     15  C   UNL     1      -7.616  12.953  18.642  0.00  0.00    +0.000 C 
ATOM     16  C   UNL     1      -6.774  10.597  18.632  0.00  0.00    +0.000 C 
ENDBRANCH  11  13
ENDBRANCH  10  11
ENDBRANCH   3  10
BRANCH   6  17
ATOM     17  O   UNL     1       0.566  10.138  18.904  0.00  0.00    +0.000 OA
BRANCH  17  18
ATOM     18  C   UNL     1       1.425   9.407  18.118  0.00  0.00    +0.000 C 
BRANCH  18  19
ATOM     19  C   UNL     1       1.947   8.193  18.831  0.00  0.00    +0.000 C 
ATOM     20  O   UNL     1       1.829   8.095  20.044  0.00  0.00    +0.000 OA
ATOM     21  N   UNL     1       2.501   7.213  18.067  0.00  0.00    +0.000 N 
ATOM     22  H   UNL     1       2.511   7.378  17.051  0.00  0.00    +0.000 HD
BRANCH  21  23
ATOM     23  C   UNL     1       3.028   5.951  18.505  0.00  0.00    +0.000 A 
ATOM     24  C   UNL     1       4.394   5.695  18.749  0.00  0.00    +0.000 A 
ATOM     25  C   UNL     1       4.806   4.435  19.193  0.00  0.00    +0.000 A 
ATOM     26  C   UNL     1       3.874   3.419  19.408  0.00  0.00    +0.000 A 
ATOM     27  C   UNL     1       2.511   3.648  19.162  0.00  0.00    +0.000 A 
ATOM     28  C   UNL     1       2.106   4.906  18.702  0.00  0.00    +0.000 A 
BRANCH  27  29
ATOM     29  C   UNL     1       1.469   2.583  19.391  0.00  0.00    +0.000 C 
ATOM     30  F   UNL     1       1.976   1.315  19.162  0.00  0.00    +0.000 F 
ATOM     31  F   UNL     1       1.026   2.649  20.700  0.00  0.00    +0.000 F 
ATOM     32  F   UNL     1       0.398   2.792  18.542  0.00  0.00    +0.000 F 
ENDBRANCH  27  29
ENDBRANCH  21  23
ENDBRANCH  18  19
ENDBRANCH  17  18
ENDBRANCH   6  17
TORSDOF 10
ENDMDL
MODEL 8
REMARK VINA RESULT:      -7.3      2.550      3.177
REMARK  Name = 
REMARK  14 active torsions:
REMARK  status: ('A' for Active; 'I' for Inactive)
REMARK    1  A    between atoms: C_1  and  C_2
REMARK    2  A    between atoms: C_2  and  O_3
REMARK    3  A    between atoms: O_3  and  C_4
REMARK    4  A    between atoms: C_6  and  C_7
REMARK    5  A    between atoms: C_7  and  N_8
REMARK    6  A    between atoms: N_8  and  C_9
REMARK    7  A    between atoms: C_9  and  C_10
REMARK    8  A    between atoms: C_9  and  C_11
REMARK    9  A    between atoms: C_9  and  C_12
REMARK   10  A    between atoms: C_15  and  O_16
REMARK   11  A    between atoms: O_16  and  C_17
REMARK   12  A    between atoms: C_17  and  C_18
REMARK   13  A    between atoms: N_20  and  C_21
REMARK   14  A    between atoms: C_25  and  C_26
REMARK                            x       y       z     vdW  Elec       q    Type
REMARK                         _______ _______ _______ _____ _____    ______ ____
ROOT
ATOM      1  C   UNL     1       4.718   3.771  17.542  0.00  0.00    +0.000 A 
ATOM      2  C   UNL     1       5.267   3.742  16.247  0.00  0.00    +0.000 A 
ATOM      3  C   UNL     1       5.930   4.845  15.714  0.00  0.00    +0.000 A 
ATOM      4  C   UNL     1       6.030   6.022  16.459  0.00  0.00    +0.000 A 
ATOM      5  C   UNL     1       5.493   6.083  17.740  0.00  0.00    +0.000 A 
ATOM      6  C   UNL     1       4.855   4.973  18.308  0.00  0.00    +0.000 A 
ENDROOT
BRANCH   1   7
ATOM      7  O   UNL     1       4.073   2.671  18.037  0.00  0.00    +0.000 OA
BRANCH   7   9
ATOM      8  C   UNL     1       1.931   3.492  17.277  0.00  0.00    +0.000 C 
ATOM      9  C   UNL     1       2.773   2.303  17.708  0.00  0.00    +0.000 C 
ENDBRANCH   7   9
ENDBRANCH   1   7
BRANCH   3  10
ATOM     10  C   UNL     1       6.558   4.731  14.361  0.00  0.00    +0.000 C 
BRANCH  10  11
ATOM     11  N   UNL     1       6.300   3.407  13.768  0.00  0.00    +0.000 NA
ATOM     12  H   UNL     1       5.400   3.044  14.163  0.00  0.00    +0.000 HD
BRANCH  11  13
ATOM     13  C   UNL     1       6.232   3.390  12.284  0.00  0.00    +0.000 C 
ATOM     14  C   UNL     1       6.697   2.026  11.721  0.00  0.00    +0.000 C 
ATOM     15  C   UNL     1       4.764   3.599  11.860  0.00  0.00    +0.000 C 
ATOM     16  C   UNL     1       7.080   4.528  11.669  0.00  0.00    +0.000 C 
ENDBRANCH  11  13
ENDBRANCH  10  11
ENDBRANCH   3  10
BRANCH   6  17
ATOM     17  O   UNL     1       4.453   5.114  19.597  0.00  0.00    +0.000 OA
BRANCH  17  18
ATOM     18  C   UNL     1       3.286   4.599  20.111  0.00  0.00    +0.000 C 
BRANCH  18  19
ATOM     19  C   UNL     1       2.229   5.653  20.276  0.00  0.00    +0.000 C 
ATOM     20  O   UNL     1       1.130   5.354  20.720  0.00  0.00    +0.000 OA
ATOM     21  N   UNL     1       2.568   6.930  19.956  0.00  0.00    +0.000 N 
ATOM     22  H   UNL     1       3.534   7.077  19.633  0.00  0.00    +0.000 HD
BRANCH  21  23
ATOM     23  C   UNL     1       1.754   8.108  20.067  0.00  0.00    +0.000 A 
ATOM     24  C   UNL     1       1.472   8.990  19.001  0.00  0.00    +0.000 A 
ATOM     25  C   UNL     1       0.651  10.103  19.206  0.00  0.00    +0.000 A 
ATOM     26  C   UNL     1       0.094  10.351  20.461  0.00  0.00    +0.000 A 
ATOM     27  C   UNL     1       0.368   9.493  21.538  0.00  0.00    +0.000 A 
ATOM     28  C   UNL     1       1.204   8.390  21.332  0.00  0.00    +0.000 A 
BRANCH  27  29
ATOM     29  C   UNL     1      -0.222   9.718  22.907  0.00  0.00    +0.000 C 
ATOM     30  F   UNL     1      -0.722  11.001  23.043  0.00  0.00    +0.000 F 
ATOM     31  F   UNL     1      -1.254   8.820  23.114  0.00  0.00    +0.000 F 
ATOM     32  F   UNL     1       0.751   9.516  23.870  0.00  0.00    +0.000 F 
ENDBRANCH  27  29
ENDBRANCH  21  23
ENDBRANCH  18  19
ENDBRANCH  17  18
ENDBRANCH   6  17
TORSDOF 10
ENDMDL
MODEL 9
REMARK VINA RESULT:      -7.2      4.204     10.520
REMARK  Name = 
REMARK  14 active torsions:
REMARK  status: ('A' for Active; 'I' for Inactive)
REMARK    1  A    between atoms: C_1  and  C_2
REMARK    2  A    between atoms: C_2  and  O_3
REMARK    3  A    between atoms: O_3  and  C_4
REMARK    4  A    between atoms: C_6  and  C_7
REMARK    5  A    between atoms: C_7  and  N_8
REMARK    6  A    between atoms: N_8  and  C_9
REMARK    7  A    between atoms: C_9  and  C_10
REMARK    8  A    between atoms: C_9  and  C_11
REMARK    9  A    between atoms: C_9  and  C_12
REMARK   10  A    between atoms: C_15  and  O_16
REMARK   11  A    between atoms: O_16  and  C_17
REMARK   12  A    between atoms: C_17  and  C_18
REMARK   13  A    between atoms: N_20  and  C_21
REMARK   14  A    between atoms: C_25  and  C_26
REMARK                            x       y       z     vdW  Elec       q    Type
REMARK                         _______ _______ _______ _____ _____    ______ ____
ROOT
ATOM      1  C   UNL     1      -1.778  10.755  17.759  0.00  0.00    +0.000 A 
ATOM      2  C   UNL     1      -2.615  11.648  18.455  0.00  0.00    +0.000 A 
ATOM      3  C   UNL     1      -2.293  12.098  19.733  0.00  0.00    +0.000 A 
ATOM      4  C   UNL     1      -1.134  11.635  20.361  0.00  0.00    +0.000 A 
ATOM      5  C   UNL     1      -0.290  10.749  19.701  0.00  0.00    +0.000 A 
ATOM      6  C   UNL     1      -0.578  10.313  18.401  0.00  0.00    +0.000 A 
ENDROOT
BRANCH   1   7
ATOM      7  O   UNL     1      -2.122  10.332  16.504  0.00  0.00    +0.000 OA
BRANCH   7   9
ATOM      8  C   UNL     1      -3.318  10.185  14.409  0.00  0.00    +0.000 C 
ATOM      9  C   UNL     1      -3.286  10.701  15.839  0.00  0.00    +0.000 C 
ENDBRANCH   7   9
ENDBRANCH   1   7
BRANCH   3  10
ATOM     10  C   UNL     1      -3.182  13.103  20.395  0.00  0.00    +0.000 C 
BRANCH  10  11
ATOM     11  N   UNL     1      -4.453  13.247  19.663  0.00  0.00    +0.000 NA
ATOM     12  H   UNL     1      -4.424  12.609  18.833  0.00  0.00    +0.000 HD
BRANCH  11  13
ATOM     13  C   UNL     1      -5.671  12.963  20.466  0.00  0.00    +0.000 C 
ATOM     14  C   UNL     1      -6.328  11.634  20.027  0.00  0.00    +0.000 C 
ATOM     15  C   UNL     1      -5.257  12.818  21.945  0.00  0.00    +0.000 C 
ATOM     16  C   UNL     1      -6.695  14.116  20.361  0.00  0.00    +0.000 C 
ENDBRANCH  11  13
ENDBRANCH  10  11
ENDBRANCH   3  10
BRANCH   6  17
ATOM     17  O   UNL     1       0.362   9.525  17.819  0.00  0.00    +0.000 OA
BRANCH  17  18
ATOM     18  C   UNL     1       1.708   9.587  18.090  0.00  0.00    +0.000 C 
BRANCH  18  19
ATOM     19  C   UNL     1       2.245   8.274  18.584  0.00  0.00    +0.000 C 
ATOM     20  O   UNL     1       1.999   7.900  19.721  0.00  0.00    +0.000 OA
ATOM     21  N   UNL     1       2.961   7.524  17.704  0.00  0.00    +0.000 N 
ATOM     22  H   UNL     1       3.072   7.914  16.758  0.00  0.00    +0.000 HD
BRANCH  21  23
ATOM     23  C   UNL     1       3.537   6.227  17.922  0.00  0.00    +0.000 A 
ATOM     24  C   UNL     1       4.918   5.981  18.082  0.00  0.00    +0.000 A 
ATOM     25  C   UNL     1       5.380   4.681  18.309  0.00  0.00    +0.000 A 
ATOM     26  C   UNL     1       4.484   3.614  18.390  0.00  0.00    +0.000 A 
ATOM     27  C   UNL     1       3.108   3.834  18.224  0.00  0.00    +0.000 A 
ATOM     28  C   UNL     1       2.652   5.135  17.980  0.00  0.00    +0.000 A 
BRANCH  27  29
ATOM     29  C   UNL     1       2.105   2.713  18.314  0.00  0.00    +0.000 C 
ATOM     30  F   UNL     1       0.808   3.175  18.173  0.00  0.00    +0.000 F 
ATOM     31  F   UNL     1       2.354   1.792  17.312  0.00  0.00    +0.000 F 
ATOM     32  F   UNL     1       2.220   2.085  19.542  0.00  0.00    +0.000 F 
ENDBRANCH  27  29
ENDBRANCH  21  23
ENDBRANCH  18  19
ENDBRANCH  17  18
ENDBRANCH   6  17
TORSDOF 10
ENDMDL
