MODEL 1
REMARK VINA RESULT:      -6.8      0.000      0.000
REMARK  Name = 
REMARK  10 active torsions:
REMARK  status: ('A' for Active; 'I' for Inactive)
REMARK    1  A    between atoms: C_1  and  O_2
REMARK    2  A    between atoms: O_2  and  C_3
REMARK    3  A    between atoms: C_3  and  C_4
REMARK    4  A    between atoms: C_10  and  C_11
REMARK    5  A    between atoms: C_11  and  C_12
REMARK    6  A    between atoms: C_13  and  C_14
REMARK    7  A    between atoms: C_14  and  C_15
REMARK    8  A    between atoms: C_15  and  C_16
REMARK    9  A    between atoms: C_16  and  C_17
REMARK   10  A    between atoms: C_17  and  O_19
REMARK                            x       y       z     vdW  Elec       q    Type
REMARK                         _______ _______ _______ _____ _____    ______ ____
ROOT
ATOM      1  C   UNL     1       3.204   4.629  19.424  0.00  0.00    +0.000 C 
ATOM      2  C   UNL     1       2.541   3.594  20.348  0.00  0.00    +0.000 C 
ATOM      3  C   UNL     1       1.028   3.504  20.184  0.00  0.00    +0.000 C 
ATOM      4  C   UNL     1       0.895   2.918  18.781  0.00  0.00    +0.000 C 
ATOM      5  C   UNL     1       2.353   2.649  18.406  0.00  0.00    +0.000 C 
ATOM      6  O   UNL     1       2.937   2.359  19.697  0.00  0.00    +0.000 OA
ATOM      7  C   UNL     1       3.070   3.958  18.033  0.00  0.00    +0.000 C 
ENDROOT
BRANCH   1   8
ATOM      8  C   UNL     1       2.618   6.034  19.513  0.00  0.00    +0.000 C 
BRANCH   8  10
ATOM      9  C   UNL     1       2.353   7.871  18.050  0.00  0.00    +0.000 C 
ATOM     10  O   UNL     1       2.280   6.461  18.196  0.00  0.00    +0.000 OA
ENDBRANCH   8  10
ENDBRANCH   1   8
BRANCH   7  11
ATOM     11  C   UNL     1       4.459   3.702  17.423  0.00  0.00    +0.000 C 
BRANCH  11  12
ATOM     12  C   UNL     1       4.753   4.575  16.233  0.00  0.00    +0.000 C 
ATOM     13  C   UNL     1       5.335   5.784  16.238  0.00  0.00    +0.000 C 
BRANCH  13  14
ATOM     14  C   UNL     1       5.774   6.553  17.451  0.00  0.00    +0.000 C 
BRANCH  14  15
ATOM     15  C   UNL     1       7.178   7.145  17.309  0.00  0.00    +0.000 C 
BRANCH  15  16
ATOM     16  C   UNL     1       8.038   6.946  18.555  0.00  0.00    +0.000 C 
BRANCH  16  17
ATOM     17  C   UNL     1       7.950   5.528  19.074  0.00  0.00    +0.000 C 
ATOM     18  O   UNL     1       7.954   4.523  18.387  0.00  0.00    +0.000 OA
BRANCH  17  19
ATOM     19  O   UNL     1       7.860   5.485  20.424  0.00  0.00    +0.000 OA
ATOM     20  H   UNL     1       7.524   4.637  20.770  0.00  0.00    +0.000 HD
ENDBRANCH  17  19
ENDBRANCH  16  17
ENDBRANCH  15  16
ENDBRANCH  14  15
ENDBRANCH  13  14
ENDBRANCH  11  12
ENDBRANCH   7  11
TORSDOF 9
ENDMDL
MODEL 2
REMARK VINA RESULT:      -6.6      1.496      5.344
REMARK  Name = 
REMARK  10 active torsions:
REMARK  status: ('A' for Active; 'I' for Inactive)
REMARK    1  A    between atoms: C_1  and  O_2
REMARK    2  A    between atoms: O_2  and  C_3
REMARK    3  A    between atoms: C_3  and  C_4
REMARK    4  A    between atoms: C_10  and  C_11
REMARK    5  A    between atoms: C_11  and  C_12
REMARK    6  A    between atoms: C_13  and  C_14
REMARK    7  A    between atoms: C_14  and  C_15
REMARK    8  A    between atoms: C_15  and  C_16
REMARK    9  A    between atoms: C_16  and  C_17
REMARK   10  A    between atoms: C_17  and  O_19
REMARK                            x       y       z     vdW  Elec       q    Type
REMARK                         _______ _______ _______ _____ _____    ______ ____
ROOT
ATOM      1  C   UNL     1       5.252   5.804  17.150  0.00  0.00    +0.000 C 
ATOM      2  C   UNL     1       6.643   6.074  16.552  0.00  0.00    +0.000 C 
ATOM      3  C   UNL     1       7.464   7.089  17.340  0.00  0.00    +0.000 C 
ATOM      4  C   UNL     1       7.736   6.338  18.639  0.00  0.00    +0.000 C 
ATOM      5  C   UNL     1       7.133   4.963  18.348  0.00  0.00    +0.000 C 
ATOM      6  O   UNL     1       7.336   4.853  16.920  0.00  0.00    +0.000 OA
ATOM      7  C   UNL     1       5.598   5.011  18.437  0.00  0.00    +0.000 C 
ENDROOT
BRANCH   1   8
ATOM      8  C   UNL     1       4.401   7.049  17.378  0.00  0.00    +0.000 C 
BRANCH   8  10
ATOM      9  C   UNL     1       2.418   7.758  18.449  0.00  0.00    +0.000 C 
ATOM     10  O   UNL     1       3.385   6.728  18.325  0.00  0.00    +0.000 OA
ENDBRANCH   8  10
ENDBRANCH   1   8
BRANCH   7  11
ATOM     11  C   UNL     1       4.973   3.606  18.387  0.00  0.00    +0.000 C 
BRANCH  11  12
ATOM     12  C   UNL     1       3.828   3.502  17.416  0.00  0.00    +0.000 C 
ATOM     13  C   UNL     1       2.644   2.904  17.619  0.00  0.00    +0.000 C 
BRANCH  13  14
ATOM     14  C   UNL     1       2.226   2.159  18.853  0.00  0.00    +0.000 C 
BRANCH  14  15
ATOM     15  C   UNL     1       0.891   2.645  19.422  0.00  0.00    +0.000 C 
BRANCH  15  16
ATOM     16  C   UNL     1       0.978   4.041  20.036  0.00  0.00    +0.000 C 
BRANCH  16  17
ATOM     17  C   UNL     1       2.062   4.123  21.086  0.00  0.00    +0.000 C 
ATOM     18  O   UNL     1       2.163   3.397  22.058  0.00  0.00    +0.000 OA
BRANCH  17  19
ATOM     19  O   UNL     1       2.940   5.123  20.833  0.00  0.00    +0.000 OA
ATOM     20  H   UNL     1       3.815   4.814  20.530  0.00  0.00    +0.000 HD
ENDBRANCH  17  19
ENDBRANCH  16  17
ENDBRANCH  15  16
ENDBRANCH  14  15
ENDBRANCH  13  14
ENDBRANCH  11  12
ENDBRANCH   7  11
TORSDOF 9
ENDMDL
MODEL 3
REMARK VINA RESULT:      -6.5      1.438      5.270
REMARK  Name = 
REMARK  10 active torsions:
REMARK  status: ('A' for Active; 'I' for Inactive)
REMARK    1  A    between atoms: C_1  and  O_2
REMARK    2  A    between atoms: O_2  and  C_3
REMARK    3  A    between atoms: C_3  and  C_4
REMARK    4  A    between atoms: C_10  and  C_11
REMARK    5  A    between atoms: C_11  and  C_12
REMARK    6  A    between atoms: C_13  and  C_14
REMARK    7  A    between atoms: C_14  and  C_15
REMARK    8  A    between atoms: C_15  and  C_16
REMARK    9  A    between atoms: C_16  and  C_17
REMARK   10  A    between atoms: C_17  and  O_19
REMARK                            x       y       z     vdW  Elec       q    Type
REMARK                         _______ _______ _______ _____ _____    ______ ____
ROOT
ATOM      1  C   UNL     1       5.149   5.712  17.130  0.00  0.00    +0.000 C 
ATOM      2  C   UNL     1       6.570   5.878  16.567  0.00  0.00    +0.000 C 
ATOM      3  C   UNL     1       7.428   6.868  17.348  0.00  0.00    +0.000 C 
ATOM      4  C   UNL     1       7.617   6.144  18.678  0.00  0.00    +0.000 C 
ATOM      5  C   UNL     1       6.940   4.799  18.410  0.00  0.00    +0.000 C 
ATOM      6  O   UNL     1       7.177   4.630  16.993  0.00  0.00    +0.000 OA
ATOM      7  C   UNL     1       5.409   4.941  18.450  0.00  0.00    +0.000 C 
ENDROOT
BRANCH   1   8
ATOM      8  C   UNL     1       4.369   7.012  17.293  0.00  0.00    +0.000 C 
BRANCH   8  10
ATOM      9  C   UNL     1       2.369   7.830  18.248  0.00  0.00    +0.000 C 
ATOM     10  O   UNL     1       3.343   6.798  18.259  0.00  0.00    +0.000 OA
ENDBRANCH   8  10
ENDBRANCH   1   8
BRANCH   7  11
ATOM     11  C   UNL     1       4.701   3.576  18.424  0.00  0.00    +0.000 C 
BRANCH  11  12
ATOM     12  C   UNL     1       3.675   3.462  17.329  0.00  0.00    +0.000 C 
ATOM     13  C   UNL     1       2.388   3.104  17.457  0.00  0.00    +0.000 C 
BRANCH  13  14
ATOM     14  C   UNL     1       1.705   2.686  18.727  0.00  0.00    +0.000 C 
BRANCH  14  15
ATOM     15  C   UNL     1       1.140   3.868  19.520  0.00  0.00    +0.000 C 
BRANCH  15  16
ATOM     16  C   UNL     1       1.957   4.193  20.769  0.00  0.00    +0.000 C 
BRANCH  16  17
ATOM     17  C   UNL     1       2.305   2.946  21.549  0.00  0.00    +0.000 C 
ATOM     18  O   UNL     1       3.390   2.393  21.553  0.00  0.00    +0.000 OA
BRANCH  17  19
ATOM     19  O   UNL     1       1.253   2.483  22.264  0.00  0.00    +0.000 OA
ATOM     20  H   UNL     1       0.420   2.962  22.097  0.00  0.00    +0.000 HD
ENDBRANCH  17  19
ENDBRANCH  16  17
ENDBRANCH  15  16
ENDBRANCH  14  15
ENDBRANCH  13  14
ENDBRANCH  11  12
ENDBRANCH   7  11
TORSDOF 9
ENDMDL
MODEL 4
REMARK VINA RESULT:      -6.5      1.900      5.596
REMARK  Name = 
REMARK  10 active torsions:
REMARK  status: ('A' for Active; 'I' for Inactive)
REMARK    1  A    between atoms: C_1  and  O_2
REMARK    2  A    between atoms: O_2  and  C_3
REMARK    3  A    between atoms: C_3  and  C_4
REMARK    4  A    between atoms: C_10  and  C_11
REMARK    5  A    between atoms: C_11  and  C_12
REMARK    6  A    between atoms: C_13  and  C_14
REMARK    7  A    between atoms: C_14  and  C_15
REMARK    8  A    between atoms: C_15  and  C_16
REMARK    9  A    between atoms: C_16  and  C_17
REMARK   10  A    between atoms: C_17  and  O_19
REMARK                            x       y       z     vdW  Elec       q    Type
REMARK                         _______ _______ _______ _____ _____    ______ ____
ROOT
ATOM      1  C   UNL     1       5.874   5.993  17.592  0.00  0.00    +0.000 C 
ATOM      2  C   UNL     1       5.289   5.975  16.170  0.00  0.00    +0.000 C 
ATOM      3  C   UNL     1       6.157   5.231  15.160  0.00  0.00    +0.000 C 
ATOM      4  C   UNL     1       6.047   3.789  15.647  0.00  0.00    +0.000 C 
ATOM      5  C   UNL     1       5.036   3.913  16.788  0.00  0.00    +0.000 C 
ATOM      6  O   UNL     1       4.215   5.013  16.333  0.00  0.00    +0.000 OA
ATOM      7  C   UNL     1       5.696   4.520  18.038  0.00  0.00    +0.000 C 
ENDROOT
BRANCH   1   8
ATOM      8  C   UNL     1       7.300   6.523  17.691  0.00  0.00    +0.000 C 
BRANCH   8  10
ATOM      9  C   UNL     1       8.018   8.769  17.846  0.00  0.00    +0.000 C 
ATOM     10  O   UNL     1       7.348   7.799  17.056  0.00  0.00    +0.000 OA
ENDBRANCH   8  10
ENDBRANCH   1   8
BRANCH   7  11
ATOM     11  C   UNL     1       4.781   4.437  19.272  0.00  0.00    +0.000 C 
BRANCH  11  12
ATOM     12  C   UNL     1       3.874   5.630  19.416  0.00  0.00    +0.000 C 
ATOM     13  C   UNL     1       2.757   5.715  20.155  0.00  0.00    +0.000 C 
BRANCH  13  14
ATOM     14  C   UNL     1       2.140   4.609  20.962  0.00  0.00    +0.000 C 
BRANCH  14  15
ATOM     15  C   UNL     1       0.934   3.967  20.272  0.00  0.00    +0.000 C 
BRANCH  15  16
ATOM     16  C   UNL     1       1.252   2.600  19.668  0.00  0.00    +0.000 C 
BRANCH  16  17
ATOM     17  C   UNL     1       1.684   2.715  18.224  0.00  0.00    +0.000 C 
ATOM     18  O   UNL     1       1.394   3.625  17.469  0.00  0.00    +0.000 OA
BRANCH  17  19
ATOM     19  O   UNL     1       2.449   1.667  17.837  0.00  0.00    +0.000 OA
ATOM     20  H   UNL     1       3.144   1.901  17.193  0.00  0.00    +0.000 HD
ENDBRANCH  17  19
ENDBRANCH  16  17
ENDBRANCH  15  16
ENDBRANCH  14  15
ENDBRANCH  13  14
ENDBRANCH  11  12
ENDBRANCH   7  11
TORSDOF 9
ENDMDL
MODEL 5
REMARK VINA RESULT:      -6.4      1.911      5.299
REMARK  Name = 
REMARK  10 active torsions:
REMARK  status: ('A' for Active; 'I' for Inactive)
REMARK    1  A    between atoms: C_1  and  O_2
REMARK    2  A    between atoms: O_2  and  C_3
REMARK    3  A    between atoms: C_3  and  C_4
REMARK    4  A    between atoms: C_10  and  C_11
REMARK    5  A    between atoms: C_11  and  C_12
REMARK    6  A    between atoms: C_13  and  C_14
REMARK    7  A    between atoms: C_14  and  C_15
REMARK    8  A    between atoms: C_15  and  C_16
REMARK    9  A    between atoms: C_16  and  C_17
REMARK   10  A    between atoms: C_17  and  O_19
REMARK                            x       y       z     vdW  Elec       q    Type
REMARK                         _______ _______ _______ _____ _____    ______ ____
ROOT
ATOM      1  C   UNL     1       5.153   5.040  16.903  0.00  0.00    +0.000 C 
ATOM      2  C   UNL     1       6.262   4.179  17.530  0.00  0.00    +0.000 C 
ATOM      3  C   UNL     1       7.643   4.824  17.477  0.00  0.00    +0.000 C 
ATOM      4  C   UNL     1       7.479   6.006  18.428  0.00  0.00    +0.000 C 
ATOM      5  C   UNL     1       6.067   5.786  18.972  0.00  0.00    +0.000 C 
ATOM      6  O   UNL     1       5.964   4.344  18.942  0.00  0.00    +0.000 OA
ATOM      7  C   UNL     1       5.011   6.192  17.930  0.00  0.00    +0.000 C 
ENDROOT
BRANCH   1   8
ATOM      8  C   UNL     1       5.426   5.491  15.472  0.00  0.00    +0.000 C 
BRANCH   8  10
ATOM      9  C   UNL     1       6.384   4.078  13.837  0.00  0.00    +0.000 C 
ATOM     10  O   UNL     1       5.229   4.374  14.607  0.00  0.00    +0.000 OA
ENDBRANCH   8  10
ENDBRANCH   1   8
BRANCH   7  11
ATOM     11  C   UNL     1       3.592   6.212  18.524  0.00  0.00    +0.000 C 
BRANCH  11  12
ATOM     12  C   UNL     1       2.632   5.313  17.792  0.00  0.00    +0.000 C 
ATOM     13  C   UNL     1       1.690   4.523  18.330  0.00  0.00    +0.000 C 
BRANCH  13  14
ATOM     14  C   UNL     1       1.428   4.326  19.794  0.00  0.00    +0.000 C 
BRANCH  14  15
ATOM     15  C   UNL     1       1.609   2.874  20.245  0.00  0.00    +0.000 C 
BRANCH  15  16
ATOM     16  C   UNL     1       3.005   2.590  20.796  0.00  0.00    +0.000 C 
BRANCH  16  17
ATOM     17  C   UNL     1       3.897   1.951  19.757  0.00  0.00    +0.000 C 
ATOM     18  O   UNL     1       3.525   1.490  18.693  0.00  0.00    +0.000 OA
BRANCH  17  19
ATOM     19  O   UNL     1       5.195   1.936  20.140  0.00  0.00    +0.000 OA
ATOM     20  H   UNL     1       5.332   1.651  21.063  0.00  0.00    +0.000 HD
ENDBRANCH  17  19
ENDBRANCH  16  17
ENDBRANCH  15  16
ENDBRANCH  14  15
ENDBRANCH  13  14
ENDBRANCH  11  12
ENDBRANCH   7  11
TORSDOF 9
ENDMDL
MODEL 6
REMARK VINA RESULT:      -6.4      1.794      5.514
REMARK  Name = 
REMARK  10 active torsions:
REMARK  status: ('A' for Active; 'I' for Inactive)
REMARK    1  A    between atoms: C_1  and  O_2
REMARK    2  A    between atoms: O_2  and  C_3
REMARK    3  A    between atoms: C_3  and  C_4
REMARK    4  A    between atoms: C_10  and  C_11
REMARK    5  A    between atoms: C_11  and  C_12
REMARK    6  A    between atoms: C_13  and  C_14
REMARK    7  A    between atoms: C_14  and  C_15
REMARK    8  A    between atoms: C_15  and  C_16
REMARK    9  A    between atoms: C_16  and  C_17
REMARK   10  A    between atoms: C_17  and  O_19
REMARK                            x       y       z     vdW  Elec       q    Type
REMARK                         _______ _______ _______ _____ _____    ______ ____
ROOT
ATOM      1  C   UNL     1       5.045   4.513  16.957  0.00  0.00    +0.000 C 
ATOM      2  C   UNL     1       6.236   3.962  17.759  0.00  0.00    +0.000 C 
ATOM      3  C   UNL     1       7.458   4.874  17.750  0.00  0.00    +0.000 C 
ATOM      4  C   UNL     1       6.966   6.074  18.554  0.00  0.00    +0.000 C 
ATOM      5  C   UNL     1       5.579   5.611  19.004  0.00  0.00    +0.000 C 
ATOM      6  O   UNL     1       5.771   4.182  19.117  0.00  0.00    +0.000 OA
ATOM      7  C   UNL     1       4.573   5.694  17.843  0.00  0.00    +0.000 C 
ENDROOT
BRANCH   1   8
ATOM      8  C   UNL     1       5.364   4.885  15.514  0.00  0.00    +0.000 C 
BRANCH   8  10
ATOM      9  C   UNL     1       6.403   4.032  13.570  0.00  0.00    +0.000 C 
ATOM     10  O   UNL     1       5.904   3.736  14.865  0.00  0.00    +0.000 OA
ENDBRANCH   8  10
ENDBRANCH   1   8
BRANCH   7  11
ATOM     11  C   UNL     1       3.127   5.468  18.315  0.00  0.00    +0.000 C 
BRANCH  11  12
ATOM     12  C   UNL     1       2.918   5.811  19.766  0.00  0.00    +0.000 C 
ATOM     13  C   UNL     1       1.999   5.295  20.598  0.00  0.00    +0.000 C 
BRANCH  13  14
ATOM     14  C   UNL     1       0.939   4.294  20.238  0.00  0.00    +0.000 C 
BRANCH  14  15
ATOM     15  C   UNL     1       1.382   2.847  20.464  0.00  0.00    +0.000 C 
BRANCH  15  16
ATOM     16  C   UNL     1       1.660   2.098  19.162  0.00  0.00    +0.000 C 
BRANCH  16  17
ATOM     17  C   UNL     1       3.141   1.884  18.946  0.00  0.00    +0.000 C 
ATOM     18  O   UNL     1       3.647   1.390  17.955  0.00  0.00    +0.000 OA
BRANCH  17  19
ATOM     19  O   UNL     1       3.875   2.306  20.001  0.00  0.00    +0.000 OA
ATOM     20  H   UNL     1       3.429   2.978  20.551  0.00  0.00    +0.000 HD
ENDBRANCH  17  19
ENDBRANCH  16  17
ENDBRANCH  15  16
ENDBRANCH  14  15
ENDBRANCH  13  14
ENDBRANCH  11  12
ENDBRANCH   7  11
TORSDOF 9
ENDMDL
MODEL 7
REMARK VINA RESULT:      -6.4      2.215      5.681
REMARK  Name = 
REMARK  10 active torsions:
REMARK  status: ('A' for Active; 'I' for Inactive)
REMARK    1  A    between atoms: C_1  and  O_2
REMARK    2  A    between atoms: O_2  and  C_3
REMARK    3  A    between atoms: C_3  and  C_4
REMARK    4  A    between atoms: C_10  and  C_11
REMARK    5  A    between atoms: C_11  and  C_12
REMARK    6  A    between atoms: C_13  and  C_14
REMARK    7  A    between atoms: C_14  and  C_15
REMARK    8  A    between atoms: C_15  and  C_16
REMARK    9  A    between atoms: C_16  and  C_17
REMARK   10  A    between atoms: C_17  and  O_19
REMARK                            x       y       z     vdW  Elec       q    Type
REMARK                         _______ _______ _______ _____ _____    ______ ____
ROOT
ATOM      1  C   UNL     1       5.564   4.788  17.505  0.00  0.00    +0.000 C 
ATOM      2  C   UNL     1       6.732   4.511  16.544  0.00  0.00    +0.000 C 
ATOM      3  C   UNL     1       6.347   3.657  15.341  0.00  0.00    +0.000 C 
ATOM      4  C   UNL     1       5.420   4.592  14.570  0.00  0.00    +0.000 C 
ATOM      5  C   UNL     1       5.512   5.881  15.389  0.00  0.00    +0.000 C 
ATOM      6  O   UNL     1       6.863   5.805  15.900  0.00  0.00    +0.000 OA
ATOM      7  C   UNL     1       4.688   5.767  16.682  0.00  0.00    +0.000 C 
ENDROOT
BRANCH   1   8
ATOM      8  C   UNL     1       4.836   3.544  18.003  0.00  0.00    +0.000 C 
BRANCH   8  10
ATOM      9  C   UNL     1       4.428   2.284  19.960  0.00  0.00    +0.000 C 
ATOM     10  O   UNL     1       5.072   3.419  19.403  0.00  0.00    +0.000 OA
ENDBRANCH   8  10
ENDBRANCH   1   8
BRANCH   7  11
ATOM     11  C   UNL     1       4.562   7.117  17.408  0.00  0.00    +0.000 C 
BRANCH  11  12
ATOM     12  C   UNL     1       3.139   7.482  17.737  0.00  0.00    +0.000 C 
ATOM     13  C   UNL     1       2.439   7.118  18.824  0.00  0.00    +0.000 C 
BRANCH  13  14
ATOM     14  C   UNL     1       2.916   6.218  19.926  0.00  0.00    +0.000 C 
BRANCH  14  15
ATOM     15  C   UNL     1       1.906   5.126  20.285  0.00  0.00    +0.000 C 
BRANCH  15  16
ATOM     16  C   UNL     1       1.463   4.303  19.077  0.00  0.00    +0.000 C 
BRANCH  16  17
ATOM     17  C   UNL     1       0.755   3.034  19.494  0.00  0.00    +0.000 C 
ATOM     18  O   UNL     1       0.273   2.211  18.737  0.00  0.00    +0.000 OA
BRANCH  17  19
ATOM     19  O   UNL     1       0.703   2.900  20.840  0.00  0.00    +0.000 OA
ATOM     20  H   UNL     1      -0.181   3.063  21.220  0.00  0.00    +0.000 HD
ENDBRANCH  17  19
ENDBRANCH  16  17
ENDBRANCH  15  16
ENDBRANCH  14  15
ENDBRANCH  13  14
ENDBRANCH  11  12
ENDBRANCH   7  11
TORSDOF 9
ENDMDL
MODEL 8
REMARK VINA RESULT:      -6.4      2.270      3.649
REMARK  Name = 
REMARK  10 active torsions:
REMARK  status: ('A' for Active; 'I' for Inactive)
REMARK    1  A    between atoms: C_1  and  O_2
REMARK    2  A    between atoms: O_2  and  C_3
REMARK    3  A    between atoms: C_3  and  C_4
REMARK    4  A    between atoms: C_10  and  C_11
REMARK    5  A    between atoms: C_11  and  C_12
REMARK    6  A    between atoms: C_13  and  C_14
REMARK    7  A    between atoms: C_14  and  C_15
REMARK    8  A    between atoms: C_15  and  C_16
REMARK    9  A    between atoms: C_16  and  C_17
REMARK   10  A    between atoms: C_17  and  O_19
REMARK                            x       y       z     vdW  Elec       q    Type
REMARK                         _______ _______ _______ _____ _____    ______ ____
ROOT
ATOM      1  C   UNL     1       2.036   4.229  18.756  0.00  0.00    +0.000 C 
ATOM      2  C   UNL     1       0.854   3.924  19.691  0.00  0.00    +0.000 C 
ATOM      3  C   UNL     1       1.008   2.621  20.469  0.00  0.00    +0.000 C 
ATOM      4  C   UNL     1       2.173   2.943  21.402  0.00  0.00    +0.000 C 
ATOM      5  C   UNL     1       2.427   4.421  21.098  0.00  0.00    +0.000 C 
ATOM      6  O   UNL     1       1.098   4.880  20.755  0.00  0.00    +0.000 OA
ATOM      7  C   UNL     1       3.163   4.584  19.758  0.00  0.00    +0.000 C 
ENDROOT
BRANCH   1   8
ATOM      8  C   UNL     1       2.381   3.113  17.776  0.00  0.00    +0.000 C 
BRANCH   8  10
ATOM      9  C   UNL     1       3.762   1.302  18.403  0.00  0.00    +0.000 C 
ATOM     10  O   UNL     1       3.710   2.675  18.049  0.00  0.00    +0.000 OA
ENDBRANCH   8  10
ENDBRANCH   1   8
BRANCH   7  11
ATOM     11  C   UNL     1       3.646   6.028  19.537  0.00  0.00    +0.000 C 
BRANCH  11  12
ATOM     12  C   UNL     1       3.273   6.575  18.185  0.00  0.00    +0.000 C 
ATOM     13  C   UNL     1       4.104   6.877  17.175  0.00  0.00    +0.000 C 
BRANCH  13  14
ATOM     14  C   UNL     1       5.601   6.780  17.198  0.00  0.00    +0.000 C 
BRANCH  14  15
ATOM     15  C   UNL     1       6.118   5.395  16.803  0.00  0.00    +0.000 C 
BRANCH  15  16
ATOM     16  C   UNL     1       5.538   4.898  15.480  0.00  0.00    +0.000 C 
BRANCH  16  17
ATOM     17  C   UNL     1       6.623   4.608  14.468  0.00  0.00    +0.000 C 
ATOM     18  O   UNL     1       7.592   5.313  14.248  0.00  0.00    +0.000 OA
BRANCH  17  19
ATOM     19  O   UNL     1       6.403   3.450  13.804  0.00  0.00    +0.000 OA
ATOM     20  H   UNL     1       5.593   2.982  14.082  0.00  0.00    +0.000 HD
ENDBRANCH  17  19
ENDBRANCH  16  17
ENDBRANCH  15  16
ENDBRANCH  14  15
ENDBRANCH  13  14
ENDBRANCH  11  12
ENDBRANCH   7  11
TORSDOF 9
ENDMDL
MODEL 9
REMARK VINA RESULT:      -6.3      2.027      5.704
REMARK  Name = 
REMARK  10 active torsions:
REMARK  status: ('A' for Active; 'I' for Inactive)
REMARK    1  A    between atoms: C_1  and  O_2
REMARK    2  A    between atoms: O_2  and  C_3
REMARK    3  A    between atoms: C_3  and  C_4
REMARK    4  A    between atoms: C_10  and  C_11
REMARK    5  A    between atoms: C_11  and  C_12
REMARK    6  A    between atoms: C_13  and  C_14
REMARK    7  A    between atoms: C_14  and  C_15
REMARK    8  A    between atoms: C_15  and  C_16
REMARK    9  A    between atoms: C_16  and  C_17
REMARK   10  A    between atoms: C_17  and  O_19
REMARK                            x       y       z     vdW  Elec       q    Type
REMARK                         _______ _______ _______ _____ _____    ______ ____
ROOT
ATOM      1  C   UNL     1       5.964   4.011  16.023  0.00  0.00    +0.000 C 
ATOM      2  C   UNL     1       7.158   4.568  16.818  0.00  0.00    +0.000 C 
ATOM      3  C   UNL     1       7.288   6.086  16.747  0.00  0.00    +0.000 C 
ATOM      4  C   UNL     1       6.054   6.547  17.518  0.00  0.00    +0.000 C 
ATOM      5  C   UNL     1       5.473   5.223  18.015  0.00  0.00    +0.000 C 
ATOM      6  O   UNL     1       6.667   4.423  18.177  0.00  0.00    +0.000 OA
ATOM      7  C   UNL     1       4.757   4.479  16.875  0.00  0.00    +0.000 C 
ENDROOT
BRANCH   1   8
ATOM      8  C   UNL     1       5.916   4.437  14.560  0.00  0.00    +0.000 C 
BRANCH   8  10
ATOM      9  C   UNL     1       6.365   3.651  12.377  0.00  0.00    +0.000 C 
ATOM     10  O   UNL     1       6.404   3.359  13.765  0.00  0.00    +0.000 OA
ENDBRANCH   8  10
ENDBRANCH   1   8
BRANCH   7  11
ATOM     11  C   UNL     1       3.959   3.268  17.388  0.00  0.00    +0.000 C 
BRANCH  11  12
ATOM     12  C   UNL     1       2.478   3.389  17.144  0.00  0.00    +0.000 C 
ATOM     13  C   UNL     1       1.617   4.208  17.767  0.00  0.00    +0.000 C 
BRANCH  13  14
ATOM     14  C   UNL     1       1.943   5.151  18.888  0.00  0.00    +0.000 C 
BRANCH  14  15
ATOM     15  C   UNL     1       1.185   4.831  20.179  0.00  0.00    +0.000 C 
BRANCH  15  16
ATOM     16  C   UNL     1       1.099   3.332  20.463  0.00  0.00    +0.000 C 
BRANCH  16  17
ATOM     17  C   UNL     1       2.375   2.807  21.079  0.00  0.00    +0.000 C 
ATOM     18  O   UNL     1       3.272   2.243  20.477  0.00  0.00    +0.000 OA
BRANCH  17  19
ATOM     19  O   UNL     1       2.425   3.027  22.414  0.00  0.00    +0.000 OA
ATOM     20  H   UNL     1       2.497   2.213  22.947  0.00  0.00    +0.000 HD
ENDBRANCH  17  19
ENDBRANCH  16  17
ENDBRANCH  15  16
ENDBRANCH  14  15
ENDBRANCH  13  14
ENDBRANCH  11  12
ENDBRANCH   7  11
TORSDOF 9
ENDMDL
