MODEL 1
REMARK VINA RESULT:      -8.3      0.000      0.000
REMARK  Name = 
REMARK  8 active torsions:
REMARK  status: ('A' for Active; 'I' for Inactive)
REMARK    1  A    between atoms: C_2  and  C_3
REMARK    2  A    between atoms: C_2  and  C_25
REMARK    3  A    between atoms: C_3  and  O_4
REMARK    4  A    between atoms: O_4  and  C_5
REMARK    5  A    between atoms: C_5  and  C_7
REMARK    6  A    between atoms: C_10  and  N_11
REMARK    7  A    between atoms: C_12  and  C_14
REMARK    8  A    between atoms: C_17  and  N_18
REMARK                            x       y       z     vdW  Elec       q    Type
REMARK                         _______ _______ _______ _____ _____    ______ ____
ROOT
ATOM      1  C   UNL     1       3.195   7.267  18.134  0.00  0.00    +0.000 A 
ATOM      2  C   UNL     1       2.636   8.368  17.482  0.00  0.00    +0.000 A 
ATOM      3  C   UNL     1       1.649   9.128  18.105  0.00  0.00    +0.000 A 
ATOM      4  C   UNL     1       1.197   8.808  19.386  0.00  0.00    +0.000 A 
ATOM      5  C   UNL     1       1.787   7.730  20.058  0.00  0.00    +0.000 A 
ATOM      6  C   UNL     1       2.778   6.955  19.432  0.00  0.00    +0.000 A 
ENDROOT
BRANCH   4   7
ATOM      7  N   UNL     1       0.187   9.555  20.038  0.00  0.00    +0.000 N 
ATOM      8  C   UNL     1       0.316  10.876  20.446  0.00  0.00    +0.000 C 
ATOM      9  O   UNL     1       1.272  11.609  20.207  0.00  0.00    +0.000 OA
ATOM     10  H   UNL     1      -0.691   9.077  20.185  0.00  0.00    +0.000 HD
BRANCH   8  11
ATOM     11  C   UNL     1      -0.794  11.465  21.245  0.00  0.00    +0.000 A 
ATOM     12  C   UNL     1      -0.929  11.019  22.574  0.00  0.00    +0.000 A 
ATOM     13  C   UNL     1      -1.950  11.501  23.394  0.00  0.00    +0.000 A 
ATOM     14  C   UNL     1      -2.843  12.448  22.883  0.00  0.00    +0.000 A 
ATOM     15  C   UNL     1      -2.700  12.928  21.571  0.00  0.00    +0.000 A 
ATOM     16  C   UNL     1      -1.672  12.438  20.754  0.00  0.00    +0.000 A 
BRANCH  14  17
ATOM     17  N   UNL     1      -3.939  12.938  23.729  0.00  0.00    +0.000 N 
ATOM     18  O   UNL     1      -3.680  13.820  24.559  0.00  0.00    +0.000 OA
ATOM     19  O   UNL     1      -5.060  12.433  23.564  0.00  0.00    +0.000 OA
ENDBRANCH  14  17
ENDBRANCH   8  11
ENDBRANCH   4   7
BRANCH   1  20
ATOM     20  C   UNL     1       4.290   6.500  17.492  0.00  0.00    +0.000 C 
ATOM     21  O   UNL     1       4.765   6.766  16.400  0.00  0.00    +0.000 OA
BRANCH  20  22
ATOM     22  O   UNL     1       4.630   5.451  18.281  0.00  0.00    +0.000 OA
BRANCH  22  23
ATOM     23  C   UNL     1       4.683   4.189  17.611  0.00  0.00    +0.000 C 
BRANCH  23  25
ATOM     24  O   UNL     1       2.658   3.356  16.566  0.00  0.00    +0.000 OA
ATOM     25  C   UNL     1       3.281   3.580  17.602  0.00  0.00    +0.000 C 
BRANCH  25  26
ATOM     26  C   UNL     1       2.613   3.309  18.904  0.00  0.00    +0.000 A 
ATOM     27  C   UNL     1       1.253   3.568  19.111  0.00  0.00    +0.000 A 
ATOM     28  C   UNL     1       0.682   3.306  20.360  0.00  0.00    +0.000 A 
ATOM     29  C   UNL     1       1.464   2.786  21.385  0.00  0.00    +0.000 A 
ATOM     30  F   UNL     1       0.907   2.538  22.578  0.00  0.00    +0.000 F 
ATOM     31  C   UNL     1       2.816   2.526  21.192  0.00  0.00    +0.000 A 
ATOM     32  C   UNL     1       3.393   2.793  19.952  0.00  0.00    +0.000 A 
ENDBRANCH  25  26
ENDBRANCH  23  25
ENDBRANCH  22  23
ENDBRANCH  20  22
ENDBRANCH   1  20
TORSDOF 8
ENDMDL
MODEL 2
REMARK VINA RESULT:      -8.0      0.817      1.555
REMARK  Name = 
REMARK  8 active torsions:
REMARK  status: ('A' for Active; 'I' for Inactive)
REMARK    1  A    between atoms: C_2  and  C_3
REMARK    2  A    between atoms: C_2  and  C_25
REMARK    3  A    between atoms: C_3  and  O_4
REMARK    4  A    between atoms: O_4  and  C_5
REMARK    5  A    between atoms: C_5  and  C_7
REMARK    6  A    between atoms: C_10  and  N_11
REMARK    7  A    between atoms: C_12  and  C_14
REMARK    8  A    between atoms: C_17  and  N_18
REMARK                            x       y       z     vdW  Elec       q    Type
REMARK                         _______ _______ _______ _____ _____    ______ ____
ROOT
ATOM      1  C   UNL     1       3.365   6.945  18.522  0.00  0.00    +0.000 A 
ATOM      2  C   UNL     1       2.696   6.667  19.716  0.00  0.00    +0.000 A 
ATOM      3  C   UNL     1       1.701   7.524  20.181  0.00  0.00    +0.000 A 
ATOM      4  C   UNL     1       1.353   8.674  19.471  0.00  0.00    +0.000 A 
ATOM      5  C   UNL     1       1.994   8.932  18.252  0.00  0.00    +0.000 A 
ATOM      6  C   UNL     1       3.003   8.075  17.781  0.00  0.00    +0.000 A 
ENDROOT
BRANCH   4   7
ATOM      7  N   UNL     1       0.357   9.569  19.927  0.00  0.00    +0.000 N 
ATOM      8  C   UNL     1       0.432  10.307  21.101  0.00  0.00    +0.000 C 
ATOM      9  O   UNL     1       1.406  10.370  21.847  0.00  0.00    +0.000 OA
ATOM     10  H   UNL     1      -0.448   9.680  19.326  0.00  0.00    +0.000 HD
BRANCH   8  11
ATOM     11  C   UNL     1      -0.768  11.093  21.503  0.00  0.00    +0.000 A 
ATOM     12  C   UNL     1      -1.130  11.051  22.863  0.00  0.00    +0.000 A 
ATOM     13  C   UNL     1      -2.251  11.740  23.330  0.00  0.00    +0.000 A 
ATOM     14  C   UNL     1      -3.013  12.489  22.429  0.00  0.00    +0.000 A 
ATOM     15  C   UNL     1      -2.644  12.568  21.076  0.00  0.00    +0.000 A 
ATOM     16  C   UNL     1      -1.518  11.872  20.615  0.00  0.00    +0.000 A 
BRANCH  14  17
ATOM     17  N   UNL     1      -4.211  13.193  22.906  0.00  0.00    +0.000 N 
ATOM     18  O   UNL     1      -5.046  12.544  23.548  0.00  0.00    +0.000 OA
ATOM     19  O   UNL     1      -4.315  14.398  22.630  0.00  0.00    +0.000 OA
ENDBRANCH  14  17
ENDBRANCH   8  11
ENDBRANCH   4   7
BRANCH   1  20
ATOM     20  C   UNL     1       4.377   5.997  17.999  0.00  0.00    +0.000 C 
ATOM     21  O   UNL     1       5.540   5.959  18.371  0.00  0.00    +0.000 OA
BRANCH  20  22
ATOM     22  O   UNL     1       3.821   5.232  17.027  0.00  0.00    +0.000 OA
BRANCH  22  23
ATOM     23  C   UNL     1       4.211   3.857  17.048  0.00  0.00    +0.000 C 
BRANCH  23  25
ATOM     24  O   UNL     1       2.332   2.406  16.543  0.00  0.00    +0.000 OA
ATOM     25  C   UNL     1       2.989   3.008  17.393  0.00  0.00    +0.000 C 
BRANCH  25  26
ATOM     26  C   UNL     1       2.530   2.959  18.808  0.00  0.00    +0.000 A 
ATOM     27  C   UNL     1       3.381   2.589  19.855  0.00  0.00    +0.000 A 
ATOM     28  C   UNL     1       2.892   2.548  21.163  0.00  0.00    +0.000 A 
ATOM     29  C   UNL     1       1.565   2.879  21.417  0.00  0.00    +0.000 A 
ATOM     30  F   UNL     1       1.104   2.837  22.675  0.00  0.00    +0.000 F 
ATOM     31  C   UNL     1       0.709   3.247  20.386  0.00  0.00    +0.000 A 
ATOM     32  C   UNL     1       1.190   3.281  19.078  0.00  0.00    +0.000 A 
ENDBRANCH  25  26
ENDBRANCH  23  25
ENDBRANCH  22  23
ENDBRANCH  20  22
ENDBRANCH   1  20
TORSDOF 8
ENDMDL
MODEL 3
REMARK VINA RESULT:      -7.8      2.712      4.100
REMARK  Name = 
REMARK  8 active torsions:
REMARK  status: ('A' for Active; 'I' for Inactive)
REMARK    1  A    between atoms: C_2  and  C_3
REMARK    2  A    between atoms: C_2  and  C_25
REMARK    3  A    between atoms: C_3  and  O_4
REMARK    4  A    between atoms: O_4  and  C_5
REMARK    5  A    between atoms: C_5  and  C_7
REMARK    6  A    between atoms: C_10  and  N_11
REMARK    7  A    between atoms: C_12  and  C_14
REMARK    8  A    between atoms: C_17  and  N_18
REMARK                            x       y       z     vdW  Elec       q    Type
REMARK                         _______ _______ _______ _____ _____    ______ ____
ROOT
ATOM      1  C   UNL     1       2.732   5.570  19.297  0.00  0.00    +0.000 A 
ATOM      2  C   UNL     1       2.912   6.712  18.514  0.00  0.00    +0.000 A 
ATOM      3  C   UNL     1       2.303   7.913  18.873  0.00  0.00    +0.000 A 
ATOM      4  C   UNL     1       1.505   8.002  20.014  0.00  0.00    +0.000 A 
ATOM      5  C   UNL     1       1.358   6.867  20.822  0.00  0.00    +0.000 A 
ATOM      6  C   UNL     1       1.963   5.651  20.463  0.00  0.00    +0.000 A 
ENDROOT
BRANCH   4   7
ATOM      7  N   UNL     1       0.864   9.205  20.394  0.00  0.00    +0.000 N 
ATOM      8  C   UNL     1       0.921   9.766  21.663  0.00  0.00    +0.000 C 
ATOM      9  O   UNL     1       1.614   9.363  22.595  0.00  0.00    +0.000 OA
ATOM     10  H   UNL     1       0.352   9.684  19.667  0.00  0.00    +0.000 HD
BRANCH   8  11
ATOM     11  C   UNL     1       0.072  10.960  21.932  0.00  0.00    +0.000 A 
ATOM     12  C   UNL     1       0.313  12.103  21.147  0.00  0.00    +0.000 A 
ATOM     13  C   UNL     1      -0.420  13.275  21.339  0.00  0.00    +0.000 A 
ATOM     14  C   UNL     1      -1.414  13.301  22.322  0.00  0.00    +0.000 A 
ATOM     15  C   UNL     1      -1.690  12.158  23.089  0.00  0.00    +0.000 A 
ATOM     16  C   UNL     1      -0.948  10.986  22.890  0.00  0.00    +0.000 A 
BRANCH  14  17
ATOM     17  N   UNL     1      -2.170  14.540  22.551  0.00  0.00    +0.000 N 
ATOM     18  O   UNL     1      -2.212  15.371  21.635  0.00  0.00    +0.000 OA
ATOM     19  O   UNL     1      -2.718  14.680  23.656  0.00  0.00    +0.000 OA
ENDBRANCH  14  17
ENDBRANCH   8  11
ENDBRANCH   4   7
BRANCH   1  20
ATOM     20  C   UNL     1       3.432   4.311  18.946  0.00  0.00    +0.000 C 
ATOM     21  O   UNL     1       4.047   3.621  19.744  0.00  0.00    +0.000 OA
BRANCH  20  22
ATOM     22  O   UNL     1       3.321   4.088  17.613  0.00  0.00    +0.000 OA
BRANCH  22  23
ATOM     23  C   UNL     1       4.390   3.333  17.039  0.00  0.00    +0.000 C 
BRANCH  23  25
ATOM     24  O   UNL     1       5.302   4.277  14.998  0.00  0.00    +0.000 OA
ATOM     25  C   UNL     1       5.276   4.277  16.228  0.00  0.00    +0.000 C 
BRANCH  25  26
ATOM     26  C   UNL     1       6.199   5.191  16.955  0.00  0.00    +0.000 A 
ATOM     27  C   UNL     1       7.078   4.730  17.942  0.00  0.00    +0.000 A 
ATOM     28  C   UNL     1       7.913   5.637  18.602  0.00  0.00    +0.000 A 
ATOM     29  C   UNL     1       7.868   6.987  18.272  0.00  0.00    +0.000 A 
ATOM     30  F   UNL     1       8.672   7.848  18.910  0.00  0.00    +0.000 F 
ATOM     31  C   UNL     1       6.998   7.457  17.295  0.00  0.00    +0.000 A 
ATOM     32  C   UNL     1       6.158   6.559  16.640  0.00  0.00    +0.000 A 
ENDBRANCH  25  26
ENDBRANCH  23  25
ENDBRANCH  22  23
ENDBRANCH  20  22
ENDBRANCH   1  20
TORSDOF 8
ENDMDL
MODEL 4
REMARK VINA RESULT:      -7.7      1.076      1.255
REMARK  Name = 
REMARK  8 active torsions:
REMARK  status: ('A' for Active; 'I' for Inactive)
REMARK    1  A    between atoms: C_2  and  C_3
REMARK    2  A    between atoms: C_2  and  C_25
REMARK    3  A    between atoms: C_3  and  O_4
REMARK    4  A    between atoms: O_4  and  C_5
REMARK    5  A    between atoms: C_5  and  C_7
REMARK    6  A    between atoms: C_10  and  N_11
REMARK    7  A    between atoms: C_12  and  C_14
REMARK    8  A    between atoms: C_17  and  N_18
REMARK                            x       y       z     vdW  Elec       q    Type
REMARK                         _______ _______ _______ _____ _____    ______ ____
ROOT
ATOM      1  C   UNL     1       2.634   7.632  18.441  0.00  0.00    +0.000 A 
ATOM      2  C   UNL     1       2.170   8.799  17.831  0.00  0.00    +0.000 A 
ATOM      3  C   UNL     1       1.320   9.662  18.519  0.00  0.00    +0.000 A 
ATOM      4  C   UNL     1       0.914   9.382  19.824  0.00  0.00    +0.000 A 
ATOM      5  C   UNL     1       1.412   8.233  20.452  0.00  0.00    +0.000 A 
ATOM      6  C   UNL     1       2.264   7.355  19.761  0.00  0.00    +0.000 A 
ENDROOT
BRANCH   4   7
ATOM      7  N   UNL     1       0.041  10.234  20.541  0.00  0.00    +0.000 N 
ATOM      8  C   UNL     1       0.430  11.389  21.206  0.00  0.00    +0.000 C 
ATOM      9  O   UNL     1       1.552  11.889  21.177  0.00  0.00    +0.000 OA
ATOM     10  H   UNL     1      -0.936   9.974  20.536  0.00  0.00    +0.000 HD
BRANCH   8  11
ATOM     11  C   UNL     1      -0.593  12.091  22.031  0.00  0.00    +0.000 A 
ATOM     12  C   UNL     1      -0.372  13.457  22.291  0.00  0.00    +0.000 A 
ATOM     13  C   UNL     1      -1.266  14.194  23.070  0.00  0.00    +0.000 A 
ATOM     14  C   UNL     1      -2.398  13.560  23.589  0.00  0.00    +0.000 A 
ATOM     15  C   UNL     1      -2.649  12.207  23.310  0.00  0.00    +0.000 A 
ATOM     16  C   UNL     1      -1.746  11.474  22.527  0.00  0.00    +0.000 A 
BRANCH  14  17
ATOM     17  N   UNL     1      -3.329  14.320  24.435  0.00  0.00    +0.000 N 
ATOM     18  O   UNL     1      -2.847  15.081  25.284  0.00  0.00    +0.000 OA
ATOM     19  O   UNL     1      -4.543  14.146  24.251  0.00  0.00    +0.000 OA
ENDBRANCH  14  17
ENDBRANCH   8  11
ENDBRANCH   4   7
BRANCH   1  20
ATOM     20  C   UNL     1       3.589   6.750  17.728  0.00  0.00    +0.000 C 
ATOM     21  O   UNL     1       4.418   7.144  16.923  0.00  0.00    +0.000 OA
BRANCH  20  22
ATOM     22  O   UNL     1       3.357   5.459  18.074  0.00  0.00    +0.000 OA
BRANCH  22  23
ATOM     23  C   UNL     1       3.928   4.489  17.192  0.00  0.00    +0.000 C 
BRANCH  23  25
ATOM     24  O   UNL     1       4.050   2.066  17.211  0.00  0.00    +0.000 OA
ATOM     25  C   UNL     1       3.666   3.096  17.763  0.00  0.00    +0.000 C 
BRANCH  25  26
ATOM     26  C   UNL     1       2.852   2.974  19.002  0.00  0.00    +0.000 A 
ATOM     27  C   UNL     1       1.461   3.132  18.999  0.00  0.00    +0.000 A 
ATOM     28  C   UNL     1       0.749   3.020  20.197  0.00  0.00    +0.000 A 
ATOM     29  C   UNL     1       1.425   2.749  21.382  0.00  0.00    +0.000 A 
ATOM     30  F   UNL     1       0.734   2.643  22.525  0.00  0.00    +0.000 F 
ATOM     31  C   UNL     1       2.806   2.591  21.399  0.00  0.00    +0.000 A 
ATOM     32  C   UNL     1       3.522   2.710  20.209  0.00  0.00    +0.000 A 
ENDBRANCH  25  26
ENDBRANCH  23  25
ENDBRANCH  22  23
ENDBRANCH  20  22
ENDBRANCH   1  20
TORSDOF 8
ENDMDL
MODEL 5
REMARK VINA RESULT:      -7.6      0.951      1.535
REMARK  Name = 
REMARK  8 active torsions:
REMARK  status: ('A' for Active; 'I' for Inactive)
REMARK    1  A    between atoms: C_2  and  C_3
REMARK    2  A    between atoms: C_2  and  C_25
REMARK    3  A    between atoms: C_3  and  O_4
REMARK    4  A    between atoms: O_4  and  C_5
REMARK    5  A    between atoms: C_5  and  C_7
REMARK    6  A    between atoms: C_10  and  N_11
REMARK    7  A    between atoms: C_12  and  C_14
REMARK    8  A    between atoms: C_17  and  N_18
REMARK                            x       y       z     vdW  Elec       q    Type
REMARK                         _______ _______ _______ _____ _____    ______ ____
ROOT
ATOM      1  C   UNL     1       3.216   7.128  18.264  0.00  0.00    +0.000 A 
ATOM      2  C   UNL     1       2.850   8.281  17.566  0.00  0.00    +0.000 A 
ATOM      3  C   UNL     1       1.906   9.156  18.100  0.00  0.00    +0.000 A 
ATOM      4  C   UNL     1       1.308   8.902  19.335  0.00  0.00    +0.000 A 
ATOM      5  C   UNL     1       1.705   7.768  20.054  0.00  0.00    +0.000 A 
ATOM      6  C   UNL     1       2.651   6.878  19.519  0.00  0.00    +0.000 A 
ENDROOT
BRANCH   4   7
ATOM      7  N   UNL     1       0.336   9.766  19.895  0.00  0.00    +0.000 N 
ATOM      8  C   UNL     1       0.401  10.308  21.171  0.00  0.00    +0.000 C 
ATOM      9  O   UNL     1       1.348  10.206  21.947  0.00  0.00    +0.000 OA
ATOM     10  H   UNL     1      -0.439  10.009  19.295  0.00  0.00    +0.000 HD
BRANCH   8  11
ATOM     11  C   UNL     1      -0.777  11.083  21.655  0.00  0.00    +0.000 A 
ATOM     12  C   UNL     1      -1.492  11.821  20.693  0.00  0.00    +0.000 A 
ATOM     13  C   UNL     1      -2.597  12.592  21.055  0.00  0.00    +0.000 A 
ATOM     14  C   UNL     1      -3.000  12.617  22.393  0.00  0.00    +0.000 A 
ATOM     15  C   UNL     1      -2.317  11.859  23.358  0.00  0.00    +0.000 A 
ATOM     16  C   UNL     1      -1.207  11.088  22.986  0.00  0.00    +0.000 A 
BRANCH  14  17
ATOM     17  N   UNL     1      -4.144  13.450  22.789  0.00  0.00    +0.000 N 
ATOM     18  O   UNL     1      -4.485  14.364  22.026  0.00  0.00    +0.000 OA
ATOM     19  O   UNL     1      -4.697  13.189  23.868  0.00  0.00    +0.000 OA
ENDBRANCH  14  17
ENDBRANCH   8  11
ENDBRANCH   4   7
BRANCH   1  20
ATOM     20  C   UNL     1       4.267   6.234  17.721  0.00  0.00    +0.000 C 
ATOM     21  O   UNL     1       5.439   6.551  17.592  0.00  0.00    +0.000 OA
BRANCH  20  22
ATOM     22  O   UNL     1       3.711   5.053  17.354  0.00  0.00    +0.000 OA
BRANCH  22  23
ATOM     23  C   UNL     1       4.609   3.941  17.353  0.00  0.00    +0.000 C 
BRANCH  23  25
ATOM     24  O   UNL     1       3.791   1.673  17.076  0.00  0.00    +0.000 OA
ATOM     25  C   UNL     1       3.838   2.689  17.769  0.00  0.00    +0.000 C 
BRANCH  25  26
ATOM     26  C   UNL     1       3.052   2.722  19.032  0.00  0.00    +0.000 A 
ATOM     27  C   UNL     1       3.658   2.612  20.289  0.00  0.00    +0.000 A 
ATOM     28  C   UNL     1       2.868   2.635  21.442  0.00  0.00    +0.000 A 
ATOM     29  C   UNL     1       1.488   2.772  21.334  0.00  0.00    +0.000 A 
ATOM     30  F   UNL     1       0.739   2.794  22.445  0.00  0.00    +0.000 F 
ATOM     31  C   UNL     1       0.875   2.881  20.092  0.00  0.00    +0.000 A 
ATOM     32  C   UNL     1       1.657   2.850  18.938  0.00  0.00    +0.000 A 
ENDBRANCH  25  26
ENDBRANCH  23  25
ENDBRANCH  22  23
ENDBRANCH  20  22
ENDBRANCH   1  20
TORSDOF 8
ENDMDL
MODEL 6
REMARK VINA RESULT:      -7.6      3.618      5.079
REMARK  Name = 
REMARK  8 active torsions:
REMARK  status: ('A' for Active; 'I' for Inactive)
REMARK    1  A    between atoms: C_2  and  C_3
REMARK    2  A    between atoms: C_2  and  C_25
REMARK    3  A    between atoms: C_3  and  O_4
REMARK    4  A    between atoms: O_4  and  C_5
REMARK    5  A    between atoms: C_5  and  C_7
REMARK    6  A    between atoms: C_10  and  N_11
REMARK    7  A    between atoms: C_12  and  C_14
REMARK    8  A    between atoms: C_17  and  N_18
REMARK                            x       y       z     vdW  Elec       q    Type
REMARK                         _______ _______ _______ _____ _____    ______ ____
ROOT
ATOM      1  C   UNL     1       2.238   5.619  19.380  0.00  0.00    +0.000 A 
ATOM      2  C   UNL     1       1.806   6.287  20.528  0.00  0.00    +0.000 A 
ATOM      3  C   UNL     1       1.607   7.666  20.505  0.00  0.00    +0.000 A 
ATOM      4  C   UNL     1       1.834   8.406  19.344  0.00  0.00    +0.000 A 
ATOM      5  C   UNL     1       2.226   7.730  18.181  0.00  0.00    +0.000 A 
ATOM      6  C   UNL     1       2.436   6.341  18.199  0.00  0.00    +0.000 A 
ENDROOT
BRANCH   4   7
ATOM      7  N   UNL     1       1.653   9.809  19.296  0.00  0.00    +0.000 N 
ATOM      8  C   UNL     1       0.437  10.457  19.470  0.00  0.00    +0.000 C 
ATOM      9  O   UNL     1      -0.621   9.922  19.793  0.00  0.00    +0.000 OA
ATOM     10  H   UNL     1       2.487  10.359  19.146  0.00  0.00    +0.000 HD
BRANCH   8  11
ATOM     11  C   UNL     1       0.399  11.929  19.245  0.00  0.00    +0.000 A 
ATOM     12  C   UNL     1       1.602  12.544  18.852  0.00  0.00    +0.000 A 
ATOM     13  C   UNL     1       1.668  13.922  18.636  0.00  0.00    +0.000 A 
ATOM     14  C   UNL     1       0.514  14.693  18.807  0.00  0.00    +0.000 A 
ATOM     15  C   UNL     1      -0.701  14.088  19.166  0.00  0.00    +0.000 A 
ATOM     16  C   UNL     1      -0.758  12.704  19.381  0.00  0.00    +0.000 A 
BRANCH  14  17
ATOM     17  N   UNL     1       0.581  16.148  18.612  0.00  0.00    +0.000 N 
ATOM     18  O   UNL     1       1.660  16.712  18.835  0.00  0.00    +0.000 OA
ATOM     19  O   UNL     1      -0.452  16.724  18.240  0.00  0.00    +0.000 OA
ENDBRANCH  14  17
ENDBRANCH   8  11
ENDBRANCH   4   7
BRANCH   1  20
ATOM     20  C   UNL     1       2.387   4.144  19.393  0.00  0.00    +0.000 C 
ATOM     21  O   UNL     1       1.608   3.370  18.858  0.00  0.00    +0.000 OA
BRANCH  20  22
ATOM     22  O   UNL     1       3.479   3.805  20.122  0.00  0.00    +0.000 OA
BRANCH  22  23
ATOM     23  C   UNL     1       4.533   3.192  19.375  0.00  0.00    +0.000 C 
BRANCH  23  25
ATOM     24  O   UNL     1       6.015   5.081  19.725  0.00  0.00    +0.000 OA
ATOM     25  C   UNL     1       5.518   4.276  18.939  0.00  0.00    +0.000 C 
BRANCH  25  26
ATOM     26  C   UNL     1       5.840   4.407  17.492  0.00  0.00    +0.000 A 
ATOM     27  C   UNL     1       4.887   4.175  16.494  0.00  0.00    +0.000 A 
ATOM     28  C   UNL     1       5.249   4.300  15.149  0.00  0.00    +0.000 A 
ATOM     29  C   UNL     1       6.550   4.659  14.813  0.00  0.00    +0.000 A 
ATOM     30  F   UNL     1       6.888   4.778  13.522  0.00  0.00    +0.000 F 
ATOM     31  C   UNL     1       7.506   4.891  15.795  0.00  0.00    +0.000 A 
ATOM     32  C   UNL     1       7.152   4.760  17.137  0.00  0.00    +0.000 A 
ENDBRANCH  25  26
ENDBRANCH  23  25
ENDBRANCH  22  23
ENDBRANCH  20  22
ENDBRANCH   1  20
TORSDOF 8
ENDMDL
MODEL 7
REMARK VINA RESULT:      -7.6      3.647      5.073
REMARK  Name = 
REMARK  8 active torsions:
REMARK  status: ('A' for Active; 'I' for Inactive)
REMARK    1  A    between atoms: C_2  and  C_3
REMARK    2  A    between atoms: C_2  and  C_25
REMARK    3  A    between atoms: C_3  and  O_4
REMARK    4  A    between atoms: O_4  and  C_5
REMARK    5  A    between atoms: C_5  and  C_7
REMARK    6  A    between atoms: C_10  and  N_11
REMARK    7  A    between atoms: C_12  and  C_14
REMARK    8  A    between atoms: C_17  and  N_18
REMARK                            x       y       z     vdW  Elec       q    Type
REMARK                         _______ _______ _______ _____ _____    ______ ____
ROOT
ATOM      1  C   UNL     1       2.153   5.418  19.331  0.00  0.00    +0.000 A 
ATOM      2  C   UNL     1       2.357   6.103  18.132  0.00  0.00    +0.000 A 
ATOM      3  C   UNL     1       2.257   7.492  18.089  0.00  0.00    +0.000 A 
ATOM      4  C   UNL     1       1.952   8.226  19.236  0.00  0.00    +0.000 A 
ATOM      5  C   UNL     1       1.789   7.543  20.448  0.00  0.00    +0.000 A 
ATOM      6  C   UNL     1       1.881   6.142  20.497  0.00  0.00    +0.000 A 
ENDROOT
BRANCH   4   7
ATOM      7  N   UNL     1       1.831   9.635  19.220  0.00  0.00    +0.000 N 
ATOM      8  C   UNL     1       0.633  10.329  19.322  0.00  0.00    +0.000 C 
ATOM      9  O   UNL     1      -0.468   9.830  19.547  0.00  0.00    +0.000 OA
ATOM     10  H   UNL     1       2.696  10.154  19.150  0.00  0.00    +0.000 HD
BRANCH   8  11
ATOM     11  C   UNL     1       0.670  11.808  19.142  0.00  0.00    +0.000 A 
ATOM     12  C   UNL     1      -0.507  12.516  19.450  0.00  0.00    +0.000 A 
ATOM     13  C   UNL     1      -0.573  13.902  19.295  0.00  0.00    +0.000 A 
ATOM     14  C   UNL     1       0.555  14.589  18.837  0.00  0.00    +0.000 A 
ATOM     15  C   UNL     1       1.747  13.900  18.559  0.00  0.00    +0.000 A 
ATOM     16  C   UNL     1       1.804  12.508  18.717  0.00  0.00    +0.000 A 
BRANCH  14  17
ATOM     17  N   UNL     1       0.485  16.044  18.643  0.00  0.00    +0.000 N 
ATOM     18  O   UNL     1      -0.601  16.530  18.302  0.00  0.00    +0.000 OA
ATOM     19  O   UNL     1       1.524  16.697  18.826  0.00  0.00    +0.000 OA
ENDBRANCH  14  17
ENDBRANCH   8  11
ENDBRANCH   4   7
BRANCH   1  20
ATOM     20  C   UNL     1       2.323   3.946  19.384  0.00  0.00    +0.000 C 
ATOM     21  O   UNL     1       1.540   3.146  18.896  0.00  0.00    +0.000 OA
BRANCH  20  22
ATOM     22  O   UNL     1       3.440   3.645  20.091  0.00  0.00    +0.000 OA
BRANCH  22  23
ATOM     23  C   UNL     1       4.535   3.164  19.309  0.00  0.00    +0.000 C 
BRANCH  23  25
ATOM     24  O   UNL     1       5.692   5.274  19.622  0.00  0.00    +0.000 OA
ATOM     25  C   UNL     1       5.379   4.358  18.863  0.00  0.00    +0.000 C 
BRANCH  25  26
ATOM     26  C   UNL     1       5.782   4.453  17.434  0.00  0.00    +0.000 A 
ATOM     27  C   UNL     1       4.908   4.127  16.390  0.00  0.00    +0.000 A 
ATOM     28  C   UNL     1       5.346   4.222  15.066  0.00  0.00    +0.000 A 
ATOM     29  C   UNL     1       6.643   4.644  14.793  0.00  0.00    +0.000 A 
ATOM     30  F   UNL     1       7.053   4.733  13.521  0.00  0.00    +0.000 F 
ATOM     31  C   UNL     1       7.520   4.970  15.821  0.00  0.00    +0.000 A 
ATOM     32  C   UNL     1       7.091   4.869  17.143  0.00  0.00    +0.000 A 
ENDBRANCH  25  26
ENDBRANCH  23  25
ENDBRANCH  22  23
ENDBRANCH  20  22
ENDBRANCH   1  20
TORSDOF 8
ENDMDL
MODEL 8
REMARK VINA RESULT:      -7.6      6.057      8.761
REMARK  Name = 
REMARK  8 active torsions:
REMARK  status: ('A' for Active; 'I' for Inactive)
REMARK    1  A    between atoms: C_2  and  C_3
REMARK    2  A    between atoms: C_2  and  C_25
REMARK    3  A    between atoms: C_3  and  O_4
REMARK    4  A    between atoms: O_4  and  C_5
REMARK    5  A    between atoms: C_5  and  C_7
REMARK    6  A    between atoms: C_10  and  N_11
REMARK    7  A    between atoms: C_12  and  C_14
REMARK    8  A    between atoms: C_17  and  N_18
REMARK                            x       y       z     vdW  Elec       q    Type
REMARK                         _______ _______ _______ _____ _____    ______ ____
ROOT
ATOM      1  C   UNL     1       6.593   5.743  18.158  0.00  0.00    +0.000 A 
ATOM      2  C   UNL     1       7.741   5.996  18.912  0.00  0.00    +0.000 A 
ATOM      3  C   UNL     1       8.413   7.210  18.784  0.00  0.00    +0.000 A 
ATOM      4  C   UNL     1       7.958   8.193  17.904  0.00  0.00    +0.000 A 
ATOM      5  C   UNL     1       6.783   7.957  17.179  0.00  0.00    +0.000 A 
ATOM      6  C   UNL     1       6.105   6.732  17.299  0.00  0.00    +0.000 A 
ENDROOT
BRANCH   4   7
ATOM      7  N   UNL     1       8.627   9.430  17.744  0.00  0.00    +0.000 N 
ATOM      8  C   UNL     1       9.081  10.226  18.787  0.00  0.00    +0.000 C 
ATOM      9  O   UNL     1       9.062   9.926  19.978  0.00  0.00    +0.000 OA
ATOM     10  H   UNL     1       8.797   9.722  16.792  0.00  0.00    +0.000 HD
BRANCH   8  11
ATOM     11  C   UNL     1       9.637  11.565  18.445  0.00  0.00    +0.000 A 
ATOM     12  C   UNL     1       9.023  12.682  19.044  0.00  0.00    +0.000 A 
ATOM     13  C   UNL     1       9.464  13.977  18.768  0.00  0.00    +0.000 A 
ATOM     14  C   UNL     1      10.538  14.159  17.893  0.00  0.00    +0.000 A 
ATOM     15  C   UNL     1      11.182  13.053  17.315  0.00  0.00    +0.000 A 
ATOM     16  C   UNL     1      10.733  11.756  17.595  0.00  0.00    +0.000 A 
BRANCH  14  17
ATOM     17  N   UNL     1      10.989  15.521  17.574  0.00  0.00    +0.000 N 
ATOM     18  O   UNL     1      10.879  15.907  16.403  0.00  0.00    +0.000 OA
ATOM     19  O   UNL     1      11.459  16.199  18.500  0.00  0.00    +0.000 OA
ENDBRANCH  14  17
ENDBRANCH   8  11
ENDBRANCH   4   7
BRANCH   1  20
ATOM     20  C   UNL     1       5.847   4.475  18.345  0.00  0.00    +0.000 C 
ATOM     21  O   UNL     1       5.659   3.942  19.428  0.00  0.00    +0.000 OA
BRANCH  20  22
ATOM     22  O   UNL     1       5.461   3.995  17.138  0.00  0.00    +0.000 OA
BRANCH  22  23
ATOM     23  C   UNL     1       4.307   4.629  16.579  0.00  0.00    +0.000 C 
BRANCH  23  25
ATOM     24  O   UNL     1       2.434   3.184  17.119  0.00  0.00    +0.000 OA
ATOM     25  C   UNL     1       3.078   4.199  17.380  0.00  0.00    +0.000 C 
BRANCH  25  26
ATOM     26  C   UNL     1       2.598   5.080  18.478  0.00  0.00    +0.000 A 
ATOM     27  C   UNL     1       2.041   4.567  19.655  0.00  0.00    +0.000 A 
ATOM     28  C   UNL     1       1.594   5.444  20.649  0.00  0.00    +0.000 A 
ATOM     29  C   UNL     1       1.710   6.817  20.464  0.00  0.00    +0.000 A 
ATOM     30  F   UNL     1       1.279   7.649  21.422  0.00  0.00    +0.000 F 
ATOM     31  C   UNL     1       2.260   7.339  19.300  0.00  0.00    +0.000 A 
ATOM     32  C   UNL     1       2.700   6.470  18.302  0.00  0.00    +0.000 A 
ENDBRANCH  25  26
ENDBRANCH  23  25
ENDBRANCH  22  23
ENDBRANCH  20  22
ENDBRANCH   1  20
TORSDOF 8
ENDMDL
MODEL 9
REMARK VINA RESULT:      -7.5      3.725      5.090
REMARK  Name = 
REMARK  8 active torsions:
REMARK  status: ('A' for Active; 'I' for Inactive)
REMARK    1  A    between atoms: C_2  and  C_3
REMARK    2  A    between atoms: C_2  and  C_25
REMARK    3  A    between atoms: C_3  and  O_4
REMARK    4  A    between atoms: O_4  and  C_5
REMARK    5  A    between atoms: C_5  and  C_7
REMARK    6  A    between atoms: C_10  and  N_11
REMARK    7  A    between atoms: C_12  and  C_14
REMARK    8  A    between atoms: C_17  and  N_18
REMARK                            x       y       z     vdW  Elec       q    Type
REMARK                         _______ _______ _______ _____ _____    ______ ____
ROOT
ATOM      1  C   UNL     1       2.249   5.845  19.285  0.00  0.00    +0.000 A 
ATOM      2  C   UNL     1       1.786   6.441  20.460  0.00  0.00    +0.000 A 
ATOM      3  C   UNL     1       1.563   7.815  20.511  0.00  0.00    +0.000 A 
ATOM      4  C   UNL     1       1.798   8.623  19.398  0.00  0.00    +0.000 A 
ATOM      5  C   UNL     1       2.222   8.021  18.207  0.00  0.00    +0.000 A 
ATOM      6  C   UNL     1       2.456   6.636  18.150  0.00  0.00    +0.000 A 
ENDROOT
BRANCH   4   7
ATOM      7  N   UNL     1       1.593  10.023  19.425  0.00  0.00    +0.000 N 
ATOM      8  C   UNL     1       0.566  10.687  18.767  0.00  0.00    +0.000 C 
ATOM      9  O   UNL     1      -0.362  10.153  18.165  0.00  0.00    +0.000 OA
ATOM     10  H   UNL     1       2.241  10.555  19.990  0.00  0.00    +0.000 HD
BRANCH   8  11
ATOM     11  C   UNL     1       0.581  12.176  18.784  0.00  0.00    +0.000 A 
ATOM     12  C   UNL     1       1.820  12.803  18.551  0.00  0.00    +0.000 A 
ATOM     13  C   UNL     1       1.935  14.194  18.566  0.00  0.00    +0.000 A 
ATOM     14  C   UNL     1       0.797  14.968  18.807  0.00  0.00    +0.000 A 
ATOM     15  C   UNL     1      -0.452  14.359  19.008  0.00  0.00    +0.000 A 
ATOM     16  C   UNL     1      -0.559  12.961  18.992  0.00  0.00    +0.000 A 
BRANCH  14  17
ATOM     17  N   UNL     1       0.915  16.432  18.855  0.00  0.00    +0.000 N 
ATOM     18  O   UNL     1       2.042  16.926  18.720  0.00  0.00    +0.000 OA
ATOM     19  O   UNL     1      -0.124  17.085  19.034  0.00  0.00    +0.000 OA
ENDBRANCH  14  17
ENDBRANCH   8  11
ENDBRANCH   4   7
BRANCH   1  20
ATOM     20  C   UNL     1       2.424   4.374  19.217  0.00  0.00    +0.000 C 
ATOM     21  O   UNL     1       1.555   3.595  18.858  0.00  0.00    +0.000 OA
BRANCH  20  22
ATOM     22  O   UNL     1       3.663   4.045  19.658  0.00  0.00    +0.000 OA
BRANCH  22  23
ATOM     23  C   UNL     1       4.421   3.227  18.764  0.00  0.00    +0.000 C 
BRANCH  23  25
ATOM     24  O   UNL     1       4.516   3.934  16.444  0.00  0.00    +0.000 OA
ATOM     25  C   UNL     1       4.904   4.093  17.601  0.00  0.00    +0.000 C 
BRANCH  25  26
ATOM     26  C   UNL     1       5.940   5.128  17.864  0.00  0.00    +0.000 A 
ATOM     27  C   UNL     1       6.899   4.983  18.873  0.00  0.00    +0.000 A 
ATOM     28  C   UNL     1       7.840   5.995  19.085  0.00  0.00    +0.000 A 
ATOM     29  C   UNL     1       7.820   7.136  18.289  0.00  0.00    +0.000 A 
ATOM     30  F   UNL     1       8.727   8.101  18.499  0.00  0.00    +0.000 F 
ATOM     31  C   UNL     1       6.873   7.293  17.285  0.00  0.00    +0.000 A 
ATOM     32  C   UNL     1       5.927   6.290  17.075  0.00  0.00    +0.000 A 
ENDBRANCH  25  26
ENDBRANCH  23  25
ENDBRANCH  22  23
ENDBRANCH  20  22
ENDBRANCH   1  20
TORSDOF 8
ENDMDL
