MODEL 1
REMARK VINA RESULT:      -7.4      0.000      0.000
REMARK  Name = 
REMARK  6 active torsions:
REMARK  status: ('A' for Active; 'I' for Inactive)
REMARK    1  A    between atoms: C_1  and  C_2
REMARK    2  A    between atoms: C_4  and  C_5
REMARK    3  A    between atoms: C_7  and  C_8
REMARK    4  A    between atoms: C_8  and  N_9
REMARK    5  A    between atoms: C_13  and  C_15
REMARK    6  A    between atoms: C_16  and  C_17
REMARK                            x       y       z     vdW  Elec       q    Type
REMARK                         _______ _______ _______ _____ _____    ______ ____
ROOT
ATOM      1  N   UNL     1      -1.106  11.131  21.224  0.00  0.00    +0.000 NA
ATOM      2  C   UNL     1      -1.067  11.455  19.789  0.00  0.00    +0.000 C 
ATOM      3  C   UNL     1       0.238  11.124  19.046  0.00  0.00    +0.000 C 
ATOM      4  N   UNL     1       0.750   9.773  19.284  0.00  0.00    +0.000 N 
ATOM      5  C   UNL     1       1.767   9.365  18.418  0.00  0.00    +0.000 C 
ATOM      6  O   UNL     1       2.155  10.051  17.478  0.00  0.00    +0.000 OA
ATOM      7  C   UNL     1       0.614   9.262  20.651  0.00  0.00    +0.000 C 
ATOM      8  C   UNL     1      -0.647   9.743  21.417  0.00  0.00    +0.000 C 
ENDROOT
BRANCH   5   9
ATOM      9  C   UNL     1       2.371   8.016  18.645  0.00  0.00    +0.000 C 
ATOM     10  C   UNL     1       2.208   7.063  17.711  0.00  0.00    +0.000 C 
BRANCH  10  11
ATOM     11  C   UNL     1       2.630   5.677  17.920  0.00  0.00    +0.000 A 
ATOM     12  C   UNL     1       1.674   4.655  17.883  0.00  0.00    +0.000 A 
ATOM     13  C   UNL     1       2.053   3.322  18.062  0.00  0.00    +0.000 A 
ATOM     14  C   UNL     1       3.395   3.011  18.273  0.00  0.00    +0.000 A 
ATOM     15 BR   UNL     1       3.914   1.207  18.497  0.00  0.00    +0.000 Br
ATOM     16  C   UNL     1       4.358   4.020  18.310  0.00  0.00    +0.000 A 
ATOM     17  C   UNL     1       3.975   5.353  18.133  0.00  0.00    +0.000 A 
ENDBRANCH  10  11
ENDBRANCH   5   9
BRANCH   1  18
ATOM     18  C   UNL     1      -0.428  12.105  22.094  0.00  0.00    +0.000 C 
BRANCH  18  25
ATOM     19  C   UNL     1      -4.732  12.412  24.674  0.00  0.00    +0.000 C 
ATOM     20  C   UNL     1      -3.468  13.088  24.214  0.00  0.00    +0.000 A 
ATOM     21  C   UNL     1      -3.093  14.343  24.705  0.00  0.00    +0.000 A 
ATOM     22  C   UNL     1      -1.881  14.927  24.319  0.00  0.00    +0.000 A 
ATOM     23  C   UNL     1      -1.513  16.296  24.816  0.00  0.00    +0.000 C 
ATOM     24  C   UNL     1      -1.011  14.213  23.472  0.00  0.00    +0.000 A 
ATOM     25  C   UNL     1      -1.343  12.929  23.001  0.00  0.00    +0.000 A 
ATOM     26  C   UNL     1      -2.605  12.415  23.333  0.00  0.00    +0.000 A 
ENDBRANCH  18  25
ENDBRANCH   1  18
TORSDOF 4
ENDMDL
MODEL 2
REMARK VINA RESULT:      -7.2      0.295      1.716
REMARK  Name = 
REMARK  6 active torsions:
REMARK  status: ('A' for Active; 'I' for Inactive)
REMARK    1  A    between atoms: C_1  and  C_2
REMARK    2  A    between atoms: C_4  and  C_5
REMARK    3  A    between atoms: C_7  and  C_8
REMARK    4  A    between atoms: C_8  and  N_9
REMARK    5  A    between atoms: C_13  and  C_15
REMARK    6  A    between atoms: C_16  and  C_17
REMARK                            x       y       z     vdW  Elec       q    Type
REMARK                         _______ _______ _______ _____ _____    ______ ____
ROOT
ATOM      1  N   UNL     1      -1.152  11.159  21.048  0.00  0.00    +0.000 NA
ATOM      2  C   UNL     1      -1.051  11.505  19.621  0.00  0.00    +0.000 C 
ATOM      3  C   UNL     1       0.286  11.187  18.931  0.00  0.00    +0.000 C 
ATOM      4  N   UNL     1       0.791   9.834  19.172  0.00  0.00    +0.000 N 
ATOM      5  C   UNL     1       1.847   9.440  18.345  0.00  0.00    +0.000 C 
ATOM      6  O   UNL     1       2.273  10.141  17.433  0.00  0.00    +0.000 OA
ATOM      7  C   UNL     1       0.596   9.302  20.524  0.00  0.00    +0.000 C 
ATOM      8  C   UNL     1      -0.699   9.769  21.241  0.00  0.00    +0.000 C 
ENDROOT
BRANCH   5   9
ATOM      9  C   UNL     1       2.443   8.090  18.579  0.00  0.00    +0.000 C 
ATOM     10  C   UNL     1       2.253   7.126  17.662  0.00  0.00    +0.000 C 
BRANCH  10  11
ATOM     11  C   UNL     1       2.667   5.739  17.882  0.00  0.00    +0.000 A 
ATOM     12  C   UNL     1       1.789   4.851  18.514  0.00  0.00    +0.000 A 
ATOM     13  C   UNL     1       2.153   3.518  18.720  0.00  0.00    +0.000 A 
ATOM     14  C   UNL     1       3.399   3.071  18.286  0.00  0.00    +0.000 A 
ATOM     15 BR   UNL     1       3.888   1.264  18.546  0.00  0.00    +0.000 Br
ATOM     16  C   UNL     1       4.283   3.945  17.653  0.00  0.00    +0.000 A 
ATOM     17  C   UNL     1       3.917   5.279  17.450  0.00  0.00    +0.000 A 
ENDBRANCH  10  11
ENDBRANCH   5   9
BRANCH   1  18
ATOM     18  C   UNL     1      -0.516  12.121  21.961  0.00  0.00    +0.000 C 
BRANCH  18  25
ATOM     19  C   UNL     1      -1.498  16.178  24.764  0.00  0.00    +0.000 C 
ATOM     20  C   UNL     1      -1.901  14.792  24.338  0.00  0.00    +0.000 A 
ATOM     21  C   UNL     1      -3.136  14.248  24.707  0.00  0.00    +0.000 A 
ATOM     22  C   UNL     1      -3.525  12.984  24.247  0.00  0.00    +0.000 A 
ATOM     23  C   UNL     1      -4.832  12.391  24.690  0.00  0.00    +0.000 C 
ATOM     24  C   UNL     1      -2.684  12.285  23.359  0.00  0.00    +0.000 A 
ATOM     25  C   UNL     1      -1.458  12.830  22.936  0.00  0.00    +0.000 A 
ATOM     26  C   UNL     1      -1.059  14.056  23.489  0.00  0.00    +0.000 A 
ENDBRANCH  18  25
ENDBRANCH   1  18
TORSDOF 4
ENDMDL
MODEL 3
REMARK VINA RESULT:      -7.2      5.713      8.737
REMARK  Name = 
REMARK  6 active torsions:
REMARK  status: ('A' for Active; 'I' for Inactive)
REMARK    1  A    between atoms: C_1  and  C_2
REMARK    2  A    between atoms: C_4  and  C_5
REMARK    3  A    between atoms: C_7  and  C_8
REMARK    4  A    between atoms: C_8  and  N_9
REMARK    5  A    between atoms: C_13  and  C_15
REMARK    6  A    between atoms: C_16  and  C_17
REMARK                            x       y       z     vdW  Elec       q    Type
REMARK                         _______ _______ _______ _____ _____    ______ ____
ROOT
ATOM      1  N   UNL     1       3.769   4.250  18.799  0.00  0.00    +0.000 NA
ATOM      2  C   UNL     1       4.645   3.689  17.757  0.00  0.00    +0.000 C 
ATOM      3  C   UNL     1       5.499   4.694  16.966  0.00  0.00    +0.000 C 
ATOM      4  N   UNL     1       6.230   5.658  17.792  0.00  0.00    +0.000 N 
ATOM      5  C   UNL     1       7.210   6.391  17.118  0.00  0.00    +0.000 C 
ATOM      6  O   UNL     1       7.496   6.193  15.942  0.00  0.00    +0.000 OA
ATOM      7  C   UNL     1       5.520   6.168  18.969  0.00  0.00    +0.000 C 
ATOM      8  C   UNL     1       4.555   5.162  19.650  0.00  0.00    +0.000 C 
ENDROOT
BRANCH   5   9
ATOM      9  C   UNL     1       7.953   7.431  17.894  0.00  0.00    +0.000 C 
ATOM     10  C   UNL     1       7.716   8.728  17.637  0.00  0.00    +0.000 C 
BRANCH  10  11
ATOM     11  C   UNL     1       8.506   9.805  18.236  0.00  0.00    +0.000 A 
ATOM     12  C   UNL     1       8.557  11.054  17.604  0.00  0.00    +0.000 A 
ATOM     13  C   UNL     1       9.289  12.104  18.165  0.00  0.00    +0.000 A 
ATOM     14  C   UNL     1       9.968  11.904  19.364  0.00  0.00    +0.000 A 
ATOM     15 BR   UNL     1      10.945  13.328  20.135  0.00  0.00    +0.000 Br
ATOM     16  C   UNL     1       9.925  10.665  20.005  0.00  0.00    +0.000 A 
ATOM     17  C   UNL     1       9.193   9.616  19.441  0.00  0.00    +0.000 A 
ENDBRANCH  10  11
ENDBRANCH   5   9
BRANCH   1  18
ATOM     18  C   UNL     1       2.516   4.837  18.299  0.00  0.00    +0.000 C 
BRANCH  18  25
ATOM     19  C   UNL     1       2.102   9.781  17.487  0.00  0.00    +0.000 C 
ATOM     20  C   UNL     1       2.018   8.636  18.460  0.00  0.00    +0.000 A 
ATOM     21  C   UNL     1       1.517   8.814  19.753  0.00  0.00    +0.000 A 
ATOM     22  C   UNL     1       1.382   7.726  20.623  0.00  0.00    +0.000 A 
ATOM     23  C   UNL     1       0.887   7.938  22.025  0.00  0.00    +0.000 C 
ATOM     24  C   UNL     1       1.705   6.433  20.164  0.00  0.00    +0.000 A 
ATOM     25  C   UNL     1       2.168   6.220  18.853  0.00  0.00    +0.000 A 
ATOM     26  C   UNL     1       2.378   7.344  18.041  0.00  0.00    +0.000 A 
ENDBRANCH  18  25
ENDBRANCH   1  18
TORSDOF 4
ENDMDL
MODEL 4
REMARK VINA RESULT:      -7.2      4.282     10.383
REMARK  Name = 
REMARK  6 active torsions:
REMARK  status: ('A' for Active; 'I' for Inactive)
REMARK    1  A    between atoms: C_1  and  C_2
REMARK    2  A    between atoms: C_4  and  C_5
REMARK    3  A    between atoms: C_7  and  C_8
REMARK    4  A    between atoms: C_8  and  N_9
REMARK    5  A    between atoms: C_13  and  C_15
REMARK    6  A    between atoms: C_16  and  C_17
REMARK                            x       y       z     vdW  Elec       q    Type
REMARK                         _______ _______ _______ _____ _____    ______ ____
ROOT
ATOM      1  N   UNL     1       2.673   4.656  18.720  0.00  0.00    +0.000 NA
ATOM      2  C   UNL     1       1.741   4.611  19.858  0.00  0.00    +0.000 C 
ATOM      3  C   UNL     1       1.707   5.852  20.765  0.00  0.00    +0.000 C 
ATOM      4  N   UNL     1       1.592   7.127  20.053  0.00  0.00    +0.000 N 
ATOM      5  C   UNL     1       1.287   8.228  20.857  0.00  0.00    +0.000 C 
ATOM      6  O   UNL     1       1.056   8.131  22.057  0.00  0.00    +0.000 OA
ATOM      7  C   UNL     1       2.347   7.237  18.801  0.00  0.00    +0.000 C 
ATOM      8  C   UNL     1       2.482   5.922  17.989  0.00  0.00    +0.000 C 
ENDROOT
BRANCH   5   9
ATOM      9  C   UNL     1       1.212   9.567  20.197  0.00  0.00    +0.000 C 
ATOM     10  C   UNL     1       0.873  10.639  20.933  0.00  0.00    +0.000 C 
BRANCH  10  11
ATOM     11  C   UNL     1       0.625  11.955  20.340  0.00  0.00    +0.000 A 
ATOM     12  C   UNL     1      -0.168  12.880  21.029  0.00  0.00    +0.000 A 
ATOM     13  C   UNL     1      -0.405  14.149  20.493  0.00  0.00    +0.000 A 
ATOM     14  C   UNL     1       0.158  14.493  19.267  0.00  0.00    +0.000 A 
ATOM     15 BR   UNL     1      -0.146  16.215  18.547  0.00  0.00    +0.000 Br
ATOM     16  C   UNL     1       0.952  13.581  18.571  0.00  0.00    +0.000 A 
ATOM     17  C   UNL     1       1.186  12.311  19.108  0.00  0.00    +0.000 A 
ENDBRANCH  10  11
ENDBRANCH   5   9
BRANCH   1  18
ATOM     18  C   UNL     1       4.076   4.376  19.062  0.00  0.00    +0.000 C 
BRANCH  18  25
ATOM     19  C   UNL     1       6.177   3.905  14.519  0.00  0.00    +0.000 C 
ATOM     20  C   UNL     1       6.166   4.598  15.854  0.00  0.00    +0.000 A 
ATOM     21  C   UNL     1       6.966   5.719  16.099  0.00  0.00    +0.000 A 
ATOM     22  C   UNL     1       6.893   6.394  17.324  0.00  0.00    +0.000 A 
ATOM     23  C   UNL     1       7.792   7.567  17.592  0.00  0.00    +0.000 C 
ATOM     24  C   UNL     1       5.963   5.967  18.292  0.00  0.00    +0.000 A 
ATOM     25  C   UNL     1       5.114   4.870  18.052  0.00  0.00    +0.000 A 
ATOM     26  C   UNL     1       5.279   4.162  16.853  0.00  0.00    +0.000 A 
ENDBRANCH  18  25
ENDBRANCH   1  18
TORSDOF 4
ENDMDL
MODEL 5
REMARK VINA RESULT:      -7.1      2.236      2.776
REMARK  Name = 
REMARK  6 active torsions:
REMARK  status: ('A' for Active; 'I' for Inactive)
REMARK    1  A    between atoms: C_1  and  C_2
REMARK    2  A    between atoms: C_4  and  C_5
REMARK    3  A    between atoms: C_7  and  C_8
REMARK    4  A    between atoms: C_8  and  N_9
REMARK    5  A    between atoms: C_13  and  C_15
REMARK    6  A    between atoms: C_16  and  C_17
REMARK                            x       y       z     vdW  Elec       q    Type
REMARK                         _______ _______ _______ _____ _____    ______ ____
ROOT
ATOM      1  N   UNL     1      -0.547  12.387  20.374  0.00  0.00    +0.000 NA
ATOM      2  C   UNL     1       0.010  11.751  21.578  0.00  0.00    +0.000 C 
ATOM      3  C   UNL     1       0.250  10.234  21.504  0.00  0.00    +0.000 C 
ATOM      4  N   UNL     1       0.965   9.787  20.306  0.00  0.00    +0.000 N 
ATOM      5  C   UNL     1       1.428   8.469  20.351  0.00  0.00    +0.000 C 
ATOM      6  O   UNL     1       1.316   7.759  21.345  0.00  0.00    +0.000 OA
ATOM      7  C   UNL     1       0.619  10.469  19.055  0.00  0.00    +0.000 C 
ATOM      8  C   UNL     1       0.239  11.966  19.199  0.00  0.00    +0.000 C 
ENDROOT
BRANCH   5   9
ATOM      9  C   UNL     1       2.117   7.936  19.136  0.00  0.00    +0.000 C 
ATOM     10  C   UNL     1       2.592   6.679  19.156  0.00  0.00    +0.000 C 
BRANCH  10  11
ATOM     11  C   UNL     1       3.411   6.131  18.073  0.00  0.00    +0.000 A 
ATOM     12  C   UNL     1       4.192   6.996  17.296  0.00  0.00    +0.000 A 
ATOM     13  C   UNL     1       4.996   6.497  16.269  0.00  0.00    +0.000 A 
ATOM     14  C   UNL     1       5.023   5.126  16.021  0.00  0.00    +0.000 A 
ATOM     15 BR   UNL     1       6.123   4.445  14.644  0.00  0.00    +0.000 Br
ATOM     16  C   UNL     1       4.251   4.253  16.789  0.00  0.00    +0.000 A 
ATOM     17  C   UNL     1       3.445   4.756  17.815  0.00  0.00    +0.000 A 
ENDBRANCH  10  11
ENDBRANCH   5   9
BRANCH   1  18
ATOM     18  C   UNL     1      -1.999  12.221  20.205  0.00  0.00    +0.000 C 
BRANCH  18  25
ATOM     19  C   UNL     1      -4.345  12.440  24.646  0.00  0.00    +0.000 C 
ATOM     20  C   UNL     1      -4.055  13.094  23.322  0.00  0.00    +0.000 A 
ATOM     21  C   UNL     1      -4.448  14.410  23.059  0.00  0.00    +0.000 A 
ATOM     22  C   UNL     1      -4.111  15.027  21.848  0.00  0.00    +0.000 A 
ATOM     23  C   UNL     1      -4.580  16.424  21.558  0.00  0.00    +0.000 C 
ATOM     24  C   UNL     1      -3.320  14.327  20.915  0.00  0.00    +0.000 A 
ATOM     25  C   UNL     1      -2.872  13.019  21.176  0.00  0.00    +0.000 A 
ATOM     26  C   UNL     1      -3.307  12.400  22.357  0.00  0.00    +0.000 A 
ENDBRANCH  18  25
ENDBRANCH   1  18
TORSDOF 4
ENDMDL
MODEL 6
REMARK VINA RESULT:      -7.1      3.201      4.901
REMARK  Name = 
REMARK  6 active torsions:
REMARK  status: ('A' for Active; 'I' for Inactive)
REMARK    1  A    between atoms: C_1  and  C_2
REMARK    2  A    between atoms: C_4  and  C_5
REMARK    3  A    between atoms: C_7  and  C_8
REMARK    4  A    between atoms: C_8  and  N_9
REMARK    5  A    between atoms: C_13  and  C_15
REMARK    6  A    between atoms: C_16  and  C_17
REMARK                            x       y       z     vdW  Elec       q    Type
REMARK                         _______ _______ _______ _____ _____    ______ ____
ROOT
ATOM      1  N   UNL     1      -0.302  12.454  18.999  0.00  0.00    +0.000 NA
ATOM      2  C   UNL     1       0.554  12.695  20.172  0.00  0.00    +0.000 C 
ATOM      3  C   UNL     1       0.535  11.616  21.268  0.00  0.00    +0.000 C 
ATOM      4  N   UNL     1       0.704  10.246  20.778  0.00  0.00    +0.000 N 
ATOM      5  C   UNL     1       0.962   9.293  21.766  0.00  0.00    +0.000 C 
ATOM      6  O   UNL     1       1.114   9.584  22.948  0.00  0.00    +0.000 OA
ATOM      7  C   UNL     1       0.033   9.925  19.515  0.00  0.00    +0.000 C 
ATOM      8  C   UNL     1      -0.055  11.091  18.495  0.00  0.00    +0.000 C 
ENDROOT
BRANCH   5   9
ATOM      9  C   UNL     1       1.088   7.867  21.336  0.00  0.00    +0.000 C 
ATOM     10  C   UNL     1       2.068   7.528  20.481  0.00  0.00    +0.000 C 
BRANCH  10  11
ATOM     11  C   UNL     1       2.169   6.192  19.890  0.00  0.00    +0.000 A 
ATOM     12  C   UNL     1       2.468   6.064  18.528  0.00  0.00    +0.000 A 
ATOM     13  C   UNL     1       2.588   4.800  17.944  0.00  0.00    +0.000 A 
ATOM     14  C   UNL     1       2.413   3.662  18.727  0.00  0.00    +0.000 A 
ATOM     15 BR   UNL     1       2.592   1.951  17.943  0.00  0.00    +0.000 Br
ATOM     16  C   UNL     1       2.116   3.775  20.085  0.00  0.00    +0.000 A 
ATOM     17  C   UNL     1       1.994   5.041  20.667  0.00  0.00    +0.000 A 
ENDBRANCH  10  11
ENDBRANCH   5   9
BRANCH   1  18
ATOM     18  C   UNL     1      -1.725  12.763  19.202  0.00  0.00    +0.000 C 
BRANCH  18  25
ATOM     19  C   UNL     1      -6.391  11.063  18.414  0.00  0.00    +0.000 C 
ATOM     20  C   UNL     1      -4.966  11.148  17.937  0.00  0.00    +0.000 A 
ATOM     21  C   UNL     1      -4.594  10.693  16.668  0.00  0.00    +0.000 A 
ATOM     22  C   UNL     1      -3.278  10.842  16.214  0.00  0.00    +0.000 A 
ATOM     23  C   UNL     1      -2.881  10.305  14.869  0.00  0.00    +0.000 C 
ATOM     24  C   UNL     1      -2.340  11.508  17.026  0.00  0.00    +0.000 A 
ATOM     25  C   UNL     1      -2.700  12.017  18.288  0.00  0.00    +0.000 A 
ATOM     26  C   UNL     1      -4.001  11.768  18.749  0.00  0.00    +0.000 A 
ENDBRANCH  18  25
ENDBRANCH   1  18
TORSDOF 4
ENDMDL
MODEL 7
REMARK VINA RESULT:      -7.1      2.259      2.691
REMARK  Name = 
REMARK  6 active torsions:
REMARK  status: ('A' for Active; 'I' for Inactive)
REMARK    1  A    between atoms: C_1  and  C_2
REMARK    2  A    between atoms: C_4  and  C_5
REMARK    3  A    between atoms: C_7  and  C_8
REMARK    4  A    between atoms: C_8  and  N_9
REMARK    5  A    between atoms: C_13  and  C_15
REMARK    6  A    between atoms: C_16  and  C_17
REMARK                            x       y       z     vdW  Elec       q    Type
REMARK                         _______ _______ _______ _____ _____    ______ ____
ROOT
ATOM      1  N   UNL     1       0.128  12.036  20.058  0.00  0.00    +0.000 NA
ATOM      2  C   UNL     1       0.623  11.339  21.256  0.00  0.00    +0.000 C 
ATOM      3  C   UNL     1       0.671   9.804  21.185  0.00  0.00    +0.000 C 
ATOM      4  N   UNL     1       1.302   9.267  19.977  0.00  0.00    +0.000 N 
ATOM      5  C   UNL     1       1.597   7.902  20.021  0.00  0.00    +0.000 C 
ATOM      6  O   UNL     1       1.416   7.215  21.020  0.00  0.00    +0.000 OA
ATOM      7  C   UNL     1       1.020   9.983  18.729  0.00  0.00    +0.000 C 
ATOM      8  C   UNL     1       0.833  11.516  18.871  0.00  0.00    +0.000 C 
ENDROOT
BRANCH   5   9
ATOM      9  C   UNL     1       2.191   7.282  18.797  0.00  0.00    +0.000 C 
ATOM     10  C   UNL     1       3.196   6.402  18.934  0.00  0.00    +0.000 C 
BRANCH  10  11
ATOM     11  C   UNL     1       3.936   5.867  17.789  0.00  0.00    +0.000 A 
ATOM     12  C   UNL     1       3.881   4.495  17.516  0.00  0.00    +0.000 A 
ATOM     13  C   UNL     1       4.564   3.963  16.419  0.00  0.00    +0.000 A 
ATOM     14  C   UNL     1       5.299   4.807  15.590  0.00  0.00    +0.000 A 
ATOM     15 BR   UNL     1       6.208   4.093  14.095  0.00  0.00    +0.000 Br
ATOM     16  C   UNL     1       5.360   6.177  15.851  0.00  0.00    +0.000 A 
ATOM     17  C   UNL     1       4.678   6.707  16.950  0.00  0.00    +0.000 A 
ENDBRANCH  10  11
ENDBRANCH   5   9
BRANCH   1  18
ATOM     18  C   UNL     1      -1.336  12.052  19.917  0.00  0.00    +0.000 C 
BRANCH  18  25
ATOM     19  C   UNL     1      -3.959  12.411  24.191  0.00  0.00    +0.000 C 
ATOM     20  C   UNL     1      -3.408  13.097  22.970  0.00  0.00    +0.000 A 
ATOM     21  C   UNL     1      -3.462  14.488  22.829  0.00  0.00    +0.000 A 
ATOM     22  C   UNL     1      -2.884  15.115  21.719  0.00  0.00    +0.000 A 
ATOM     23  C   UNL     1      -2.991  16.605  21.556  0.00  0.00    +0.000 C 
ATOM     24  C   UNL     1      -2.195  14.337  20.768  0.00  0.00    +0.000 A 
ATOM     25  C   UNL     1      -2.086  12.942  20.910  0.00  0.00    +0.000 A 
ATOM     26  C   UNL     1      -2.756  12.337  21.984  0.00  0.00    +0.000 A 
ENDBRANCH  18  25
ENDBRANCH   1  18
TORSDOF 4
ENDMDL
MODEL 8
REMARK VINA RESULT:      -7.1      3.110      5.065
REMARK  Name = 
REMARK  6 active torsions:
REMARK  status: ('A' for Active; 'I' for Inactive)
REMARK    1  A    between atoms: C_1  and  C_2
REMARK    2  A    between atoms: C_4  and  C_5
REMARK    3  A    between atoms: C_7  and  C_8
REMARK    4  A    between atoms: C_8  and  N_9
REMARK    5  A    between atoms: C_13  and  C_15
REMARK    6  A    between atoms: C_16  and  C_17
REMARK                            x       y       z     vdW  Elec       q    Type
REMARK                         _______ _______ _______ _____ _____    ______ ____
ROOT
ATOM      1  N   UNL     1      -1.068  11.954  19.758  0.00  0.00    +0.000 NA
ATOM      2  C   UNL     1      -0.265  11.660  20.955  0.00  0.00    +0.000 C 
ATOM      3  C   UNL     1       0.240  10.216  21.104  0.00  0.00    +0.000 C 
ATOM      4  N   UNL     1       0.879   9.666  19.905  0.00  0.00    +0.000 N 
ATOM      5  C   UNL     1       1.579   8.473  20.103  0.00  0.00    +0.000 C 
ATOM      6  O   UNL     1       1.718   7.959  21.208  0.00  0.00    +0.000 OA
ATOM      7  C   UNL     1       0.267  10.029  18.623  0.00  0.00    +0.000 C 
ATOM      8  C   UNL     1      -0.363  11.446  18.567  0.00  0.00    +0.000 C 
ENDROOT
BRANCH   5   9
ATOM      9  C   UNL     1       2.205   7.831  18.907  0.00  0.00    +0.000 C 
ATOM     10  C   UNL     1       2.829   6.650  19.052  0.00  0.00    +0.000 C 
BRANCH  10  11
ATOM     11  C   UNL     1       3.600   6.030  17.972  0.00  0.00    +0.000 A 
ATOM     12  C   UNL     1       4.442   6.824  17.185  0.00  0.00    +0.000 A 
ATOM     13  C   UNL     1       5.201   6.253  16.160  0.00  0.00    +0.000 A 
ATOM     14  C   UNL     1       5.120   4.882  15.926  0.00  0.00    +0.000 A 
ATOM     15 BR   UNL     1       6.160   4.103  14.552  0.00  0.00    +0.000 Br
ATOM     16  C   UNL     1       4.286   4.079  16.705  0.00  0.00    +0.000 A 
ATOM     17  C   UNL     1       3.526   4.653  17.728  0.00  0.00    +0.000 A 
ENDBRANCH  10  11
ENDBRANCH   5   9
BRANCH   1  18
ATOM     18  C   UNL     1      -2.474  11.529  19.840  0.00  0.00    +0.000 C 
BRANCH  18  25
ATOM     19  C   UNL     1      -6.536  12.817  17.172  0.00  0.00    +0.000 C 
ATOM     20  C   UNL     1      -5.235  12.063  17.233  0.00  0.00    +0.000 A 
ATOM     21  C   UNL     1      -4.687  11.465  16.094  0.00  0.00    +0.000 A 
ATOM     22  C   UNL     1      -3.443  10.825  16.153  0.00  0.00    +0.000 A 
ATOM     23  C   UNL     1      -2.888  10.145  14.935  0.00  0.00    +0.000 C 
ATOM     24  C   UNL     1      -2.718  10.838  17.361  0.00  0.00    +0.000 A 
ATOM     25  C   UNL     1      -3.227  11.472  18.509  0.00  0.00    +0.000 A 
ATOM     26  C   UNL     1      -4.516  12.022  18.438  0.00  0.00    +0.000 A 
ENDBRANCH  18  25
ENDBRANCH   1  18
TORSDOF 4
ENDMDL
MODEL 9
REMARK VINA RESULT:      -7.1      4.448     10.474
REMARK  Name = 
REMARK  6 active torsions:
REMARK  status: ('A' for Active; 'I' for Inactive)
REMARK    1  A    between atoms: C_1  and  C_2
REMARK    2  A    between atoms: C_4  and  C_5
REMARK    3  A    between atoms: C_7  and  C_8
REMARK    4  A    between atoms: C_8  and  N_9
REMARK    5  A    between atoms: C_13  and  C_15
REMARK    6  A    between atoms: C_16  and  C_17
REMARK                            x       y       z     vdW  Elec       q    Type
REMARK                         _______ _______ _______ _____ _____    ______ ____
ROOT
ATOM      1  N   UNL     1       2.662   5.045  18.944  0.00  0.00    +0.000 NA
ATOM      2  C   UNL     1       1.753   5.014  20.101  0.00  0.00    +0.000 C 
ATOM      3  C   UNL     1       1.674   6.297  20.945  0.00  0.00    +0.000 C 
ATOM      4  N   UNL     1       1.483   7.526  20.171  0.00  0.00    +0.000 N 
ATOM      5  C   UNL     1       1.139   8.652  20.923  0.00  0.00    +0.000 C 
ATOM      6  O   UNL     1       0.933   8.606  22.131  0.00  0.00    +0.000 OA
ATOM      7  C   UNL     1       2.210   7.608  18.900  0.00  0.00    +0.000 C 
ATOM      8  C   UNL     1       2.395   6.261  18.153  0.00  0.00    +0.000 C 
ENDROOT
BRANCH   5   9
ATOM      9  C   UNL     1       0.985   9.950  20.197  0.00  0.00    +0.000 C 
ATOM     10  C   UNL     1       1.011  11.096  20.898  0.00  0.00    +0.000 C 
BRANCH  10  11
ATOM     11  C   UNL     1       0.715  12.396  20.292  0.00  0.00    +0.000 A 
ATOM     12  C   UNL     1      -0.588  12.905  20.360  0.00  0.00    +0.000 A 
ATOM     13  C   UNL     1      -0.892  14.150  19.805  0.00  0.00    +0.000 A 
ATOM     14  C   UNL     1       0.111  14.891  19.186  0.00  0.00    +0.000 A 
ATOM     15 BR   UNL     1      -0.293  16.584  18.450  0.00  0.00    +0.000 Br
ATOM     16  C   UNL     1       1.414  14.395  19.112  0.00  0.00    +0.000 A 
ATOM     17  C   UNL     1       1.716  13.148  19.667  0.00  0.00    +0.000 A 
ENDBRANCH  10  11
ENDBRANCH   5   9
BRANCH   1  18
ATOM     18  C   UNL     1       4.083   4.851  19.272  0.00  0.00    +0.000 C 
BRANCH  18  25
ATOM     19  C   UNL     1       7.847   7.698  17.538  0.00  0.00    +0.000 C 
ATOM     20  C   UNL     1       6.870   6.581  17.286  0.00  0.00    +0.000 A 
ATOM     21  C   UNL     1       6.957   5.783  16.141  0.00  0.00    +0.000 A 
ATOM     22  C   UNL     1       6.083   4.706  15.954  0.00  0.00    +0.000 A 
ATOM     23  C   UNL     1       6.155   3.886  14.697  0.00  0.00    +0.000 C 
ATOM     24  C   UNL     1       5.146   4.396  16.960  0.00  0.00    +0.000 A 
ATOM     25  C   UNL     1       5.069   5.155  18.142  0.00  0.00    +0.000 A 
ATOM     26  C   UNL     1       5.897   6.282  18.253  0.00  0.00    +0.000 A 
ENDBRANCH  18  25
ENDBRANCH   1  18
TORSDOF 4
ENDMDL
