MODEL 1
REMARK VINA RESULT:      -6.6      0.000      0.000
REMARK  Name = 
REMARK  5 active torsions:
REMARK  status: ('A' for Active; 'I' for Inactive)
REMARK    1  A    between atoms: C_1  and  N_2
REMARK    2  A    between atoms: N_2  and  C_3
REMARK    3  A    between atoms: N_2  and  C_6
REMARK    4  A    between atoms: C_3  and  C_4
REMARK    5  A    between atoms: C_9  and  C_10
REMARK                            x       y       z     vdW  Elec       q    Type
REMARK                         _______ _______ _______ _____ _____    ______ ____
ROOT
ATOM      1  C   UNL     1       3.672   5.539  17.929  0.00  0.00    +0.000 A 
ATOM      2  C   UNL     1       3.548   6.877  17.528  0.00  0.00    +0.000 A 
ATOM      3  C   UNL     1       2.831   7.820  18.277  0.00  0.00    +0.000 A 
ATOM      4  C   UNL     1       2.211   7.462  19.475  0.00  0.00    +0.000 A 
ATOM      5  C   UNL     1       2.356   6.149  19.918  0.00  0.00    +0.000 A 
ATOM      6  C   UNL     1       3.077   5.213  19.160  0.00  0.00    +0.000 A 
ENDROOT
BRANCH   4   7
ATOM      7  C   UNL     1       1.417   8.412  20.236  0.00  0.00    +0.000 A 
ATOM      8  C   UNL     1       0.826   9.549  19.730  0.00  0.00    +0.000 A 
ATOM      9  N   UNL     1       0.134  10.103  20.772  0.00  0.00    +0.000 N 
ATOM     10  C   UNL     1      -0.659  11.243  20.784  0.00  0.00    +0.000 A 
ATOM     11  C   UNL     1      -1.263  11.611  21.930  0.00  0.00    +0.000 A 
ATOM     12  I   UNL     1      -2.463  13.280  21.998  0.00  0.00    +0.000 I 
ATOM     13  C   UNL     1      -1.049  10.788  23.120  0.00  0.00    +0.000 A 
ATOM     14  C   UNL     1      -0.277   9.683  23.093  0.00  0.00    +0.000 A 
ATOM     15  C   UNL     1       0.351   9.292  21.878  0.00  0.00    +0.000 A 
ATOM     16  N   UNL     1       1.120   8.268  21.576  0.00  0.00    +0.000 NA
ENDBRANCH   4   7
BRANCH   1  18
ATOM     17  C   UNL     1       4.181   3.175  17.413  0.00  0.00    +0.000 C 
ATOM     18  N   UNL     1       4.354   4.602  17.156  0.00  0.00    +0.000 N 
BRANCH  18  19
ATOM     19  C   UNL     1       5.486   4.997  16.303  0.00  0.00    +0.000 C 
BRANCH  19  20
ATOM     20  C   UNL     1       6.804   5.096  17.067  0.00  0.00    +0.000 C 
ATOM     21  F   UNL     1       7.443   6.240  16.693  0.00  0.00    +0.000 F 
ENDBRANCH  19  20
ENDBRANCH  18  19
ENDBRANCH   1  18
TORSDOF 4
ENDMDL
MODEL 2
REMARK VINA RESULT:      -6.6      1.621      2.573
REMARK  Name = 
REMARK  5 active torsions:
REMARK  status: ('A' for Active; 'I' for Inactive)
REMARK    1  A    between atoms: C_1  and  N_2
REMARK    2  A    between atoms: N_2  and  C_3
REMARK    3  A    between atoms: N_2  and  C_6
REMARK    4  A    between atoms: C_3  and  C_4
REMARK    5  A    between atoms: C_9  and  C_10
REMARK                            x       y       z     vdW  Elec       q    Type
REMARK                         _______ _______ _______ _____ _____    ______ ____
ROOT
ATOM      1  C   UNL     1       4.925   5.471  17.469  0.00  0.00    +0.000 A 
ATOM      2  C   UNL     1       4.073   5.158  18.538  0.00  0.00    +0.000 A 
ATOM      3  C   UNL     1       3.101   6.051  19.008  0.00  0.00    +0.000 A 
ATOM      4  C   UNL     1       2.932   7.303  18.416  0.00  0.00    +0.000 A 
ATOM      5  C   UNL     1       3.736   7.622  17.324  0.00  0.00    +0.000 A 
ATOM      6  C   UNL     1       4.707   6.720  16.861  0.00  0.00    +0.000 A 
ENDROOT
BRANCH   4   7
ATOM      7  C   UNL     1       1.968   8.264  18.925  0.00  0.00    +0.000 A 
ATOM      8  C   UNL     1       1.597   8.404  20.245  0.00  0.00    +0.000 A 
ATOM      9  N   UNL     1       0.724   9.456  20.276  0.00  0.00    +0.000 N 
ATOM     10  C   UNL     1       0.083  10.026  21.368  0.00  0.00    +0.000 A 
ATOM     11  C   UNL     1      -0.740  11.075  21.174  0.00  0.00    +0.000 A 
ATOM     12  I   UNL     1      -1.699  11.967  22.760  0.00  0.00    +0.000 I 
ATOM     13  C   UNL     1      -0.926  11.563  19.809  0.00  0.00    +0.000 A 
ATOM     14  C   UNL     1      -0.296  11.001  18.758  0.00  0.00    +0.000 A 
ATOM     15  C   UNL     1       0.580   9.901  18.969  0.00  0.00    +0.000 A 
ATOM     16  N   UNL     1       1.321   9.196  18.140  0.00  0.00    +0.000 NA
ENDBRANCH   4   7
BRANCH   1  18
ATOM     17  C   UNL     1       7.264   4.681  17.583  0.00  0.00    +0.000 C 
ATOM     18  N   UNL     1       5.913   4.591  17.036  0.00  0.00    +0.000 N 
BRANCH  18  19
ATOM     19  C   UNL     1       5.735   3.784  15.819  0.00  0.00    +0.000 C 
BRANCH  19  20
ATOM     20  C   UNL     1       6.545   4.303  14.633  0.00  0.00    +0.000 C 
ATOM     21  F   UNL     1       6.283   3.522  13.548  0.00  0.00    +0.000 F 
ENDBRANCH  19  20
ENDBRANCH  18  19
ENDBRANCH   1  18
TORSDOF 4
ENDMDL
MODEL 3
REMARK VINA RESULT:      -6.6      0.761      1.313
REMARK  Name = 
REMARK  5 active torsions:
REMARK  status: ('A' for Active; 'I' for Inactive)
REMARK    1  A    between atoms: C_1  and  N_2
REMARK    2  A    between atoms: N_2  and  C_3
REMARK    3  A    between atoms: N_2  and  C_6
REMARK    4  A    between atoms: C_3  and  C_4
REMARK    5  A    between atoms: C_9  and  C_10
REMARK                            x       y       z     vdW  Elec       q    Type
REMARK                         _______ _______ _______ _____ _____    ______ ____
ROOT
ATOM      1  C   UNL     1       3.744   5.910  18.103  0.00  0.00    +0.000 A 
ATOM      2  C   UNL     1       3.185   5.580  19.347  0.00  0.00    +0.000 A 
ATOM      3  C   UNL     1       2.363   6.465  20.058  0.00  0.00    +0.000 A 
ATOM      4  C   UNL     1       2.055   7.726  19.544  0.00  0.00    +0.000 A 
ATOM      5  C   UNL     1       2.563   8.062  18.291  0.00  0.00    +0.000 A 
ATOM      6  C   UNL     1       3.385   7.167  17.588  0.00  0.00    +0.000 A 
ENDROOT
BRANCH   4   7
ATOM      7  C   UNL     1       1.251   8.678  20.292  0.00  0.00    +0.000 A 
ATOM      8  C   UNL     1       0.696   9.832  19.782  0.00  0.00    +0.000 A 
ATOM      9  N   UNL     1      -0.021  10.383  20.809  0.00  0.00    +0.000 N 
ATOM     10  C   UNL     1      -0.795  11.536  20.810  0.00  0.00    +0.000 A 
ATOM     11  C   UNL     1      -1.433  11.898  21.940  0.00  0.00    +0.000 A 
ATOM     12  I   UNL     1      -2.606  13.586  21.992  0.00  0.00    +0.000 I 
ATOM     13  C   UNL     1      -1.272  11.056  23.125  0.00  0.00    +0.000 A 
ATOM     14  C   UNL     1      -0.518   9.938  23.107  0.00  0.00    +0.000 A 
ATOM     15  C   UNL     1       0.144   9.554  21.909  0.00  0.00    +0.000 A 
ATOM     16  N   UNL     1       0.907   8.521  21.619  0.00  0.00    +0.000 NA
ENDBRANCH   4   7
BRANCH   1  18
ATOM     17  C   UNL     1       4.239   3.625  17.299  0.00  0.00    +0.000 C 
ATOM     18  N   UNL     1       4.590   5.037  17.425  0.00  0.00    +0.000 N 
BRANCH  18  19
ATOM     19  C   UNL     1       5.977   5.413  17.107  0.00  0.00    +0.000 C 
BRANCH  19  20
ATOM     20  C   UNL     1       6.270   5.402  15.608  0.00  0.00    +0.000 C 
ATOM     21  F   UNL     1       5.288   6.094  14.965  0.00  0.00    +0.000 F 
ENDBRANCH  19  20
ENDBRANCH  18  19
ENDBRANCH   1  18
TORSDOF 4
ENDMDL
MODEL 4
REMARK VINA RESULT:      -6.6      1.853      2.472
REMARK  Name = 
REMARK  5 active torsions:
REMARK  status: ('A' for Active; 'I' for Inactive)
REMARK    1  A    between atoms: C_1  and  N_2
REMARK    2  A    between atoms: N_2  and  C_3
REMARK    3  A    between atoms: N_2  and  C_6
REMARK    4  A    between atoms: C_3  and  C_4
REMARK    5  A    between atoms: C_9  and  C_10
REMARK                            x       y       z     vdW  Elec       q    Type
REMARK                         _______ _______ _______ _____ _____    ______ ____
ROOT
ATOM      1  C   UNL     1       3.434   5.175  18.917  0.00  0.00    +0.000 A 
ATOM      2  C   UNL     1       2.725   5.065  20.122  0.00  0.00    +0.000 A 
ATOM      3  C   UNL     1       1.974   6.125  20.648  0.00  0.00    +0.000 A 
ATOM      4  C   UNL     1       1.892   7.347  19.979  0.00  0.00    +0.000 A 
ATOM      5  C   UNL     1       2.552   7.468  18.758  0.00  0.00    +0.000 A 
ATOM      6  C   UNL     1       3.302   6.400  18.240  0.00  0.00    +0.000 A 
ENDROOT
BRANCH   4   7
ATOM      7  C   UNL     1       1.165   8.475  20.536  0.00  0.00    +0.000 A 
ATOM      8  C   UNL     1       0.772   9.599  19.840  0.00  0.00    +0.000 A 
ATOM      9  N   UNL     1       0.071  10.361  20.733  0.00  0.00    +0.000 N 
ATOM     10  C   UNL     1      -0.566  11.579  20.528  0.00  0.00    +0.000 A 
ATOM     11  C   UNL     1      -1.215  12.162  21.554  0.00  0.00    +0.000 A 
ATOM     12  I   UNL     1      -2.189  13.955  21.300  0.00  0.00    +0.000 I 
ATOM     13  C   UNL     1      -1.213  11.482  22.849  0.00  0.00    +0.000 A 
ATOM     14  C   UNL     1      -0.592  10.299  23.032  0.00  0.00    +0.000 A 
ATOM     15  C   UNL     1       0.083   9.682  21.943  0.00  0.00    +0.000 A 
ATOM     16  N   UNL     1       0.736   8.544  21.846  0.00  0.00    +0.000 NA
ENDBRANCH   4   7
BRANCH   1  18
ATOM     17  C   UNL     1       4.798   4.217  17.091  0.00  0.00    +0.000 C 
ATOM     18  N   UNL     1       4.208   4.128  18.424  0.00  0.00    +0.000 N 
BRANCH  18  19
ATOM     19  C   UNL     1       4.193   2.802  19.062  0.00  0.00    +0.000 C 
BRANCH  19  20
ATOM     20  C   UNL     1       3.220   1.830  18.398  0.00  0.00    +0.000 C 
ATOM     21  F   UNL     1       2.118   1.704  19.189  0.00  0.00    +0.000 F 
ENDBRANCH  19  20
ENDBRANCH  18  19
ENDBRANCH   1  18
TORSDOF 4
ENDMDL
MODEL 5
REMARK VINA RESULT:      -6.5      0.430      1.125
REMARK  Name = 
REMARK  5 active torsions:
REMARK  status: ('A' for Active; 'I' for Inactive)
REMARK    1  A    between atoms: C_1  and  N_2
REMARK    2  A    between atoms: N_2  and  C_3
REMARK    3  A    between atoms: N_2  and  C_6
REMARK    4  A    between atoms: C_3  and  C_4
REMARK    5  A    between atoms: C_9  and  C_10
REMARK                            x       y       z     vdW  Elec       q    Type
REMARK                         _______ _______ _______ _____ _____    ______ ____
ROOT
ATOM      1  C   UNL     1       3.690   5.396  18.121  0.00  0.00    +0.000 A 
ATOM      2  C   UNL     1       3.054   5.094  19.334  0.00  0.00    +0.000 A 
ATOM      3  C   UNL     1       2.282   6.034  20.031  0.00  0.00    +0.000 A 
ATOM      4  C   UNL     1       2.106   7.326  19.533  0.00  0.00    +0.000 A 
ATOM      5  C   UNL     1       2.692   7.639  18.309  0.00  0.00    +0.000 A 
ATOM      6  C   UNL     1       3.462   6.689  17.619  0.00  0.00    +0.000 A 
ENDROOT
BRANCH   4   7
ATOM      7  C   UNL     1       1.357   8.331  20.268  0.00  0.00    +0.000 A 
ATOM      8  C   UNL     1       0.799   9.469  19.728  0.00  0.00    +0.000 A 
ATOM      9  N   UNL     1       0.142  10.085  20.757  0.00  0.00    +0.000 N 
ATOM     10  C   UNL     1      -0.610  11.253  20.737  0.00  0.00    +0.000 A 
ATOM     11  C   UNL     1      -1.185  11.684  21.876  0.00  0.00    +0.000 A 
ATOM     12  I   UNL     1      -2.323  13.397  21.897  0.00  0.00    +0.000 I 
ATOM     13  C   UNL     1      -0.983  10.898  23.093  0.00  0.00    +0.000 A 
ATOM     14  C   UNL     1      -0.251   9.766  23.097  0.00  0.00    +0.000 A 
ATOM     15  C   UNL     1       0.345   9.309  21.889  0.00  0.00    +0.000 A 
ATOM     16  N   UNL     1       1.074   8.247  21.616  0.00  0.00    +0.000 NA
ENDBRANCH   4   7
BRANCH   1  18
ATOM     17  C   UNL     1       4.151   3.045  17.513  0.00  0.00    +0.000 C 
ATOM     18  N   UNL     1       4.486   4.466  17.459  0.00  0.00    +0.000 N 
BRANCH  18  19
ATOM     19  C   UNL     1       5.828   4.820  16.972  0.00  0.00    +0.000 C 
BRANCH  19  20
ATOM     20  C   UNL     1       6.890   4.783  18.069  0.00  0.00    +0.000 C 
ATOM     21  F   UNL     1       7.794   5.777  17.838  0.00  0.00    +0.000 F 
ENDBRANCH  19  20
ENDBRANCH  18  19
ENDBRANCH   1  18
TORSDOF 4
ENDMDL
MODEL 6
REMARK VINA RESULT:      -6.5      1.795      2.180
REMARK  Name = 
REMARK  5 active torsions:
REMARK  status: ('A' for Active; 'I' for Inactive)
REMARK    1  A    between atoms: C_1  and  N_2
REMARK    2  A    between atoms: N_2  and  C_3
REMARK    3  A    between atoms: N_2  and  C_6
REMARK    4  A    between atoms: C_3  and  C_4
REMARK    5  A    between atoms: C_9  and  C_10
REMARK                            x       y       z     vdW  Elec       q    Type
REMARK                         _______ _______ _______ _____ _____    ______ ____
ROOT
ATOM      1  C   UNL     1       3.133   5.308  18.478  0.00  0.00    +0.000 A 
ATOM      2  C   UNL     1       3.095   6.600  17.933  0.00  0.00    +0.000 A 
ATOM      3  C   UNL     1       2.474   7.672  18.589  0.00  0.00    +0.000 A 
ATOM      4  C   UNL     1       1.866   7.495  19.833  0.00  0.00    +0.000 A 
ATOM      5  C   UNL     1       1.927   6.232  20.416  0.00  0.00    +0.000 A 
ATOM      6  C   UNL     1       2.553   5.165  19.750  0.00  0.00    +0.000 A 
ENDROOT
BRANCH   4   7
ATOM      7  C   UNL     1       1.168   8.581  20.502  0.00  0.00    +0.000 A 
ATOM      8  C   UNL     1       0.908   9.821  19.958  0.00  0.00    +0.000 A 
ATOM      9  N   UNL     1       0.184  10.495  20.904  0.00  0.00    +0.000 N 
ATOM     10  C   UNL     1      -0.354  11.774  20.841  0.00  0.00    +0.000 A 
ATOM     11  C   UNL     1      -1.047  12.248  21.894  0.00  0.00    +0.000 A 
ATOM     12  I   UNL     1      -1.880  14.127  21.845  0.00  0.00    +0.000 I 
ATOM     13  C   UNL     1      -1.197  11.387  23.066  0.00  0.00    +0.000 A 
ATOM     14  C   UNL     1      -0.670  10.146  23.112  0.00  0.00    +0.000 A 
ATOM     15  C   UNL     1       0.052   9.647  21.994  0.00  0.00    +0.000 A 
ATOM     16  N   UNL     1       0.638   8.489  21.772  0.00  0.00    +0.000 NA
ENDBRANCH   4   7
BRANCH   1  18
ATOM     17  C   UNL     1       5.002   4.422  17.125  0.00  0.00    +0.000 C 
ATOM     18  N   UNL     1       3.719   4.244  17.799  0.00  0.00    +0.000 N 
BRANCH  18  19
ATOM     19  C   UNL     1       2.948   3.036  17.463  0.00  0.00    +0.000 C 
BRANCH  19  20
ATOM     20  C   UNL     1       3.302   1.838  18.341  0.00  0.00    +0.000 C 
ATOM     21  F   UNL     1       2.301   1.646  19.245  0.00  0.00    +0.000 F 
ENDBRANCH  19  20
ENDBRANCH  18  19
ENDBRANCH   1  18
TORSDOF 4
ENDMDL
MODEL 7
REMARK VINA RESULT:      -6.4      1.798      2.575
REMARK  Name = 
REMARK  5 active torsions:
REMARK  status: ('A' for Active; 'I' for Inactive)
REMARK    1  A    between atoms: C_1  and  N_2
REMARK    2  A    between atoms: N_2  and  C_3
REMARK    3  A    between atoms: N_2  and  C_6
REMARK    4  A    between atoms: C_3  and  C_4
REMARK    5  A    between atoms: C_9  and  C_10
REMARK                            x       y       z     vdW  Elec       q    Type
REMARK                         _______ _______ _______ _____ _____    ______ ____
ROOT
ATOM      1  C   UNL     1       5.107   5.164  16.805  0.00  0.00    +0.000 A 
ATOM      2  C   UNL     1       4.031   4.703  17.578  0.00  0.00    +0.000 A 
ATOM      3  C   UNL     1       3.118   5.574  18.187  0.00  0.00    +0.000 A 
ATOM      4  C   UNL     1       3.238   6.957  18.038  0.00  0.00    +0.000 A 
ATOM      5  C   UNL     1       4.273   7.439  17.239  0.00  0.00    +0.000 A 
ATOM      6  C   UNL     1       5.182   6.557  16.634  0.00  0.00    +0.000 A 
ENDROOT
BRANCH   4   7
ATOM      7  C   UNL     1       2.335   7.878  18.707  0.00  0.00    +0.000 A 
ATOM      8  C   UNL     1       1.662   8.920  18.105  0.00  0.00    +0.000 A 
ATOM      9  N   UNL     1       0.886   9.475  19.085  0.00  0.00    +0.000 N 
ATOM     10  C   UNL     1      -0.006  10.536  18.993  0.00  0.00    +0.000 A 
ATOM     11  C   UNL     1      -0.683  10.922  20.092  0.00  0.00    +0.000 A 
ATOM     12  I   UNL     1      -2.029  12.474  20.008  0.00  0.00    +0.000 I 
ATOM     13  C   UNL     1      -0.439  10.203  21.342  0.00  0.00    +0.000 A 
ATOM     14  C   UNL     1       0.429   9.174  21.415  0.00  0.00    +0.000 A 
ATOM     15  C   UNL     1       1.134   8.763  20.250  0.00  0.00    +0.000 A 
ATOM     16  N   UNL     1       2.003   7.796  20.044  0.00  0.00    +0.000 NA
ENDBRANCH   4   7
BRANCH   1  18
ATOM     17  C   UNL     1       7.438   4.363  16.618  0.00  0.00    +0.000 C 
ATOM     18  N   UNL     1       6.030   4.290  16.238  0.00  0.00    +0.000 N 
BRANCH  18  19
ATOM     19  C   UNL     1       5.701   3.508  15.036  0.00  0.00    +0.000 C 
BRANCH  19  20
ATOM     20  C   UNL     1       6.153   4.181  13.743  0.00  0.00    +0.000 C 
ATOM     21  F   UNL     1       6.175   3.250  12.748  0.00  0.00    +0.000 F 
ENDBRANCH  19  20
ENDBRANCH  18  19
ENDBRANCH   1  18
TORSDOF 4
ENDMDL
MODEL 8
REMARK VINA RESULT:      -6.3      1.759      2.336
REMARK  Name = 
REMARK  5 active torsions:
REMARK  status: ('A' for Active; 'I' for Inactive)
REMARK    1  A    between atoms: C_1  and  N_2
REMARK    2  A    between atoms: N_2  and  C_3
REMARK    3  A    between atoms: N_2  and  C_6
REMARK    4  A    between atoms: C_3  and  C_4
REMARK    5  A    between atoms: C_9  and  C_10
REMARK                            x       y       z     vdW  Elec       q    Type
REMARK                         _______ _______ _______ _____ _____    ______ ____
ROOT
ATOM      1  C   UNL     1       4.928   5.286  16.333  0.00  0.00    +0.000 A 
ATOM      2  C   UNL     1       5.067   6.682  16.347  0.00  0.00    +0.000 A 
ATOM      3  C   UNL     1       4.269   7.507  17.152  0.00  0.00    +0.000 A 
ATOM      4  C   UNL     1       3.297   6.963  17.992  0.00  0.00    +0.000 A 
ATOM      5  C   UNL     1       3.168   5.577  18.030  0.00  0.00    +0.000 A 
ATOM      6  C   UNL     1       3.972   4.760  17.220  0.00  0.00    +0.000 A 
ENDROOT
BRANCH   4   7
ATOM      7  C   UNL     1       2.422   7.805  18.792  0.00  0.00    +0.000 A 
ATOM      8  C   UNL     1       1.816   8.966  18.362  0.00  0.00    +0.000 A 
ATOM      9  N   UNL     1       1.044   9.391  19.409  0.00  0.00    +0.000 N 
ATOM     10  C   UNL     1       0.207  10.496  19.482  0.00  0.00    +0.000 A 
ATOM     11  C   UNL     1      -0.477  10.729  20.619  0.00  0.00    +0.000 A 
ATOM     12  I   UNL     1      -1.744  12.341  20.774  0.00  0.00    +0.000 I 
ATOM     13  C   UNL     1      -0.298   9.800  21.735  0.00  0.00    +0.000 A 
ATOM     14  C   UNL     1       0.517   8.730  21.648  0.00  0.00    +0.000 A 
ATOM     15  C   UNL     1       1.229   8.483  20.442  0.00  0.00    +0.000 A 
ATOM     16  N   UNL     1       2.055   7.520  20.091  0.00  0.00    +0.000 NA
ENDBRANCH   4   7
BRANCH   1  18
ATOM     17  C   UNL     1       7.059   4.115  15.889  0.00  0.00    +0.000 C 
ATOM     18  N   UNL     1       5.699   4.481  15.501  0.00  0.00    +0.000 N 
BRANCH  18  19
ATOM     19  C   UNL     1       5.318   4.246  14.099  0.00  0.00    +0.000 C 
BRANCH  19  20
ATOM     20  C   UNL     1       6.442   3.631  13.268  0.00  0.00    +0.000 C 
ATOM     21  F   UNL     1       7.131   4.633  12.654  0.00  0.00    +0.000 F 
ENDBRANCH  19  20
ENDBRANCH  18  19
ENDBRANCH   1  18
TORSDOF 4
ENDMDL
MODEL 9
REMARK VINA RESULT:      -6.3      1.405      2.108
REMARK  Name = 
REMARK  5 active torsions:
REMARK  status: ('A' for Active; 'I' for Inactive)
REMARK    1  A    between atoms: C_1  and  N_2
REMARK    2  A    between atoms: N_2  and  C_3
REMARK    3  A    between atoms: N_2  and  C_6
REMARK    4  A    between atoms: C_3  and  C_4
REMARK    5  A    between atoms: C_9  and  C_10
REMARK                            x       y       z     vdW  Elec       q    Type
REMARK                         _______ _______ _______ _____ _____    ______ ____
ROOT
ATOM      1  C   UNL     1       4.067   5.831  18.200  0.00  0.00    +0.000 A 
ATOM      2  C   UNL     1       3.910   7.004  17.446  0.00  0.00    +0.000 A 
ATOM      3  C   UNL     1       3.010   8.014  17.811  0.00  0.00    +0.000 A 
ATOM      4  C   UNL     1       2.229   7.897  18.961  0.00  0.00    +0.000 A 
ATOM      5  C   UNL     1       2.397   6.762  19.751  0.00  0.00    +0.000 A 
ATOM      6  C   UNL     1       3.301   5.756  19.377  0.00  0.00    +0.000 A 
ENDROOT
BRANCH   4   7
ATOM      7  C   UNL     1       1.250   8.908  19.325  0.00  0.00    +0.000 A 
ATOM      8  C   UNL     1       0.899   9.257  20.612  0.00  0.00    +0.000 A 
ATOM      9  N   UNL     1       0.001  10.282  20.486  0.00  0.00    +0.000 N 
ATOM     10  C   UNL     1      -0.634  11.011  21.483  0.00  0.00    +0.000 A 
ATOM     11  C   UNL     1      -1.485  11.995  21.136  0.00  0.00    +0.000 A 
ATOM     12  I   UNL     1      -2.439  13.117  22.572  0.00  0.00    +0.000 I 
ATOM     13  C   UNL     1      -1.707  12.247  19.712  0.00  0.00    +0.000 A 
ATOM     14  C   UNL     1      -1.081  11.532  18.756  0.00  0.00    +0.000 A 
ATOM     15  C   UNL     1      -0.175  10.501  19.127  0.00  0.00    +0.000 A 
ATOM     16  N   UNL     1       0.568   9.684  18.410  0.00  0.00    +0.000 NA
ENDBRANCH   4   7
BRANCH   1  18
ATOM     17  C   UNL     1       6.284   4.751  18.363  0.00  0.00    +0.000 C 
ATOM     18  N   UNL     1       4.935   4.817  17.806  0.00  0.00    +0.000 N 
BRANCH  18  19
ATOM     19  C   UNL     1       4.661   3.998  16.615  0.00  0.00    +0.000 C 
BRANCH  19  20
ATOM     20  C   UNL     1       5.760   4.093  15.559  0.00  0.00    +0.000 C 
ATOM     21  F   UNL     1       5.188   4.370  14.354  0.00  0.00    +0.000 F 
ENDBRANCH  19  20
ENDBRANCH  18  19
ENDBRANCH   1  18
TORSDOF 4
ENDMDL
