MODEL 1
REMARK VINA RESULT:      -7.4      0.000      0.000
REMARK  Name = 
REMARK  4 active torsions:
REMARK  status: ('A' for Active; 'I' for Inactive)
REMARK    1  A    between atoms: C_1  and  N_2
REMARK    2  A    between atoms: C_3  and  O_4
REMARK    3  A    between atoms: C_5  and  C_6
REMARK    4  A    between atoms: N_8  and  C_9
REMARK                            x       y       z     vdW  Elec       q    Type
REMARK                         _______ _______ _______ _____ _____    ______ ____
ROOT
ATOM      1  C   UNL     1      -0.563  12.958  22.771  0.00  0.00    +0.000 C 
ATOM      2  N   UNL     1      -0.770  12.203  21.511  0.00  0.00    +0.000 N 
ATOM      3  C   UNL     1       0.190  11.388  20.839  0.00  0.00    +0.000 C 
ATOM      4  C   UNL     1      -0.032  10.819  19.628  0.00  0.00    +0.000 C 
ATOM      5  C   UNL     1      -1.325  10.954  18.853  0.00  0.00    +0.000 A 
ATOM      6  C   UNL     1      -1.601  10.295  17.632  0.00  0.00    +0.000 A 
ATOM      7  C   UNL     1      -2.787  10.479  16.894  0.00  0.00    +0.000 A 
ATOM      8 CL   UNL     1      -2.951   9.625  15.398  0.00  0.00    +0.000 Cl
ATOM      9  C   UNL     1      -3.772  11.332  17.371  0.00  0.00    +0.000 A 
ATOM     10 CL   UNL     1      -5.253  11.619  16.538  0.00  0.00    +0.000 Cl
ATOM     11  C   UNL     1      -3.553  11.984  18.573  0.00  0.00    +0.000 A 
ATOM     12  C   UNL     1      -2.348  11.790  19.285  0.00  0.00    +0.000 A 
ATOM     13  S   UNL     1      -2.203  12.683  20.767  0.00  0.00    +0.000 S 
ATOM     14  O   UNL     1      -2.049  14.079  20.388  0.00  0.00    +0.000 OA
ATOM     15  O   UNL     1      -3.289  12.258  21.617  0.00  0.00    +0.000 OA
ENDROOT
BRANCH   4  16
ATOM     16  C   UNL     1       1.098   9.955  19.023  0.00  0.00    +0.000 C 
ATOM     17  O   UNL     1       1.792  10.419  18.122  0.00  0.00    +0.000 OA
ATOM     18  N   UNL     1       1.293   8.670  19.489  0.00  0.00    +0.000 N 
ATOM     19  H   UNL     1       0.553   8.261  20.058  0.00  0.00    +0.000 HD
BRANCH  18  20
ATOM     20  C   UNL     1       2.259   7.765  18.970  0.00  0.00    +0.000 A 
ATOM     21  C   UNL     1       3.040   8.090  17.853  0.00  0.00    +0.000 A 
ATOM     22  C   UNL     1       3.885   7.153  17.263  0.00  0.00    +0.000 A 
ATOM     23  C   UNL     1       3.988   5.879  17.807  0.00  0.00    +0.000 A 
ATOM     24  C   UNL     1       3.276   5.557  18.964  0.00  0.00    +0.000 A 
ATOM     25  C   UNL     1       2.423   6.499  19.551  0.00  0.00    +0.000 A 
ATOM     26 CL   UNL     1       1.531   6.034  20.958  0.00  0.00    +0.000 Cl
ENDBRANCH  18  20
ENDBRANCH   4  16
BRANCH   3  27
ATOM     27  O   UNL     1       1.373  11.174  21.517  0.00  0.00    +0.000 OA
ATOM     28  H   UNL     1       1.441  10.249  21.774  0.00  0.00    +0.000 HD
ENDBRANCH   3  27
TORSDOF 3
ENDMDL
MODEL 2
REMARK VINA RESULT:      -7.3      4.739      8.709
REMARK  Name = 
REMARK  4 active torsions:
REMARK  status: ('A' for Active; 'I' for Inactive)
REMARK    1  A    between atoms: C_1  and  N_2
REMARK    2  A    between atoms: C_3  and  O_4
REMARK    3  A    between atoms: C_5  and  C_6
REMARK    4  A    between atoms: N_8  and  C_9
REMARK                            x       y       z     vdW  Elec       q    Type
REMARK                         _______ _______ _______ _____ _____    ______ ____
ROOT
ATOM      1  C   UNL     1       0.788   1.821  18.991  0.00  0.00    +0.000 C 
ATOM      2  N   UNL     1       1.726   2.968  18.931  0.00  0.00    +0.000 N 
ATOM      3  C   UNL     1       1.555   4.242  19.552  0.00  0.00    +0.000 C 
ATOM      4  C   UNL     1       2.399   5.286  19.358  0.00  0.00    +0.000 C 
ATOM      5  C   UNL     1       3.635   5.224  18.487  0.00  0.00    +0.000 A 
ATOM      6  C   UNL     1       4.571   6.277  18.347  0.00  0.00    +0.000 A 
ATOM      7  C   UNL     1       5.684   6.224  17.485  0.00  0.00    +0.000 A 
ATOM      8 CL   UNL     1       6.711   7.614  17.403  0.00  0.00    +0.000 Cl
ATOM      9  C   UNL     1       5.920   5.085  16.730  0.00  0.00    +0.000 A 
ATOM     10 CL   UNL     1       7.254   4.930  15.651  0.00  0.00    +0.000 Cl
ATOM     11  C   UNL     1       5.040   4.021  16.851  0.00  0.00    +0.000 A 
ATOM     12  C   UNL     1       3.925   4.107  17.713  0.00  0.00    +0.000 A 
ATOM     13  S   UNL     1       2.899   2.707  17.751  0.00  0.00    +0.000 S 
ATOM     14  O   UNL     1       2.220   2.665  16.465  0.00  0.00    +0.000 OA
ATOM     15  O   UNL     1       3.716   1.605  18.197  0.00  0.00    +0.000 OA
ENDROOT
BRANCH   4  16
ATOM     16  C   UNL     1       2.091   6.605  20.102  0.00  0.00    +0.000 C 
ATOM     17  O   UNL     1       2.334   6.688  21.303  0.00  0.00    +0.000 OA
ATOM     18  N   UNL     1       1.525   7.658  19.410  0.00  0.00    +0.000 N 
ATOM     19  H   UNL     1       1.133   7.457  18.492  0.00  0.00    +0.000 HD
BRANCH  18  20
ATOM     20  C   UNL     1       1.145   8.894  20.000  0.00  0.00    +0.000 A 
ATOM     21  C   UNL     1       0.530   8.946  21.258  0.00  0.00    +0.000 A 
ATOM     22  C   UNL     1       0.034  10.142  21.773  0.00  0.00    +0.000 A 
ATOM     23  C   UNL     1       0.178  11.317  21.046  0.00  0.00    +0.000 A 
ATOM     24  C   UNL     1       0.854  11.302  19.824  0.00  0.00    +0.000 A 
ATOM     25  C   UNL     1       1.346  10.097  19.308  0.00  0.00    +0.000 A 
ATOM     26 CL   UNL     1       2.137  10.127  17.770  0.00  0.00    +0.000 Cl
ENDBRANCH  18  20
ENDBRANCH   4  16
BRANCH   3  27
ATOM     27  O   UNL     1       0.477   4.350  20.408  0.00  0.00    +0.000 OA
ATOM     28  H   UNL     1      -0.232   3.767  20.118  0.00  0.00    +0.000 HD
ENDBRANCH   3  27
TORSDOF 3
ENDMDL
MODEL 3
REMARK VINA RESULT:      -7.3      4.589      8.282
REMARK  Name = 
REMARK  4 active torsions:
REMARK  status: ('A' for Active; 'I' for Inactive)
REMARK    1  A    between atoms: C_1  and  N_2
REMARK    2  A    between atoms: C_3  and  O_4
REMARK    3  A    between atoms: C_5  and  C_6
REMARK    4  A    between atoms: N_8  and  C_9
REMARK                            x       y       z     vdW  Elec       q    Type
REMARK                         _______ _______ _______ _____ _____    ______ ____
ROOT
ATOM      1  C   UNL     1       2.235   3.127  21.612  0.00  0.00    +0.000 C 
ATOM      2  N   UNL     1       2.737   4.004  20.525  0.00  0.00    +0.000 N 
ATOM      3  C   UNL     1       2.381   5.367  20.298  0.00  0.00    +0.000 C 
ATOM      4  C   UNL     1       2.790   6.075  19.216  0.00  0.00    +0.000 C 
ATOM      5  C   UNL     1       3.689   5.520  18.132  0.00  0.00    +0.000 A 
ATOM      6  C   UNL     1       4.192   6.273  17.044  0.00  0.00    +0.000 A 
ATOM      7  C   UNL     1       4.979   5.725  16.012  0.00  0.00    +0.000 A 
ATOM      8 CL   UNL     1       5.484   6.776  14.734  0.00  0.00    +0.000 Cl
ATOM      9  C   UNL     1       5.316   4.380  16.040  0.00  0.00    +0.000 A 
ATOM     10 CL   UNL     1       6.273   3.623  14.822  0.00  0.00    +0.000 Cl
ATOM     11  C   UNL     1       4.861   3.608  17.096  0.00  0.00    +0.000 A 
ATOM     12  C   UNL     1       4.062   4.182  18.111  0.00  0.00    +0.000 A 
ATOM     13  S   UNL     1       3.549   3.094  19.363  0.00  0.00    +0.000 S 
ATOM     14  O   UNL     1       2.577   2.200  18.753  0.00  0.00    +0.000 OA
ATOM     15  O   UNL     1       4.746   2.580  19.984  0.00  0.00    +0.000 OA
ENDROOT
BRANCH   4  16
ATOM     16  C   UNL     1       2.331   7.547  19.106  0.00  0.00    +0.000 C 
ATOM     17  O   UNL     1       2.867   8.283  18.282  0.00  0.00    +0.000 OA
ATOM     18  N   UNL     1       1.345   8.015  19.952  0.00  0.00    +0.000 N 
ATOM     19  H   UNL     1       1.108   7.440  20.758  0.00  0.00    +0.000 HD
BRANCH  18  20
ATOM     20  C   UNL     1       0.886   9.360  19.983  0.00  0.00    +0.000 A 
ATOM     21  C   UNL     1       0.598  10.063  18.805  0.00  0.00    +0.000 A 
ATOM     22  C   UNL     1       0.282  11.419  18.830  0.00  0.00    +0.000 A 
ATOM     23  C   UNL     1       0.215  12.088  20.046  0.00  0.00    +0.000 A 
ATOM     24  C   UNL     1       0.424  11.391  21.237  0.00  0.00    +0.000 A 
ATOM     25  C   UNL     1       0.746  10.029  21.207  0.00  0.00    +0.000 A 
ATOM     26 CL   UNL     1       1.038   9.223  22.710  0.00  0.00    +0.000 Cl
ENDBRANCH  18  20
ENDBRANCH   4  16
BRANCH   3  27
ATOM     27  O   UNL     1       1.609   5.955  21.280  0.00  0.00    +0.000 OA
ATOM     28  H   UNL     1       1.464   5.333  22.000  0.00  0.00    +0.000 HD
ENDBRANCH   3  27
TORSDOF 3
ENDMDL
MODEL 4
REMARK VINA RESULT:      -7.0      4.357      6.578
REMARK  Name = 
REMARK  4 active torsions:
REMARK  status: ('A' for Active; 'I' for Inactive)
REMARK    1  A    between atoms: C_1  and  N_2
REMARK    2  A    between atoms: C_3  and  O_4
REMARK    3  A    between atoms: C_5  and  C_6
REMARK    4  A    between atoms: N_8  and  C_9
REMARK                            x       y       z     vdW  Elec       q    Type
REMARK                         _______ _______ _______ _____ _____    ______ ____
ROOT
ATOM      1  C   UNL     1       1.583   8.326  20.935  0.00  0.00    +0.000 C 
ATOM      2  N   UNL     1       0.775   9.571  20.943  0.00  0.00    +0.000 N 
ATOM      3  C   UNL     1       0.941  10.700  20.086  0.00  0.00    +0.000 C 
ATOM      4  C   UNL     1       0.241  11.853  20.227  0.00  0.00    +0.000 C 
ATOM      5  C   UNL     1      -0.816  12.077  21.287  0.00  0.00    +0.000 A 
ATOM      6  C   UNL     1      -1.614  13.241  21.389  0.00  0.00    +0.000 A 
ATOM      7  C   UNL     1      -2.552  13.458  22.418  0.00  0.00    +0.000 A 
ATOM      8 CL   UNL     1      -3.421  14.954  22.420  0.00  0.00    +0.000 Cl
ATOM      9  C   UNL     1      -2.745  12.490  23.392  0.00  0.00    +0.000 A 
ATOM     10 CL   UNL     1      -3.868  12.668  24.687  0.00  0.00    +0.000 Cl
ATOM     11  C   UNL     1      -1.999  11.325  23.320  0.00  0.00    +0.000 A 
ATOM     12  C   UNL     1      -1.056  11.140  22.285  0.00  0.00    +0.000 A 
ATOM     13  S   UNL     1      -0.181   9.642  22.328  0.00  0.00    +0.000 S 
ATOM     14  O   UNL     1       0.715   9.726  23.472  0.00  0.00    +0.000 OA
ATOM     15  O   UNL     1      -1.159   8.585  22.226  0.00  0.00    +0.000 OA
ENDROOT
BRANCH   4  16
ATOM     16  C   UNL     1       0.522  12.990  19.219  0.00  0.00    +0.000 C 
ATOM     17  O   UNL     1      -0.028  12.970  18.122  0.00  0.00    +0.000 OA
ATOM     18  N   UNL     1       1.407  13.995  19.560  0.00  0.00    +0.000 N 
ATOM     19  H   UNL     1       2.004  13.838  20.370  0.00  0.00    +0.000 HD
BRANCH  18  20
ATOM     20  C   UNL     1       1.787  15.057  18.695  0.00  0.00    +0.000 A 
ATOM     21  C   UNL     1       2.939  14.977  17.901  0.00  0.00    +0.000 A 
ATOM     22  C   UNL     1       3.385  16.070  17.160  0.00  0.00    +0.000 A 
ATOM     23  C   UNL     1       2.660  17.254  17.176  0.00  0.00    +0.000 A 
ATOM     24  C   UNL     1       1.469  17.333  17.900  0.00  0.00    +0.000 A 
ATOM     25  C   UNL     1       1.027  16.235  18.647  0.00  0.00    +0.000 A 
ATOM     26 CL   UNL     1      -0.433  16.399  19.562  0.00  0.00    +0.000 Cl
ENDBRANCH  18  20
ENDBRANCH   4  16
BRANCH   3  27
ATOM     27  O   UNL     1       1.850  10.542  19.059  0.00  0.00    +0.000 OA
ATOM     28  H   UNL     1       1.406  10.643  18.210  0.00  0.00    +0.000 HD
ENDBRANCH   3  27
TORSDOF 3
ENDMDL
MODEL 5
REMARK VINA RESULT:      -6.9      4.573      8.498
REMARK  Name = 
REMARK  4 active torsions:
REMARK  status: ('A' for Active; 'I' for Inactive)
REMARK    1  A    between atoms: C_1  and  N_2
REMARK    2  A    between atoms: C_3  and  O_4
REMARK    3  A    between atoms: C_5  and  C_6
REMARK    4  A    between atoms: N_8  and  C_9
REMARK                            x       y       z     vdW  Elec       q    Type
REMARK                         _______ _______ _______ _____ _____    ______ ____
ROOT
ATOM      1  C   UNL     1       0.769   2.276  19.331  0.00  0.00    +0.000 C 
ATOM      2  N   UNL     1       1.744   3.372  19.109  0.00  0.00    +0.000 N 
ATOM      3  C   UNL     1       1.607   4.731  19.523  0.00  0.00    +0.000 C 
ATOM      4  C   UNL     1       2.486   5.706  19.184  0.00  0.00    +0.000 C 
ATOM      5  C   UNL     1       3.727   5.474  18.350  0.00  0.00    +0.000 A 
ATOM      6  C   UNL     1       4.697   6.465  18.062  0.00  0.00    +0.000 A 
ATOM      7  C   UNL     1       5.816   6.247  17.234  0.00  0.00    +0.000 A 
ATOM      8 CL   UNL     1       6.887   7.576  16.953  0.00  0.00    +0.000 Cl
ATOM      9  C   UNL     1       6.022   4.998  16.667  0.00  0.00    +0.000 A 
ATOM     10 CL   UNL     1       7.361   4.639  15.642  0.00  0.00    +0.000 Cl
ATOM     11  C   UNL     1       5.108   3.992  16.937  0.00  0.00    +0.000 A 
ATOM     12  C   UNL     1       3.988   4.244  17.760  0.00  0.00    +0.000 A 
ATOM     13  S   UNL     1       2.919   2.897  17.999  0.00  0.00    +0.000 S 
ATOM     14  O   UNL     1       2.250   2.678  16.725  0.00  0.00    +0.000 OA
ATOM     15  O   UNL     1       3.696   1.853  18.621  0.00  0.00    +0.000 OA
ENDROOT
BRANCH   4  16
ATOM     16  C   UNL     1       2.213   7.133  19.712  0.00  0.00    +0.000 C 
ATOM     17  O   UNL     1       2.626   7.451  20.823  0.00  0.00    +0.000 OA
ATOM     18  N   UNL     1       1.488   8.017  18.936  0.00  0.00    +0.000 N 
ATOM     19  H   UNL     1       0.976   7.632  18.144  0.00  0.00    +0.000 HD
BRANCH  18  20
ATOM     20  C   UNL     1       1.125   9.330  19.341  0.00  0.00    +0.000 A 
ATOM     21  C   UNL     1       1.620  10.462  18.681  0.00  0.00    +0.000 A 
ATOM     22  C   UNL     1       1.375  11.746  19.164  0.00  0.00    +0.000 A 
ATOM     23  C   UNL     1       0.597  11.918  20.301  0.00  0.00    +0.000 A 
ATOM     24  C   UNL     1       0.031  10.808  20.932  0.00  0.00    +0.000 A 
ATOM     25  C   UNL     1       0.284   9.519  20.447  0.00  0.00    +0.000 A 
ATOM     26 CL   UNL     1      -0.406   8.176  21.292  0.00  0.00    +0.000 Cl
ENDBRANCH  18  20
ENDBRANCH   4  16
BRANCH   3  27
ATOM     27  O   UNL     1       0.526   5.002  20.337  0.00  0.00    +0.000 OA
ATOM     28  H   UNL     1      -0.282   4.672  19.930  0.00  0.00    +0.000 HD
ENDBRANCH   3  27
TORSDOF 3
ENDMDL
MODEL 6
REMARK VINA RESULT:      -6.9      5.722      7.760
REMARK  Name = 
REMARK  4 active torsions:
REMARK  status: ('A' for Active; 'I' for Inactive)
REMARK    1  A    between atoms: C_1  and  N_2
REMARK    2  A    between atoms: C_3  and  O_4
REMARK    3  A    between atoms: C_5  and  C_6
REMARK    4  A    between atoms: N_8  and  C_9
REMARK                            x       y       z     vdW  Elec       q    Type
REMARK                         _______ _______ _______ _____ _____    ______ ____
ROOT
ATOM      1  C   UNL     1       2.788   1.784  19.971  0.00  0.00    +0.000 C 
ATOM      2  N   UNL     1       2.801   3.142  19.373  0.00  0.00    +0.000 N 
ATOM      3  C   UNL     1       3.552   3.565  18.235  0.00  0.00    +0.000 C 
ATOM      4  C   UNL     1       3.606   4.852  17.813  0.00  0.00    +0.000 C 
ATOM      5  C   UNL     1       2.861   5.992  18.474  0.00  0.00    +0.000 A 
ATOM      6  C   UNL     1       2.840   7.322  17.992  0.00  0.00    +0.000 A 
ATOM      7  C   UNL     1       2.189   8.383  18.653  0.00  0.00    +0.000 A 
ATOM      8 CL   UNL     1       2.291   9.960  17.948  0.00  0.00    +0.000 Cl
ATOM      9  C   UNL     1       1.506   8.144  19.836  0.00  0.00    +0.000 A 
ATOM     10 CL   UNL     1       0.683   9.378  20.713  0.00  0.00    +0.000 Cl
ATOM     11  C   UNL     1       1.484   6.852  20.335  0.00  0.00    +0.000 A 
ATOM     12  C   UNL     1       2.156   5.810  19.657  0.00  0.00    +0.000 A 
ATOM     13  S   UNL     1       2.059   4.247  20.405  0.00  0.00    +0.000 S 
ATOM     14  O   UNL     1       2.867   4.323  21.613  0.00  0.00    +0.000 OA
ATOM     15  O   UNL     1       0.660   3.901  20.467  0.00  0.00    +0.000 OA
ENDROOT
BRANCH   4  16
ATOM     16  C   UNL     1       4.457   5.161  16.560  0.00  0.00    +0.000 C 
ATOM     17  O   UNL     1       4.625   6.329  16.221  0.00  0.00    +0.000 OA
ATOM     18  N   UNL     1       4.993   4.118  15.829  0.00  0.00    +0.000 N 
ATOM     19  H   UNL     1       4.632   3.184  16.014  0.00  0.00    +0.000 HD
BRANCH  18  20
ATOM     20  C   UNL     1       5.739   4.279  14.631  0.00  0.00    +0.000 A 
ATOM     21  C   UNL     1       5.277   3.774  13.408  0.00  0.00    +0.000 A 
ATOM     22  C   UNL     1       6.071   3.810  12.263  0.00  0.00    +0.000 A 
ATOM     23  C   UNL     1       7.333   4.387  12.319  0.00  0.00    +0.000 A 
ATOM     24  C   UNL     1       7.785   4.963  13.507  0.00  0.00    +0.000 A 
ATOM     25  C   UNL     1       6.987   4.920  14.657  0.00  0.00    +0.000 A 
ATOM     26 CL   UNL     1       7.611   5.610  16.115  0.00  0.00    +0.000 Cl
ENDBRANCH  18  20
ENDBRANCH   4  16
BRANCH   3  27
ATOM     27  O   UNL     1       4.211   2.565  17.549  0.00  0.00    +0.000 OA
ATOM     28  H   UNL     1       3.592   2.096  16.979  0.00  0.00    +0.000 HD
ENDBRANCH   3  27
TORSDOF 3
ENDMDL
MODEL 7
REMARK VINA RESULT:      -6.9      4.601      8.592
REMARK  Name = 
REMARK  4 active torsions:
REMARK  status: ('A' for Active; 'I' for Inactive)
REMARK    1  A    between atoms: C_1  and  N_2
REMARK    2  A    between atoms: C_3  and  O_4
REMARK    3  A    between atoms: C_5  and  C_6
REMARK    4  A    between atoms: N_8  and  C_9
REMARK                            x       y       z     vdW  Elec       q    Type
REMARK                         _______ _______ _______ _____ _____    ______ ____
ROOT
ATOM      1  C   UNL     1       1.295   2.502  20.919  0.00  0.00    +0.000 C 
ATOM      2  N   UNL     1       2.128   3.574  20.320  0.00  0.00    +0.000 N 
ATOM      3  C   UNL     1       1.725   4.916  20.050  0.00  0.00    +0.000 C 
ATOM      4  C   UNL     1       2.503   5.811  19.393  0.00  0.00    +0.000 C 
ATOM      5  C   UNL     1       3.898   5.510  18.890  0.00  0.00    +0.000 A 
ATOM      6  C   UNL     1       4.753   6.460  18.282  0.00  0.00    +0.000 A 
ATOM      7  C   UNL     1       6.026   6.148  17.764  0.00  0.00    +0.000 A 
ATOM      8 CL   UNL     1       6.930   7.420  17.017  0.00  0.00    +0.000 Cl
ATOM      9  C   UNL     1       6.510   4.852  17.856  0.00  0.00    +0.000 A 
ATOM     10 CL   UNL     1       8.053   4.378  17.252  0.00  0.00    +0.000 Cl
ATOM     11  C   UNL     1       5.715   3.893  18.461  0.00  0.00    +0.000 A 
ATOM     12  C   UNL     1       4.437   4.231  18.959  0.00  0.00    +0.000 A 
ATOM     13  S   UNL     1       3.544   2.927  19.677  0.00  0.00    +0.000 S 
ATOM     14  O   UNL     1       3.163   2.045  18.584  0.00  0.00    +0.000 OA
ATOM     15  O   UNL     1       4.333   2.442  20.783  0.00  0.00    +0.000 OA
ENDROOT
BRANCH   4  16
ATOM     16  C   UNL     1       1.936   7.233  19.179  0.00  0.00    +0.000 C 
ATOM     17  O   UNL     1       1.882   7.692  18.041  0.00  0.00    +0.000 OA
ATOM     18  N   UNL     1       1.525   7.972  20.271  0.00  0.00    +0.000 N 
ATOM     19  H   UNL     1       1.809   7.642  21.193  0.00  0.00    +0.000 HD
BRANCH  18  20
ATOM     20  C   UNL     1       1.045   9.307  20.202  0.00  0.00    +0.000 A 
ATOM     21  C   UNL     1       1.469  10.187  19.197  0.00  0.00    +0.000 A 
ATOM     22  C   UNL     1       1.106  11.532  19.212  0.00  0.00    +0.000 A 
ATOM     23  C   UNL     1       0.277  12.011  20.218  0.00  0.00    +0.000 A 
ATOM     24  C   UNL     1      -0.219  11.137  21.187  0.00  0.00    +0.000 A 
ATOM     25  C   UNL     1       0.153   9.787  21.173  0.00  0.00    +0.000 A 
ATOM     26 CL   UNL     1      -0.455   8.756  22.422  0.00  0.00    +0.000 Cl
ENDBRANCH  18  20
ENDBRANCH   4  16
BRANCH   3  27
ATOM     27  O   UNL     1       0.483   5.276  20.535  0.00  0.00    +0.000 OA
ATOM     28  H   UNL     1       0.417   5.049  21.469  0.00  0.00    +0.000 HD
ENDBRANCH   3  27
TORSDOF 3
ENDMDL
MODEL 8
REMARK VINA RESULT:      -6.9      2.276      3.177
REMARK  Name = 
REMARK  4 active torsions:
REMARK  status: ('A' for Active; 'I' for Inactive)
REMARK    1  A    between atoms: C_1  and  N_2
REMARK    2  A    between atoms: C_3  and  O_4
REMARK    3  A    between atoms: C_5  and  C_6
REMARK    4  A    between atoms: N_8  and  C_9
REMARK                            x       y       z     vdW  Elec       q    Type
REMARK                         _______ _______ _______ _____ _____    ______ ____
ROOT
ATOM      1  C   UNL     1      -3.771  14.475  24.081  0.00  0.00    +0.000 C 
ATOM      2  N   UNL     1      -3.659  13.742  22.796  0.00  0.00    +0.000 N 
ATOM      3  C   UNL     1      -2.491  13.109  22.277  0.00  0.00    +0.000 C 
ATOM      4  C   UNL     1      -2.429  12.556  21.040  0.00  0.00    +0.000 C 
ATOM      5  C   UNL     1      -3.591  12.517  20.071  0.00  0.00    +0.000 A 
ATOM      6  C   UNL     1      -3.567  11.867  18.814  0.00  0.00    +0.000 A 
ATOM      7  C   UNL     1      -4.638  11.893  17.899  0.00  0.00    +0.000 A 
ATOM      8 CL   UNL     1      -4.431  11.077  16.388  0.00  0.00    +0.000 Cl
ATOM      9  C   UNL     1      -5.807  12.566  18.223  0.00  0.00    +0.000 A 
ATOM     10 CL   UNL     1      -7.167  12.651  17.168  0.00  0.00    +0.000 Cl
ATOM     11  C   UNL     1      -5.882  13.201  19.452  0.00  0.00    +0.000 A 
ATOM     12  C   UNL     1      -4.787  13.170  20.344  0.00  0.00    +0.000 A 
ATOM     13  S   UNL     1      -5.016  14.022  21.839  0.00  0.00    +0.000 S 
ATOM     14  O   UNL     1      -5.027  15.438  21.504  0.00  0.00    +0.000 OA
ATOM     15  O   UNL     1      -6.140  13.405  22.501  0.00  0.00    +0.000 OA
ENDROOT
BRANCH   4  16
ATOM     16  C   UNL     1      -1.097  11.898  20.613  0.00  0.00    +0.000 C 
ATOM     17  O   UNL     1      -0.056  12.545  20.690  0.00  0.00    +0.000 OA
ATOM     18  N   UNL     1      -1.103  10.604  20.130  0.00  0.00    +0.000 N 
ATOM     19  H   UNL     1      -2.004  10.206  19.869  0.00  0.00    +0.000 HD
BRANCH  18  20
ATOM     20  C   UNL     1       0.048   9.919  19.655  0.00  0.00    +0.000 A 
ATOM     21  C   UNL     1       0.458  10.017  18.318  0.00  0.00    +0.000 A 
ATOM     22  C   UNL     1       1.501   9.239  17.822  0.00  0.00    +0.000 A 
ATOM     23  C   UNL     1       2.178   8.372  18.671  0.00  0.00    +0.000 A 
ATOM     24  C   UNL     1       1.836   8.313  20.023  0.00  0.00    +0.000 A 
ATOM     25  C   UNL     1       0.783   9.092  20.517  0.00  0.00    +0.000 A 
ATOM     26 CL   UNL     1       0.372   8.948  22.191  0.00  0.00    +0.000 Cl
ENDBRANCH  18  20
ENDBRANCH   4  16
BRANCH   3  27
ATOM     27  O   UNL     1      -1.408  13.056  23.132  0.00  0.00    +0.000 OA
ATOM     28  H   UNL     1      -1.496  13.730  23.814  0.00  0.00    +0.000 HD
ENDBRANCH   3  27
TORSDOF 3
ENDMDL
MODEL 9
REMARK VINA RESULT:      -6.9      4.479      6.832
REMARK  Name = 
REMARK  4 active torsions:
REMARK  status: ('A' for Active; 'I' for Inactive)
REMARK    1  A    between atoms: C_1  and  N_2
REMARK    2  A    between atoms: C_3  and  O_4
REMARK    3  A    between atoms: C_5  and  C_6
REMARK    4  A    between atoms: N_8  and  C_9
REMARK                            x       y       z     vdW  Elec       q    Type
REMARK                         _______ _______ _______ _____ _____    ______ ____
ROOT
ATOM      1  C   UNL     1       1.632   8.774  20.786  0.00  0.00    +0.000 C 
ATOM      2  N   UNL     1       0.693   9.920  20.862  0.00  0.00    +0.000 N 
ATOM      3  C   UNL     1       0.715  11.094  20.051  0.00  0.00    +0.000 C 
ATOM      4  C   UNL     1      -0.104  12.156  20.253  0.00  0.00    +0.000 C 
ATOM      5  C   UNL     1      -1.155  12.219  21.341  0.00  0.00    +0.000 A 
ATOM      6  C   UNL     1      -2.074  13.283  21.507  0.00  0.00    +0.000 A 
ATOM      7  C   UNL     1      -3.007  13.353  22.561  0.00  0.00    +0.000 A 
ATOM      8 CL   UNL     1      -4.034  14.743  22.642  0.00  0.00    +0.000 Cl
ATOM      9  C   UNL     1      -3.070  12.331  23.496  0.00  0.00    +0.000 A 
ATOM     10 CL   UNL     1      -4.177  12.331  24.818  0.00  0.00    +0.000 Cl
ATOM     11  C   UNL     1      -2.202  11.260  23.361  0.00  0.00    +0.000 A 
ATOM     12  C   UNL     1      -1.269  11.222  22.302  0.00  0.00    +0.000 A 
ATOM     13  S   UNL     1      -0.234   9.829  22.266  0.00  0.00    +0.000 S 
ATOM     14  O   UNL     1       0.673   9.966  23.395  0.00  0.00    +0.000 OA
ATOM     15  O   UNL     1      -1.092   8.676  22.136  0.00  0.00    +0.000 OA
ENDROOT
BRANCH   4  16
ATOM     16  C   UNL     1       0.028  13.358  19.290  0.00  0.00    +0.000 C 
ATOM     17  O   UNL     1      -0.230  13.204  18.100  0.00  0.00    +0.000 OA
ATOM     18  N   UNL     1       0.458  14.576  19.780  0.00  0.00    +0.000 N 
ATOM     19  H   UNL     1       0.878  14.585  20.708  0.00  0.00    +0.000 HD
BRANCH  18  20
ATOM     20  C   UNL     1       0.673  15.731  18.981  0.00  0.00    +0.000 A 
ATOM     21  C   UNL     1      -0.388  16.556  18.585  0.00  0.00    +0.000 A 
ATOM     22  C   UNL     1      -0.194  17.606  17.690  0.00  0.00    +0.000 A 
ATOM     23  C   UNL     1       1.080  17.870  17.203  0.00  0.00    +0.000 A 
ATOM     24  C   UNL     1       2.164  17.108  17.641  0.00  0.00    +0.000 A 
ATOM     25  C   UNL     1       1.965  16.050  18.536  0.00  0.00    +0.000 A 
ATOM     26 CL   UNL     1       3.337  15.111  19.014  0.00  0.00    +0.000 Cl
ENDBRANCH  18  20
ENDBRANCH   4  16
BRANCH   3  27
ATOM     27  O   UNL     1       1.612  11.080  19.002  0.00  0.00    +0.000 OA
ATOM     28  H   UNL     1       1.649  10.200  18.615  0.00  0.00    +0.000 HD
ENDBRANCH   3  27
TORSDOF 3
ENDMDL
