MODEL 1
REMARK VINA RESULT:      -7.3      0.000      0.000
REMARK  Name = 
REMARK  6 active torsions:
REMARK  status: ('A' for Active; 'I' for Inactive)
REMARK    1  A    between atoms: O_1  and  C_2
REMARK    2  A    between atoms: C_2  and  C_3
REMARK    3  A    between atoms: C_3  and  C_4
REMARK    4  A    between atoms: N_7  and  C_8
REMARK    5  A    between atoms: C_8  and  C_9
REMARK    6  A    between atoms: C_12  and  C_13
REMARK                            x       y       z     vdW  Elec       q    Type
REMARK                         _______ _______ _______ _____ _____    ______ ____
ROOT
ATOM      1  C   UNL     1       4.962   4.954  17.421  0.00  0.00    +0.000 A 
ATOM      2  C   UNL     1       4.702   6.309  17.511  0.00  0.00    +0.000 A 
ATOM      3  S   UNL     1       3.125   6.573  18.128  0.00  0.00    +0.000 S 
ATOM      4  C   UNL     1       2.889   4.872  18.231  0.00  0.00    +0.000 A 
ATOM      5  N   UNL     1       3.914   4.147  17.834  0.00  0.00    +0.000 NA
ENDROOT
BRANCH   4   6
ATOM      6  C   UNL     1       1.588   4.299  18.745  0.00  0.00    +0.000 C 
ATOM      7  C   UNL     1       1.599   2.762  18.701  0.00  0.00    +0.000 C 
ATOM      8  C   UNL     1       2.490   2.131  19.771  0.00  0.00    +0.000 C 
ATOM      9  C   UNL     1       2.169   2.653  21.169  0.00  0.00    +0.000 C 
ATOM     10  C   UNL     1       2.148   4.176  21.246  0.00  0.00    +0.000 C 
ATOM     11  C   UNL     1       1.268   4.800  20.162  0.00  0.00    +0.000 C 
ENDBRANCH   4   6
BRANCH   1  12
ATOM     12  C   UNL     1       6.231   4.298  16.998  0.00  0.00    +0.000 C 
BRANCH  12  16
ATOM     13  C   UNL     1       6.634   4.194  13.404  0.00  0.00    +0.000 A 
ATOM     14  C   UNL     1       7.540   5.174  13.871  0.00  0.00    +0.000 A 
ATOM     15  N   UNL     1       7.458   5.370  15.190  0.00  0.00    +0.000 NA
ATOM     16  N   UNL     1       6.498   4.506  15.582  0.00  0.00    +0.000 N 
ATOM     17  C   UNL     1       5.957   3.804  14.539  0.00  0.00    +0.000 A 
BRANCH  13  18
ATOM     18  C   UNL     1       6.475   3.650  12.027  0.00  0.00    +0.000 C 
BRANCH  18  19
ATOM     19  C   UNL     1       5.410   2.567  11.898  0.00  0.00    +0.000 C 
BRANCH  19  20
ATOM     20  O   UNL     1       6.048   1.328  11.605  0.00  0.00    +0.000 OA
ATOM     21  H   UNL     1       6.896   1.323  12.084  0.00  0.00    +0.000 HD
ENDBRANCH  19  20
ENDBRANCH  18  19
ENDBRANCH  13  18
ENDBRANCH  12  16
ENDBRANCH   1  12
TORSDOF 6
ENDMDL
MODEL 2
REMARK VINA RESULT:      -7.2      1.058      1.702
REMARK  Name = 
REMARK  6 active torsions:
REMARK  status: ('A' for Active; 'I' for Inactive)
REMARK    1  A    between atoms: O_1  and  C_2
REMARK    2  A    between atoms: C_2  and  C_3
REMARK    3  A    between atoms: C_3  and  C_4
REMARK    4  A    between atoms: N_7  and  C_8
REMARK    5  A    between atoms: C_8  and  C_9
REMARK    6  A    between atoms: C_12  and  C_13
REMARK                            x       y       z     vdW  Elec       q    Type
REMARK                         _______ _______ _______ _____ _____    ______ ____
ROOT
ATOM      1  C   UNL     1       5.826   5.186  17.215  0.00  0.00    +0.000 A 
ATOM      2  C   UNL     1       5.158   6.390  17.084  0.00  0.00    +0.000 A 
ATOM      3  S   UNL     1       3.821   6.447  18.156  0.00  0.00    +0.000 S 
ATOM      4  C   UNL     1       4.215   4.870  18.719  0.00  0.00    +0.000 A 
ATOM      5  N   UNL     1       5.272   4.329  18.152  0.00  0.00    +0.000 NA
ENDROOT
BRANCH   4   6
ATOM      6  C   UNL     1       3.382   4.197  19.787  0.00  0.00    +0.000 C 
ATOM      7  C   UNL     1       1.887   4.510  19.608  0.00  0.00    +0.000 C 
ATOM      8  C   UNL     1       1.252   3.784  18.422  0.00  0.00    +0.000 C 
ATOM      9  C   UNL     1       1.512   2.281  18.461  0.00  0.00    +0.000 C 
ATOM     10  C   UNL     1       2.987   1.935  18.640  0.00  0.00    +0.000 C 
ATOM     11  C   UNL     1       3.619   2.679  19.818  0.00  0.00    +0.000 C 
ENDBRANCH   4   6
BRANCH   1  12
ATOM     12  C   UNL     1       7.073   4.759  16.519  0.00  0.00    +0.000 C 
BRANCH  12  16
ATOM     13  C   UNL     1       6.284   4.054  13.059  0.00  0.00    +0.000 A 
ATOM     14  C   UNL     1       7.397   4.924  13.037  0.00  0.00    +0.000 A 
ATOM     15  N   UNL     1       7.766   5.326  14.256  0.00  0.00    +0.000 NA
ATOM     16  N   UNL     1       6.892   4.705  15.076  0.00  0.00    +0.000 N 
ATOM     17  C   UNL     1       5.967   3.957  14.397  0.00  0.00    +0.000 A 
BRANCH  13  18
ATOM     18  C   UNL     1       5.629   3.345  11.925  0.00  0.00    +0.000 C 
BRANCH  18  19
ATOM     19  C   UNL     1       6.008   1.874  11.799  0.00  0.00    +0.000 C 
BRANCH  19  20
ATOM     20  O   UNL     1       7.348   1.783  11.323  0.00  0.00    +0.000 OA
ATOM     21  H   UNL     1       7.770   1.045  11.798  0.00  0.00    +0.000 HD
ENDBRANCH  19  20
ENDBRANCH  18  19
ENDBRANCH  13  18
ENDBRANCH  12  16
ENDBRANCH   1  12
TORSDOF 6
ENDMDL
MODEL 3
REMARK VINA RESULT:      -7.1      1.253      1.812
REMARK  Name = 
REMARK  6 active torsions:
REMARK  status: ('A' for Active; 'I' for Inactive)
REMARK    1  A    between atoms: O_1  and  C_2
REMARK    2  A    between atoms: C_2  and  C_3
REMARK    3  A    between atoms: C_3  and  C_4
REMARK    4  A    between atoms: N_7  and  C_8
REMARK    5  A    between atoms: C_8  and  C_9
REMARK    6  A    between atoms: C_12  and  C_13
REMARK                            x       y       z     vdW  Elec       q    Type
REMARK                         _______ _______ _______ _____ _____    ______ ____
ROOT
ATOM      1  C   UNL     1       5.733   5.273  17.238  0.00  0.00    +0.000 A 
ATOM      2  C   UNL     1       4.936   6.380  17.013  0.00  0.00    +0.000 A 
ATOM      3  S   UNL     1       3.588   6.367  18.071  0.00  0.00    +0.000 S 
ATOM      4  C   UNL     1       4.148   4.892  18.756  0.00  0.00    +0.000 A 
ATOM      5  N   UNL     1       5.267   4.432  18.236  0.00  0.00    +0.000 NA
ENDROOT
BRANCH   4   6
ATOM      6  C   UNL     1       3.382   4.213  19.868  0.00  0.00    +0.000 C 
ATOM      7  C   UNL     1       1.865   4.394  19.693  0.00  0.00    +0.000 C 
ATOM      8  C   UNL     1       1.281   3.555  18.556  0.00  0.00    +0.000 C 
ATOM      9  C   UNL     1       1.663   2.082  18.671  0.00  0.00    +0.000 C 
ATOM     10  C   UNL     1       3.163   1.868  18.849  0.00  0.00    +0.000 C 
ATOM     11  C   UNL     1       3.742   2.723  19.977  0.00  0.00    +0.000 C 
ENDBRANCH   4   6
BRANCH   1  12
ATOM     12  C   UNL     1       7.029   4.937  16.583  0.00  0.00    +0.000 C 
BRANCH  12  16
ATOM     13  C   UNL     1       6.372   3.932  13.170  0.00  0.00    +0.000 A 
ATOM     14  C   UNL     1       7.389   4.911  13.100  0.00  0.00    +0.000 A 
ATOM     15  N   UNL     1       7.695   5.427  14.294  0.00  0.00    +0.000 NA
ATOM     16  N   UNL     1       6.877   4.771  15.145  0.00  0.00    +0.000 N 
ATOM     17  C   UNL     1       6.046   3.889  14.508  0.00  0.00    +0.000 A 
BRANCH  13  18
ATOM     18  C   UNL     1       5.812   3.087  12.078  0.00  0.00    +0.000 C 
BRANCH  18  19
ATOM     19  C   UNL     1       4.310   3.241  11.872  0.00  0.00    +0.000 C 
BRANCH  19  20
ATOM     20  O   UNL     1       4.084   4.048  10.720  0.00  0.00    +0.000 OA
ATOM     21  H   UNL     1       3.123   4.055  10.560  0.00  0.00    +0.000 HD
ENDBRANCH  19  20
ENDBRANCH  18  19
ENDBRANCH  13  18
ENDBRANCH  12  16
ENDBRANCH   1  12
TORSDOF 6
ENDMDL
MODEL 4
REMARK VINA RESULT:      -7.1      1.198      1.919
REMARK  Name = 
REMARK  6 active torsions:
REMARK  status: ('A' for Active; 'I' for Inactive)
REMARK    1  A    between atoms: O_1  and  C_2
REMARK    2  A    between atoms: C_2  and  C_3
REMARK    3  A    between atoms: C_3  and  C_4
REMARK    4  A    between atoms: N_7  and  C_8
REMARK    5  A    between atoms: C_8  and  C_9
REMARK    6  A    between atoms: C_12  and  C_13
REMARK                            x       y       z     vdW  Elec       q    Type
REMARK                         _______ _______ _______ _____ _____    ______ ____
ROOT
ATOM      1  C   UNL     1       5.842   4.737  18.085  0.00  0.00    +0.000 A 
ATOM      2  C   UNL     1       5.095   5.878  18.317  0.00  0.00    +0.000 A 
ATOM      3  S   UNL     1       3.753   5.516  19.319  0.00  0.00    +0.000 S 
ATOM      4  C   UNL     1       4.248   3.870  19.376  0.00  0.00    +0.000 A 
ATOM      5  N   UNL     1       5.342   3.599  18.696  0.00  0.00    +0.000 NA
ENDROOT
BRANCH   4   6
ATOM      6  C   UNL     1       3.456   2.848  20.162  0.00  0.00    +0.000 C 
ATOM      7  C   UNL     1       2.384   3.523  21.032  0.00  0.00    +0.000 C 
ATOM      8  C   UNL     1       1.201   4.063  20.227  0.00  0.00    +0.000 C 
ATOM      9  C   UNL     1       0.598   3.005  19.308  0.00  0.00    +0.000 C 
ATOM     10  C   UNL     1       1.638   2.314  18.432  0.00  0.00    +0.000 C 
ATOM     11  C   UNL     1       2.825   1.791  19.242  0.00  0.00    +0.000 C 
ENDBRANCH   4   6
BRANCH   1  12
ATOM     12  C   UNL     1       7.118   4.625  17.323  0.00  0.00    +0.000 C 
BRANCH  12  16
ATOM     13  C   UNL     1       6.389   3.958  13.843  0.00  0.00    +0.000 A 
ATOM     14  C   UNL     1       7.205   5.112  13.857  0.00  0.00    +0.000 A 
ATOM     15  N   UNL     1       7.505   5.520  15.093  0.00  0.00    +0.000 NA
ATOM     16  N   UNL     1       6.887   4.619  15.886  0.00  0.00    +0.000 N 
ATOM     17  C   UNL     1       6.181   3.684  15.177  0.00  0.00    +0.000 A 
BRANCH  13  18
ATOM     18  C   UNL     1       5.907   3.169  12.675  0.00  0.00    +0.000 C 
BRANCH  18  19
ATOM     19  C   UNL     1       4.747   3.808  11.920  0.00  0.00    +0.000 C 
BRANCH  19  20
ATOM     20  O   UNL     1       4.074   2.798  11.173  0.00  0.00    +0.000 OA
ATOM     21  H   UNL     1       3.650   2.202  11.817  0.00  0.00    +0.000 HD
ENDBRANCH  19  20
ENDBRANCH  18  19
ENDBRANCH  13  18
ENDBRANCH  12  16
ENDBRANCH   1  12
TORSDOF 6
ENDMDL
MODEL 5
REMARK VINA RESULT:      -6.9      1.267      1.935
REMARK  Name = 
REMARK  6 active torsions:
REMARK  status: ('A' for Active; 'I' for Inactive)
REMARK    1  A    between atoms: O_1  and  C_2
REMARK    2  A    between atoms: C_2  and  C_3
REMARK    3  A    between atoms: C_3  and  C_4
REMARK    4  A    between atoms: N_7  and  C_8
REMARK    5  A    between atoms: C_8  and  C_9
REMARK    6  A    between atoms: C_12  and  C_13
REMARK                            x       y       z     vdW  Elec       q    Type
REMARK                         _______ _______ _______ _____ _____    ______ ____
ROOT
ATOM      1  C   UNL     1       4.638   6.363  18.021  0.00  0.00    +0.000 A 
ATOM      2  C   UNL     1       3.520   7.177  17.988  0.00  0.00    +0.000 A 
ATOM      3  S   UNL     1       2.309   6.566  19.035  0.00  0.00    +0.000 S 
ATOM      4  C   UNL     1       3.345   5.260  19.459  0.00  0.00    +0.000 A 
ATOM      5  N   UNL     1       4.519   5.271  18.865  0.00  0.00    +0.000 NA
ENDROOT
BRANCH   4   6
ATOM      6  C   UNL     1       2.898   4.204  20.445  0.00  0.00    +0.000 C 
ATOM      7  C   UNL     1       1.368   4.048  20.441  0.00  0.00    +0.000 C 
ATOM      8  C   UNL     1       0.834   3.344  19.193  0.00  0.00    +0.000 C 
ATOM      9  C   UNL     1       1.537   2.014  18.936  0.00  0.00    +0.000 C 
ATOM     10  C   UNL     1       3.057   2.134  18.937  0.00  0.00    +0.000 C 
ATOM     11  C   UNL     1       3.583   2.854  20.180  0.00  0.00    +0.000 C 
ENDBRANCH   4   6
BRANCH   1  12
ATOM     12  C   UNL     1       5.933   6.568  17.313  0.00  0.00    +0.000 C 
BRANCH  12  16
ATOM     13  C   UNL     1       5.818   4.364  14.446  0.00  0.00    +0.000 A 
ATOM     14  C   UNL     1       6.715   3.768  15.361  0.00  0.00    +0.000 A 
ATOM     15  N   UNL     1       6.910   4.511  16.455  0.00  0.00    +0.000 NA
ATOM     16  N   UNL     1       6.126   5.591  16.251  0.00  0.00    +0.000 N 
ATOM     17  C   UNL     1       5.479   5.558  15.045  0.00  0.00    +0.000 A 
BRANCH  13  18
ATOM     18  C   UNL     1       5.298   3.822  13.160  0.00  0.00    +0.000 C 
BRANCH  18  19
ATOM     19  C   UNL     1       6.379   3.371  12.184  0.00  0.00    +0.000 C 
BRANCH  19  20
ATOM     20  O   UNL     1       6.138   2.014  11.825  0.00  0.00    +0.000 OA
ATOM     21  H   UNL     1       6.388   1.467  12.592  0.00  0.00    +0.000 HD
ENDBRANCH  19  20
ENDBRANCH  18  19
ENDBRANCH  13  18
ENDBRANCH  12  16
ENDBRANCH   1  12
TORSDOF 6
ENDMDL
MODEL 6
REMARK VINA RESULT:      -6.8      0.979      1.190
REMARK  Name = 
REMARK  6 active torsions:
REMARK  status: ('A' for Active; 'I' for Inactive)
REMARK    1  A    between atoms: O_1  and  C_2
REMARK    2  A    between atoms: C_2  and  C_3
REMARK    3  A    between atoms: C_3  and  C_4
REMARK    4  A    between atoms: N_7  and  C_8
REMARK    5  A    between atoms: C_8  and  C_9
REMARK    6  A    between atoms: C_12  and  C_13
REMARK                            x       y       z     vdW  Elec       q    Type
REMARK                         _______ _______ _______ _____ _____    ______ ____
ROOT
ATOM      1  C   UNL     1       5.387   5.439  16.889  0.00  0.00    +0.000 A 
ATOM      2  C   UNL     1       5.199   6.807  16.953  0.00  0.00    +0.000 A 
ATOM      3  S   UNL     1       3.708   7.168  17.715  0.00  0.00    +0.000 S 
ATOM      4  C   UNL     1       3.407   5.485  17.907  0.00  0.00    +0.000 A 
ATOM      5  N   UNL     1       4.352   4.699  17.437  0.00  0.00    +0.000 NA
ENDROOT
BRANCH   4   6
ATOM      6  C   UNL     1       2.141   4.994  18.572  0.00  0.00    +0.000 C 
ATOM      7  C   UNL     1       1.482   3.870  17.755  0.00  0.00    +0.000 C 
ATOM      8  C   UNL     1       2.234   2.541  17.833  0.00  0.00    +0.000 C 
ATOM      9  C   UNL     1       2.496   2.111  19.273  0.00  0.00    +0.000 C 
ATOM     10  C   UNL     1       3.148   3.206  20.113  0.00  0.00    +0.000 C 
ATOM     11  C   UNL     1       2.399   4.536  20.016  0.00  0.00    +0.000 C 
ENDBRANCH   4   6
BRANCH   1  12
ATOM     12  C   UNL     1       6.576   4.708  16.366  0.00  0.00    +0.000 C 
BRANCH  12  16
ATOM     13  C   UNL     1       6.078   3.847  12.888  0.00  0.00    +0.000 A 
ATOM     14  C   UNL     1       7.247   4.639  12.931  0.00  0.00    +0.000 A 
ATOM     15  N   UNL     1       7.524   5.090  14.158  0.00  0.00    +0.000 NA
ATOM     16  N   UNL     1       6.532   4.578  14.917  0.00  0.00    +0.000 N 
ATOM     17  C   UNL     1       5.627   3.853  14.190  0.00  0.00    +0.000 A 
BRANCH  13  18
ATOM     18  C   UNL     1       5.487   3.115  11.733  0.00  0.00    +0.000 C 
BRANCH  18  19
ATOM     19  C   UNL     1       5.978   1.680  11.579  0.00  0.00    +0.000 C 
BRANCH  19  20
ATOM     20  O   UNL     1       7.361   1.702  11.237  0.00  0.00    +0.000 OA
ATOM     21  H   UNL     1       7.423   1.498  10.287  0.00  0.00    +0.000 HD
ENDBRANCH  19  20
ENDBRANCH  18  19
ENDBRANCH  13  18
ENDBRANCH  12  16
ENDBRANCH   1  12
TORSDOF 6
ENDMDL
MODEL 7
REMARK VINA RESULT:      -6.8      1.050      1.126
REMARK  Name = 
REMARK  6 active torsions:
REMARK  status: ('A' for Active; 'I' for Inactive)
REMARK    1  A    between atoms: O_1  and  C_2
REMARK    2  A    between atoms: C_2  and  C_3
REMARK    3  A    between atoms: C_3  and  C_4
REMARK    4  A    between atoms: N_7  and  C_8
REMARK    5  A    between atoms: C_8  and  C_9
REMARK    6  A    between atoms: C_12  and  C_13
REMARK                            x       y       z     vdW  Elec       q    Type
REMARK                         _______ _______ _______ _____ _____    ______ ____
ROOT
ATOM      1  C   UNL     1       5.984   4.678  17.512  0.00  0.00    +0.000 A 
ATOM      2  C   UNL     1       5.908   5.371  18.706  0.00  0.00    +0.000 A 
ATOM      3  S   UNL     1       4.298   5.369  19.292  0.00  0.00    +0.000 S 
ATOM      4  C   UNL     1       3.807   4.452  17.922  0.00  0.00    +0.000 A 
ATOM      5  N   UNL     1       4.774   4.162  17.077  0.00  0.00    +0.000 NA
ENDROOT
BRANCH   4   6
ATOM      6  C   UNL     1       2.365   4.034  17.744  0.00  0.00    +0.000 C 
ATOM      7  C   UNL     1       2.222   2.504  17.759  0.00  0.00    +0.000 C 
ATOM      8  C   UNL     1       2.400   1.891  19.149  0.00  0.00    +0.000 C 
ATOM      9  C   UNL     1       1.500   2.551  20.189  0.00  0.00    +0.000 C 
ATOM     10  C   UNL     1       1.616   4.073  20.198  0.00  0.00    +0.000 C 
ATOM     11  C   UNL     1       1.454   4.676  18.802  0.00  0.00    +0.000 C 
ENDBRANCH   4   6
BRANCH   1  12
ATOM     12  C   UNL     1       7.204   4.388  16.706  0.00  0.00    +0.000 C 
BRANCH  12  16
ATOM     13  C   UNL     1       6.278   4.043  13.225  0.00  0.00    +0.000 A 
ATOM     14  C   UNL     1       7.302   5.017  13.263  0.00  0.00    +0.000 A 
ATOM     15  N   UNL     1       7.704   5.299  14.505  0.00  0.00    +0.000 NA
ATOM     16  N   UNL     1       6.942   4.496  15.278  0.00  0.00    +0.000 N 
ATOM     17  C   UNL     1       6.052   3.750  14.553  0.00  0.00    +0.000 A 
BRANCH  13  18
ATOM     18  C   UNL     1       5.625   3.419  12.041  0.00  0.00    +0.000 C 
BRANCH  18  19
ATOM     19  C   UNL     1       5.931   1.937  11.861  0.00  0.00    +0.000 C 
BRANCH  19  20
ATOM     20  O   UNL     1       7.242   1.800  11.320  0.00  0.00    +0.000 OA
ATOM     21  H   UNL     1       7.528   0.885  11.492  0.00  0.00    +0.000 HD
ENDBRANCH  19  20
ENDBRANCH  18  19
ENDBRANCH  13  18
ENDBRANCH  12  16
ENDBRANCH   1  12
TORSDOF 6
ENDMDL
MODEL 8
REMARK VINA RESULT:      -6.5      1.283      1.459
REMARK  Name = 
REMARK  6 active torsions:
REMARK  status: ('A' for Active; 'I' for Inactive)
REMARK    1  A    between atoms: O_1  and  C_2
REMARK    2  A    between atoms: C_2  and  C_3
REMARK    3  A    between atoms: C_3  and  C_4
REMARK    4  A    between atoms: N_7  and  C_8
REMARK    5  A    between atoms: C_8  and  C_9
REMARK    6  A    between atoms: C_12  and  C_13
REMARK                            x       y       z     vdW  Elec       q    Type
REMARK                         _______ _______ _______ _____ _____    ______ ____
ROOT
ATOM      1  C   UNL     1       5.379   5.619  17.929  0.00  0.00    +0.000 A 
ATOM      2  C   UNL     1       5.825   4.525  18.646  0.00  0.00    +0.000 A 
ATOM      3  S   UNL     1       4.554   3.877  19.595  0.00  0.00    +0.000 S 
ATOM      4  C   UNL     1       3.496   5.094  18.996  0.00  0.00    +0.000 A 
ATOM      5  N   UNL     1       4.046   5.932  18.143  0.00  0.00    +0.000 NA
ENDROOT
BRANCH   4   6
ATOM      6  C   UNL     1       2.053   5.156  19.442  0.00  0.00    +0.000 C 
ATOM      7  C   UNL     1       1.201   4.098  18.723  0.00  0.00    +0.000 C 
ATOM      8  C   UNL     1       1.462   2.673  19.212  0.00  0.00    +0.000 C 
ATOM      9  C   UNL     1       1.347   2.553  20.729  0.00  0.00    +0.000 C 
ATOM     10  C   UNL     1       2.180   3.592  21.473  0.00  0.00    +0.000 C 
ATOM     11  C   UNL     1       1.924   5.013  20.967  0.00  0.00    +0.000 C 
ENDBRANCH   4   6
BRANCH   1  12
ATOM     12  C   UNL     1       6.142   6.430  16.939  0.00  0.00    +0.000 C 
BRANCH  12  16
ATOM     13  C   UNL     1       5.984   4.401  13.947  0.00  0.00    +0.000 A 
ATOM     14  C   UNL     1       7.356   4.641  14.184  0.00  0.00    +0.000 A 
ATOM     15  N   UNL     1       7.570   5.440  15.234  0.00  0.00    +0.000 NA
ATOM     16  N   UNL     1       6.327   5.713  15.685  0.00  0.00    +0.000 N 
ATOM     17  C   UNL     1       5.347   5.135  14.924  0.00  0.00    +0.000 A 
BRANCH  13  18
ATOM     18  C   UNL     1       5.352   3.518  12.927  0.00  0.00    +0.000 C 
BRANCH  18  19
ATOM     19  C   UNL     1       6.326   2.939  11.907  0.00  0.00    +0.000 C 
BRANCH  19  20
ATOM     20  O   UNL     1       5.882   1.638  11.534  0.00  0.00    +0.000 OA
ATOM     21  H   UNL     1       6.497   1.310  10.854  0.00  0.00    +0.000 HD
ENDBRANCH  19  20
ENDBRANCH  18  19
ENDBRANCH  13  18
ENDBRANCH  12  16
ENDBRANCH   1  12
TORSDOF 6
ENDMDL
MODEL 9
REMARK VINA RESULT:      -6.5      1.222      1.369
REMARK  Name = 
REMARK  6 active torsions:
REMARK  status: ('A' for Active; 'I' for Inactive)
REMARK    1  A    between atoms: O_1  and  C_2
REMARK    2  A    between atoms: C_2  and  C_3
REMARK    3  A    between atoms: C_3  and  C_4
REMARK    4  A    between atoms: N_7  and  C_8
REMARK    5  A    between atoms: C_8  and  C_9
REMARK    6  A    between atoms: C_12  and  C_13
REMARK                            x       y       z     vdW  Elec       q    Type
REMARK                         _______ _______ _______ _____ _____    ______ ____
ROOT
ATOM      1  C   UNL     1       4.413   4.835  17.052  0.00  0.00    +0.000 A 
ATOM      2  C   UNL     1       4.654   3.476  16.963  0.00  0.00    +0.000 A 
ATOM      3  S   UNL     1       3.387   2.597  17.710  0.00  0.00    +0.000 S 
ATOM      4  C   UNL     1       2.604   4.077  18.106  0.00  0.00    +0.000 A 
ATOM      5  N   UNL     1       3.238   5.160  17.710  0.00  0.00    +0.000 NA
ENDROOT
BRANCH   4   6
ATOM      6  C   UNL     1       1.288   4.083  18.852  0.00  0.00    +0.000 C 
ATOM      7  C   UNL     1       0.903   2.669  19.315  0.00  0.00    +0.000 C 
ATOM      8  C   UNL     1       1.750   2.159  20.481  0.00  0.00    +0.000 C 
ATOM      9  C   UNL     1       1.779   3.144  21.646  0.00  0.00    +0.000 C 
ATOM     10  C   UNL     1       2.157   4.560  21.220  0.00  0.00    +0.000 C 
ATOM     11  C   UNL     1       1.316   5.056  20.042  0.00  0.00    +0.000 C 
ENDBRANCH   4   6
BRANCH   1  12
ATOM     12  C   UNL     1       5.228   5.942  16.478  0.00  0.00    +0.000 C 
BRANCH  12  16
ATOM     13  C   UNL     1       6.609   4.443  13.488  0.00  0.00    +0.000 A 
ATOM     14  C   UNL     1       7.709   4.961  14.210  0.00  0.00    +0.000 A 
ATOM     15  N   UNL     1       7.343   5.608  15.320  0.00  0.00    +0.000 NA
ATOM     16  N   UNL     1       5.997   5.501  15.323  0.00  0.00    +0.000 N 
ATOM     17  C   UNL     1       5.514   4.838  14.227  0.00  0.00    +0.000 A 
BRANCH  13  18
ATOM     18  C   UNL     1       6.611   3.611  12.253  0.00  0.00    +0.000 C 
BRANCH  18  19
ATOM     19  C   UNL     1       5.287   2.913  11.963  0.00  0.00    +0.000 C 
BRANCH  19  20
ATOM     20  O   UNL     1       5.555   1.593  11.499  0.00  0.00    +0.000 OA
ATOM     21  H   UNL     1       4.713   1.105  11.526  0.00  0.00    +0.000 HD
ENDBRANCH  19  20
ENDBRANCH  18  19
ENDBRANCH  13  18
ENDBRANCH  12  16
ENDBRANCH   1  12
TORSDOF 6
ENDMDL
