MODEL 1
REMARK VINA RESULT:      -7.5      0.000      0.000
REMARK  Name = 
REMARK  6 active torsions:
REMARK  status: ('A' for Active; 'I' for Inactive)
REMARK    1  A    between atoms: C_1  and  C_2
REMARK    2  A    between atoms: C_2  and  C_3
REMARK    3  A    between atoms: N_7  and  C_8
REMARK    4  A    between atoms: C_8  and  C_9
REMARK    5  A    between atoms: C_11  and  C_12
REMARK    6  A    between atoms: C_11  and  C_18
REMARK                            x       y       z     vdW  Elec       q    Type
REMARK                         _______ _______ _______ _____ _____    ______ ____
ROOT
ATOM      1  C   UNL     1       3.629   5.907  18.637  0.00  0.00    +0.000 C 
ATOM      2  C   UNL     1       4.212   6.244  17.248  0.00  0.00    +0.000 C 
ATOM      3  C   UNL     1       5.690   5.761  17.256  0.00  0.00    +0.000 C 
ATOM      4  C   UNL     1       5.578   4.767  18.384  0.00  0.00    +0.000 C 
ATOM      5  O   UNL     1       6.494   4.052  18.760  0.00  0.00    +0.000 OA
ATOM      6  O   UNL     1       4.436   4.885  19.096  0.00  0.00    +0.000 OA
ENDROOT
BRANCH   3   7
ATOM      7  C   UNL     1       6.761   6.817  17.669  0.00  0.00    +0.000 A 
ATOM      8  C   UNL     1       6.737   8.127  17.136  0.00  0.00    +0.000 A 
ATOM      9  C   UNL     1       7.655   9.101  17.555  0.00  0.00    +0.000 A 
ATOM     10  C   UNL     1       8.627   8.792  18.505  0.00  0.00    +0.000 A 
ATOM     11  C   UNL     1       8.681   7.513  19.043  0.00  0.00    +0.000 A 
ATOM     12  C   UNL     1       7.762   6.540  18.643  0.00  0.00    +0.000 A 
ENDBRANCH   3   7
BRANCH   3  13
ATOM     13  C   UNL     1       6.014   5.149  15.872  0.00  0.00    +0.000 A 
ATOM     14  C   UNL     1       5.032   4.373  15.212  0.00  0.00    +0.000 A 
ATOM     15  C   UNL     1       5.269   3.842  13.940  0.00  0.00    +0.000 A 
ATOM     16  C   UNL     1       6.490   4.066  13.304  0.00  0.00    +0.000 A 
ATOM     17  C   UNL     1       7.480   4.811  13.944  0.00  0.00    +0.000 A 
ATOM     18  C   UNL     1       7.251   5.345  15.217  0.00  0.00    +0.000 A 
ENDBRANCH   3  13
BRANCH   1  19
ATOM     19  C   UNL     1       2.136   5.454  18.579  0.00  0.00    +0.000 C 
BRANCH  19  24
ATOM     20  C   UNL     1       1.916   2.979  19.191  0.00  0.00    +0.000 A 
ATOM     21  N   UNL     1       1.554   2.225  20.251  0.00  0.00    +0.000 NA
ATOM     22  C   UNL     1       1.194   3.100  21.206  0.00  0.00    +0.000 A 
ATOM     23  C   UNL     1       1.352   4.377  20.730  0.00  0.00    +0.000 A 
ATOM     24  N   UNL     1       1.812   4.315  19.459  0.00  0.00    +0.000 N 
BRANCH  20  26
ATOM     25  C   UNL     1       3.671   1.636  17.812  0.00  0.00    +0.000 C 
ATOM     26  C   UNL     1       2.300   2.302  17.888  0.00  0.00    +0.000 C 
ENDBRANCH  20  26
ENDBRANCH  19  24
ENDBRANCH   1  19
TORSDOF 5
ENDMDL
MODEL 2
REMARK VINA RESULT:      -7.3      2.032      3.728
REMARK  Name = 
REMARK  6 active torsions:
REMARK  status: ('A' for Active; 'I' for Inactive)
REMARK    1  A    between atoms: C_1  and  C_2
REMARK    2  A    between atoms: C_2  and  C_3
REMARK    3  A    between atoms: N_7  and  C_8
REMARK    4  A    between atoms: C_8  and  C_9
REMARK    5  A    between atoms: C_11  and  C_12
REMARK    6  A    between atoms: C_11  and  C_18
REMARK                            x       y       z     vdW  Elec       q    Type
REMARK                         _______ _______ _______ _____ _____    ______ ____
ROOT
ATOM      1  C   UNL     1       4.709   3.141  18.575  0.00  0.00    +0.000 C 
ATOM      2  C   UNL     1       4.373   4.464  19.297  0.00  0.00    +0.000 C 
ATOM      3  C   UNL     1       4.608   5.605  18.268  0.00  0.00    +0.000 C 
ATOM      4  C   UNL     1       4.505   4.778  17.012  0.00  0.00    +0.000 C 
ATOM      5  O   UNL     1       4.569   5.237  15.882  0.00  0.00    +0.000 OA
ATOM      6  O   UNL     1       4.557   3.446  17.237  0.00  0.00    +0.000 OA
ENDROOT
BRANCH   3   7
ATOM      7  C   UNL     1       6.021   6.265  18.278  0.00  0.00    +0.000 A 
ATOM      8  C   UNL     1       6.313   7.376  17.452  0.00  0.00    +0.000 A 
ATOM      9  C   UNL     1       7.560   8.016  17.508  0.00  0.00    +0.000 A 
ATOM     10  C   UNL     1       8.550   7.561  18.376  0.00  0.00    +0.000 A 
ATOM     11  C   UNL     1       8.297   6.468  19.196  0.00  0.00    +0.000 A 
ATOM     12  C   UNL     1       7.053   5.833  19.158  0.00  0.00    +0.000 A 
ENDBRANCH   3   7
BRANCH   3  13
ATOM     13  C   UNL     1       3.495   6.665  18.448  0.00  0.00    +0.000 A 
ATOM     14  C   UNL     1       2.762   6.700  19.657  0.00  0.00    +0.000 A 
ATOM     15  C   UNL     1       1.781   7.672  19.878  0.00  0.00    +0.000 A 
ATOM     16  C   UNL     1       1.505   8.622  18.895  0.00  0.00    +0.000 A 
ATOM     17  C   UNL     1       2.200   8.595  17.687  0.00  0.00    +0.000 A 
ATOM     18  C   UNL     1       3.183   7.626  17.459  0.00  0.00    +0.000 A 
ENDBRANCH   3  13
BRANCH   1  19
ATOM     19  C   UNL     1       3.769   1.965  18.987  0.00  0.00    +0.000 C 
BRANCH  19  24
ATOM     20  C   UNL     1       1.460   2.673  19.835  0.00  0.00    +0.000 A 
ATOM     21  N   UNL     1       0.838   2.899  21.012  0.00  0.00    +0.000 NA
ATOM     22  C   UNL     1       1.774   2.699  21.955  0.00  0.00    +0.000 A 
ATOM     23  C   UNL     1       2.953   2.341  21.353  0.00  0.00    +0.000 A 
ATOM     24  N   UNL     1       2.768   2.316  20.012  0.00  0.00    +0.000 N 
BRANCH  20  26
ATOM     25  C   UNL     1       1.167   4.048  17.641  0.00  0.00    +0.000 C 
ATOM     26  C   UNL     1       0.709   2.899  18.536  0.00  0.00    +0.000 C 
ENDBRANCH  20  26
ENDBRANCH  19  24
ENDBRANCH   1  19
TORSDOF 5
ENDMDL
MODEL 3
REMARK VINA RESULT:      -7.1      5.285      7.990
REMARK  Name = 
REMARK  6 active torsions:
REMARK  status: ('A' for Active; 'I' for Inactive)
REMARK    1  A    between atoms: C_1  and  C_2
REMARK    2  A    between atoms: C_2  and  C_3
REMARK    3  A    between atoms: N_7  and  C_8
REMARK    4  A    between atoms: C_8  and  C_9
REMARK    5  A    between atoms: C_11  and  C_12
REMARK    6  A    between atoms: C_11  and  C_18
REMARK                            x       y       z     vdW  Elec       q    Type
REMARK                         _______ _______ _______ _____ _____    ______ ____
ROOT
ATOM      1  C   UNL     1       1.909   8.182  18.258  0.00  0.00    +0.000 C 
ATOM      2  C   UNL     1       1.876   9.666  17.833  0.00  0.00    +0.000 C 
ATOM      3  C   UNL     1       0.974  10.404  18.861  0.00  0.00    +0.000 C 
ATOM      4  C   UNL     1       1.075   9.403  19.983  0.00  0.00    +0.000 C 
ATOM      5  O   UNL     1       0.563   9.552  21.083  0.00  0.00    +0.000 OA
ATOM      6  O   UNL     1       1.597   8.216  19.602  0.00  0.00    +0.000 OA
ENDROOT
BRANCH   3   7
ATOM      7  C   UNL     1      -0.535  10.538  18.488  0.00  0.00    +0.000 A 
ATOM      8  C   UNL     1      -1.356  11.509  19.107  0.00  0.00    +0.000 A 
ATOM      9  C   UNL     1      -2.695  11.679  18.725  0.00  0.00    +0.000 A 
ATOM     10  C   UNL     1      -3.253  10.880  17.730  0.00  0.00    +0.000 A 
ATOM     11  C   UNL     1      -2.475   9.913  17.106  0.00  0.00    +0.000 A 
ATOM     12  C   UNL     1      -1.136   9.746  17.469  0.00  0.00    +0.000 A 
ENDBRANCH   3   7
BRANCH   3  13
ATOM     13  C   UNL     1       1.599  11.788  19.159  0.00  0.00    +0.000 A 
ATOM     14  C   UNL     1       2.267  12.483  18.123  0.00  0.00    +0.000 A 
ATOM     15  C   UNL     1       2.805  13.755  18.338  0.00  0.00    +0.000 A 
ATOM     16  C   UNL     1       2.695  14.358  19.591  0.00  0.00    +0.000 A 
ATOM     17  C   UNL     1       2.060  13.684  20.633  0.00  0.00    +0.000 A 
ATOM     18  C   UNL     1       1.519  12.410  20.426  0.00  0.00    +0.000 A 
ENDBRANCH   3  13
BRANCH   1  19
ATOM     19  C   UNL     1       3.300   7.512  18.027  0.00  0.00    +0.000 C 
BRANCH  19  24
ATOM     20  C   UNL     1       4.133   5.283  17.084  0.00  0.00    +0.000 A 
ATOM     21  N   UNL     1       3.761   3.985  17.070  0.00  0.00    +0.000 NA
ATOM     22  C   UNL     1       2.596   3.941  17.741  0.00  0.00    +0.000 A 
ATOM     23  C   UNL     1       2.274   5.203  18.170  0.00  0.00    +0.000 A 
ATOM     24  N   UNL     1       3.240   6.061  17.766  0.00  0.00    +0.000 N 
BRANCH  20  26
ATOM     25  C   UNL     1       5.697   4.995  15.020  0.00  0.00    +0.000 C 
ATOM     26  C   UNL     1       5.378   5.712  16.329  0.00  0.00    +0.000 C 
ENDBRANCH  20  26
ENDBRANCH  19  24
ENDBRANCH   1  19
TORSDOF 5
ENDMDL
MODEL 4
REMARK VINA RESULT:      -7.1      3.041      6.931
REMARK  Name = 
REMARK  6 active torsions:
REMARK  status: ('A' for Active; 'I' for Inactive)
REMARK    1  A    between atoms: C_1  and  C_2
REMARK    2  A    between atoms: C_2  and  C_3
REMARK    3  A    between atoms: N_7  and  C_8
REMARK    4  A    between atoms: C_8  and  C_9
REMARK    5  A    between atoms: C_11  and  C_12
REMARK    6  A    between atoms: C_11  and  C_18
REMARK                            x       y       z     vdW  Elec       q    Type
REMARK                         _______ _______ _______ _____ _____    ______ ____
ROOT
ATOM      1  C   UNL     1       5.651   4.606  16.575  0.00  0.00    +0.000 C 
ATOM      2  C   UNL     1       4.256   5.263  16.638  0.00  0.00    +0.000 C 
ATOM      3  C   UNL     1       3.850   5.306  18.138  0.00  0.00    +0.000 C 
ATOM      4  C   UNL     1       5.231   5.190  18.731  0.00  0.00    +0.000 C 
ATOM      5  O   UNL     1       5.468   5.230  19.928  0.00  0.00    +0.000 OA
ATOM      6  O   UNL     1       6.172   4.814  17.837  0.00  0.00    +0.000 OA
ENDROOT
BRANCH   3   7
ATOM      7  C   UNL     1       3.013   4.099  18.662  0.00  0.00    +0.000 A 
ATOM      8  C   UNL     1       3.427   3.362  19.797  0.00  0.00    +0.000 A 
ATOM      9  C   UNL     1       2.643   2.320  20.314  0.00  0.00    +0.000 A 
ATOM     10  C   UNL     1       1.436   1.977  19.708  0.00  0.00    +0.000 A 
ATOM     11  C   UNL     1       1.004   2.677  18.589  0.00  0.00    +0.000 A 
ATOM     12  C   UNL     1       1.771   3.726  18.075  0.00  0.00    +0.000 A 
ENDBRANCH   3   7
BRANCH   3  13
ATOM     13  C   UNL     1       3.128   6.647  18.413  0.00  0.00    +0.000 A 
ATOM     14  C   UNL     1       3.133   7.652  17.417  0.00  0.00    +0.000 A 
ATOM     15  C   UNL     1       2.453   8.859  17.608  0.00  0.00    +0.000 A 
ATOM     16  C   UNL     1       1.763   9.092  18.798  0.00  0.00    +0.000 A 
ATOM     17  C   UNL     1       1.762   8.125  19.802  0.00  0.00    +0.000 A 
ATOM     18  C   UNL     1       2.440   6.915  19.618  0.00  0.00    +0.000 A 
ENDBRANCH   3  13
BRANCH   1  19
ATOM     19  C   UNL     1       6.574   5.232  15.483  0.00  0.00    +0.000 C 
BRANCH  19  24
ATOM     20  C   UNL     1       7.274   4.770  13.065  0.00  0.00    +0.000 A 
ATOM     21  N   UNL     1       6.910   3.972  12.038  0.00  0.00    +0.000 NA
ATOM     22  C   UNL     1       5.854   3.271  12.488  0.00  0.00    +0.000 A 
ATOM     23  C   UNL     1       5.591   3.634  13.784  0.00  0.00    +0.000 A 
ATOM     24  N   UNL     1       6.484   4.578  14.163  0.00  0.00    +0.000 N 
BRANCH  20  26
ATOM     25  C   UNL     1       8.411   6.578  11.572  0.00  0.00    +0.000 C 
ATOM     26  C   UNL     1       8.395   5.774  12.870  0.00  0.00    +0.000 C 
ENDBRANCH  20  26
ENDBRANCH  19  24
ENDBRANCH   1  19
TORSDOF 5
ENDMDL
MODEL 5
REMARK VINA RESULT:      -7.0      0.530      1.574
REMARK  Name = 
REMARK  6 active torsions:
REMARK  status: ('A' for Active; 'I' for Inactive)
REMARK    1  A    between atoms: C_1  and  C_2
REMARK    2  A    between atoms: C_2  and  C_3
REMARK    3  A    between atoms: N_7  and  C_8
REMARK    4  A    between atoms: C_8  and  C_9
REMARK    5  A    between atoms: C_11  and  C_12
REMARK    6  A    between atoms: C_11  and  C_18
REMARK                            x       y       z     vdW  Elec       q    Type
REMARK                         _______ _______ _______ _____ _____    ______ ____
ROOT
ATOM      1  C   UNL     1       3.749   6.064  18.707  0.00  0.00    +0.000 C 
ATOM      2  C   UNL     1       4.313   6.377  17.305  0.00  0.00    +0.000 C 
ATOM      3  C   UNL     1       5.799   5.920  17.310  0.00  0.00    +0.000 C 
ATOM      4  C   UNL     1       5.715   4.951  18.461  0.00  0.00    +0.000 C 
ATOM      5  O   UNL     1       6.647   4.261  18.846  0.00  0.00    +0.000 OA
ATOM      6  O   UNL     1       4.577   5.067  19.182  0.00  0.00    +0.000 OA
ENDROOT
BRANCH   3   7
ATOM      7  C   UNL     1       6.855   7.004  17.687  0.00  0.00    +0.000 A 
ATOM      8  C   UNL     1       6.807   8.298  17.119  0.00  0.00    +0.000 A 
ATOM      9  C   UNL     1       7.712   9.297  17.506  0.00  0.00    +0.000 A 
ATOM     10  C   UNL     1       8.694   9.030  18.458  0.00  0.00    +0.000 A 
ATOM     11  C   UNL     1       8.772   7.767  19.031  0.00  0.00    +0.000 A 
ATOM     12  C   UNL     1       7.866   6.770  18.662  0.00  0.00    +0.000 A 
ENDBRANCH   3   7
BRANCH   3  13
ATOM     13  C   UNL     1       6.121   5.281  15.937  0.00  0.00    +0.000 A 
ATOM     14  C   UNL     1       5.133   4.505  15.287  0.00  0.00    +0.000 A 
ATOM     15  C   UNL     1       5.367   3.950  14.025  0.00  0.00    +0.000 A 
ATOM     16  C   UNL     1       6.592   4.150  13.390  0.00  0.00    +0.000 A 
ATOM     17  C   UNL     1       7.589   4.895  14.020  0.00  0.00    +0.000 A 
ATOM     18  C   UNL     1       7.362   5.453  15.283  0.00  0.00    +0.000 A 
ENDBRANCH   3  13
BRANCH   1  19
ATOM     19  C   UNL     1       2.264   5.584  18.675  0.00  0.00    +0.000 C 
BRANCH  19  24
ATOM     20  C   UNL     1       1.690   3.261  19.583  0.00  0.00    +0.000 A 
ATOM     21  N   UNL     1       1.632   1.986  19.143  0.00  0.00    +0.000 NA
ATOM     22  C   UNL     1       2.031   2.033  17.860  0.00  0.00    +0.000 A 
ATOM     23  C   UNL     1       2.314   3.331  17.523  0.00  0.00    +0.000 A 
ATOM     24  N   UNL     1       2.099   4.119  18.602  0.00  0.00    +0.000 N 
BRANCH  20  26
ATOM     25  C   UNL     1       1.427   2.403  22.029  0.00  0.00    +0.000 C 
ATOM     26  C   UNL     1       1.387   3.564  21.039  0.00  0.00    +0.000 C 
ENDBRANCH  20  26
ENDBRANCH  19  24
ENDBRANCH   1  19
TORSDOF 5
ENDMDL
MODEL 6
REMARK VINA RESULT:      -6.9      5.338      8.006
REMARK  Name = 
REMARK  6 active torsions:
REMARK  status: ('A' for Active; 'I' for Inactive)
REMARK    1  A    between atoms: C_1  and  C_2
REMARK    2  A    between atoms: C_2  and  C_3
REMARK    3  A    between atoms: N_7  and  C_8
REMARK    4  A    between atoms: C_8  and  C_9
REMARK    5  A    between atoms: C_11  and  C_12
REMARK    6  A    between atoms: C_11  and  C_18
REMARK                            x       y       z     vdW  Elec       q    Type
REMARK                         _______ _______ _______ _____ _____    ______ ____
ROOT
ATOM      1  C   UNL     1       1.318   7.941  19.562  0.00  0.00    +0.000 C 
ATOM      2  C   UNL     1       1.575   9.244  18.774  0.00  0.00    +0.000 C 
ATOM      3  C   UNL     1       0.652  10.330  19.395  0.00  0.00    +0.000 C 
ATOM      4  C   UNL     1       0.431   9.674  20.735  0.00  0.00    +0.000 C 
ATOM      5  O   UNL     1      -0.211  10.176  21.645  0.00  0.00    +0.000 OA
ATOM      6  O   UNL     1       0.817   8.380  20.772  0.00  0.00    +0.000 OA
ENDROOT
BRANCH   3   7
ATOM      7  C   UNL     1      -0.746  10.514  18.728  0.00  0.00    +0.000 A 
ATOM      8  C   UNL     1      -1.660  11.483  19.205  0.00  0.00    +0.000 A 
ATOM      9  C   UNL     1      -2.889  11.700  18.566  0.00  0.00    +0.000 A 
ATOM     10  C   UNL     1      -3.246  10.951  17.447  0.00  0.00    +0.000 A 
ATOM     11  C   UNL     1      -2.373   9.988  16.957  0.00  0.00    +0.000 A 
ATOM     12  C   UNL     1      -1.139   9.774  17.578  0.00  0.00    +0.000 A 
ENDBRANCH   3   7
BRANCH   3  13
ATOM     13  C   UNL     1       1.429  11.667  19.441  0.00  0.00    +0.000 A 
ATOM     14  C   UNL     1       2.093  12.121  18.277  0.00  0.00    +0.000 A 
ATOM     15  C   UNL     1       2.767  13.346  18.263  0.00  0.00    +0.000 A 
ATOM     16  C   UNL     1       2.800  14.140  19.409  0.00  0.00    +0.000 A 
ATOM     17  C   UNL     1       2.170  13.703  20.574  0.00  0.00    +0.000 A 
ATOM     18  C   UNL     1       1.495  12.479  20.596  0.00  0.00    +0.000 A 
ENDBRANCH   3  13
BRANCH   1  19
ATOM     19  C   UNL     1       2.609   7.089  19.771  0.00  0.00    +0.000 C 
BRANCH  19  24
ATOM     20  C   UNL     1       1.975   4.656  19.293  0.00  0.00    +0.000 A 
ATOM     21  N   UNL     1       2.212   3.711  18.358  0.00  0.00    +0.000 NA
ATOM     22  C   UNL     1       3.052   4.283  17.478  0.00  0.00    +0.000 A 
ATOM     23  C   UNL     1       3.309   5.572  17.871  0.00  0.00    +0.000 A 
ATOM     24  N   UNL     1       2.631   5.822  19.015  0.00  0.00    +0.000 N 
BRANCH  20  26
ATOM     25  C   UNL     1       1.438   3.019  21.248  0.00  0.00    +0.000 C 
ATOM     26  C   UNL     1       1.124   4.314  20.503  0.00  0.00    +0.000 C 
ENDBRANCH  20  26
ENDBRANCH  19  24
ENDBRANCH   1  19
TORSDOF 5
ENDMDL
MODEL 7
REMARK VINA RESULT:      -6.9      3.271      5.710
REMARK  Name = 
REMARK  6 active torsions:
REMARK  status: ('A' for Active; 'I' for Inactive)
REMARK    1  A    between atoms: C_1  and  C_2
REMARK    2  A    between atoms: C_2  and  C_3
REMARK    3  A    between atoms: N_7  and  C_8
REMARK    4  A    between atoms: C_8  and  C_9
REMARK    5  A    between atoms: C_11  and  C_12
REMARK    6  A    between atoms: C_11  and  C_18
REMARK                            x       y       z     vdW  Elec       q    Type
REMARK                         _______ _______ _______ _____ _____    ______ ____
ROOT
ATOM      1  C   UNL     1       2.095   7.183  18.831  0.00  0.00    +0.000 C 
ATOM      2  C   UNL     1       3.538   6.652  18.963  0.00  0.00    +0.000 C 
ATOM      3  C   UNL     1       3.503   5.155  18.546  0.00  0.00    +0.000 C 
ATOM      4  C   UNL     1       2.228   5.193  17.741  0.00  0.00    +0.000 C 
ATOM      5  O   UNL     1       1.773   4.237  17.133  0.00  0.00    +0.000 OA
ATOM      6  O   UNL     1       1.506   6.320  17.928  0.00  0.00    +0.000 OA
ENDROOT
BRANCH   3   7
ATOM      7  C   UNL     1       3.299   4.121  19.696  0.00  0.00    +0.000 A 
ATOM      8  C   UNL     1       2.251   4.270  20.634  0.00  0.00    +0.000 A 
ATOM      9  C   UNL     1       2.021   3.308  21.628  0.00  0.00    +0.000 A 
ATOM     10  C   UNL     1       2.835   2.180  21.720  0.00  0.00    +0.000 A 
ATOM     11  C   UNL     1       3.876   2.007  20.818  0.00  0.00    +0.000 A 
ATOM     12  C   UNL     1       4.104   2.953  19.815  0.00  0.00    +0.000 A 
ENDBRANCH   3   7
BRANCH   3  13
ATOM     13  C   UNL     1       4.782   4.841  17.733  0.00  0.00    +0.000 A 
ATOM     14  C   UNL     1       4.661   4.238  16.459  0.00  0.00    +0.000 A 
ATOM     15  C   UNL     1       5.789   3.981  15.673  0.00  0.00    +0.000 A 
ATOM     16  C   UNL     1       7.059   4.313  16.143  0.00  0.00    +0.000 A 
ATOM     17  C   UNL     1       7.204   4.889  17.405  0.00  0.00    +0.000 A 
ATOM     18  C   UNL     1       6.081   5.148  18.197  0.00  0.00    +0.000 A 
ENDBRANCH   3  13
BRANCH   1  19
ATOM     19  C   UNL     1       2.030   8.655  18.316  0.00  0.00    +0.000 C 
BRANCH  19  24
ATOM     20  C   UNL     1       0.532   9.648  20.139  0.00  0.00    +0.000 A 
ATOM     21  N   UNL     1      -0.560  10.436  20.236  0.00  0.00    +0.000 NA
ATOM     22  C   UNL     1      -0.917  10.709  18.969  0.00  0.00    +0.000 A 
ATOM     23  C   UNL     1      -0.035  10.103  18.111  0.00  0.00    +0.000 A 
ATOM     24  N   UNL     1       0.889   9.432  18.837  0.00  0.00    +0.000 N 
BRANCH  20  26
ATOM     25  C   UNL     1       0.452   9.347  22.726  0.00  0.00    +0.000 C 
ATOM     26  C   UNL     1       1.154   9.072  21.398  0.00  0.00    +0.000 C 
ENDBRANCH  20  26
ENDBRANCH  19  24
ENDBRANCH   1  19
TORSDOF 5
ENDMDL
MODEL 8
REMARK VINA RESULT:      -6.9      5.283      7.969
REMARK  Name = 
REMARK  6 active torsions:
REMARK  status: ('A' for Active; 'I' for Inactive)
REMARK    1  A    between atoms: C_1  and  C_2
REMARK    2  A    between atoms: C_2  and  C_3
REMARK    3  A    between atoms: N_7  and  C_8
REMARK    4  A    between atoms: C_8  and  C_9
REMARK    5  A    between atoms: C_11  and  C_12
REMARK    6  A    between atoms: C_11  and  C_18
REMARK                            x       y       z     vdW  Elec       q    Type
REMARK                         _______ _______ _______ _____ _____    ______ ____
ROOT
ATOM      1  C   UNL     1       1.872   8.211  18.298  0.00  0.00    +0.000 C 
ATOM      2  C   UNL     1       1.865   9.679  17.822  0.00  0.00    +0.000 C 
ATOM      3  C   UNL     1       0.974  10.469  18.822  0.00  0.00    +0.000 C 
ATOM      4  C   UNL     1       1.057   9.505  19.979  0.00  0.00    +0.000 C 
ATOM      5  O   UNL     1       0.547   9.701  21.071  0.00  0.00    +0.000 OA
ATOM      6  O   UNL     1       1.559   8.297  19.640  0.00  0.00    +0.000 OA
ENDROOT
BRANCH   3   7
ATOM      7  C   UNL     1      -0.531  10.615  18.442  0.00  0.00    +0.000 A 
ATOM      8  C   UNL     1      -1.134   9.747  17.502  0.00  0.00    +0.000 A 
ATOM      9  C   UNL     1      -2.503   9.830  17.208  0.00  0.00    +0.000 A 
ATOM     10  C   UNL     1      -3.302  10.785  17.832  0.00  0.00    +0.000 A 
ATOM     11  C   UNL     1      -2.740  11.657  18.756  0.00  0.00    +0.000 A 
ATOM     12  C   UNL     1      -1.380  11.573  19.066  0.00  0.00    +0.000 A 
ENDBRANCH   3   7
BRANCH   3  13
ATOM     13  C   UNL     1       1.624  11.851  19.073  0.00  0.00    +0.000 A 
ATOM     14  C   UNL     1       1.535  12.434  20.359  0.00  0.00    +0.000 A 
ATOM     15  C   UNL     1       2.149  13.659  20.639  0.00  0.00    +0.000 A 
ATOM     16  C   UNL     1       2.855  14.331  19.642  0.00  0.00    +0.000 A 
ATOM     17  C   UNL     1       2.939  13.786  18.361  0.00  0.00    +0.000 A 
ATOM     18  C   UNL     1       2.327  12.561  18.073  0.00  0.00    +0.000 A 
ENDBRANCH   3  13
BRANCH   1  19
ATOM     19  C   UNL     1       3.250   7.509  18.093  0.00  0.00    +0.000 C 
BRANCH  19  24
ATOM     20  C   UNL     1       4.042   5.263  17.156  0.00  0.00    +0.000 A 
ATOM     21  N   UNL     1       3.644   3.972  17.143  0.00  0.00    +0.000 NA
ATOM     22  C   UNL     1       2.477   3.952  17.811  0.00  0.00    +0.000 A 
ATOM     23  C   UNL     1       2.179   5.221  18.238  0.00  0.00    +0.000 A 
ATOM     24  N   UNL     1       3.162   6.059  17.834  0.00  0.00    +0.000 N 
BRANCH  20  26
ATOM     25  C   UNL     1       6.316   4.574  16.087  0.00  0.00    +0.000 C 
ATOM     26  C   UNL     1       5.297   5.665  16.403  0.00  0.00    +0.000 C 
ENDBRANCH  20  26
ENDBRANCH  19  24
ENDBRANCH   1  19
TORSDOF 5
ENDMDL
MODEL 9
REMARK VINA RESULT:      -6.9      5.754      8.349
REMARK  Name = 
REMARK  6 active torsions:
REMARK  status: ('A' for Active; 'I' for Inactive)
REMARK    1  A    between atoms: C_1  and  C_2
REMARK    2  A    between atoms: C_2  and  C_3
REMARK    3  A    between atoms: N_7  and  C_8
REMARK    4  A    between atoms: C_8  and  C_9
REMARK    5  A    between atoms: C_11  and  C_12
REMARK    6  A    between atoms: C_11  and  C_18
REMARK                            x       y       z     vdW  Elec       q    Type
REMARK                         _______ _______ _______ _____ _____    ______ ____
ROOT
ATOM      1  C   UNL     1       1.853   9.144  18.661  0.00  0.00    +0.000 C 
ATOM      2  C   UNL     1       0.318   8.976  18.674  0.00  0.00    +0.000 C 
ATOM      3  C   UNL     1      -0.281  10.375  18.994  0.00  0.00    +0.000 C 
ATOM      4  C   UNL     1       0.906  11.209  18.582  0.00  0.00    +0.000 C 
ATOM      5  O   UNL     1       0.921  12.430  18.593  0.00  0.00    +0.000 OA
ATOM      6  O   UNL     1       2.036  10.489  18.407  0.00  0.00    +0.000 OA
ENDROOT
BRANCH   3   7
ATOM      7  C   UNL     1      -0.566  10.677  20.497  0.00  0.00    +0.000 A 
ATOM      8  C   UNL     1      -1.121  11.915  20.899  0.00  0.00    +0.000 A 
ATOM      9  C   UNL     1      -1.443  12.166  22.241  0.00  0.00    +0.000 A 
ATOM     10  C   UNL     1      -1.211  11.198  23.216  0.00  0.00    +0.000 A 
ATOM     11  C   UNL     1      -0.663   9.975  22.855  0.00  0.00    +0.000 A 
ATOM     12  C   UNL     1      -0.351   9.710  21.519  0.00  0.00    +0.000 A 
ENDBRANCH   3   7
BRANCH   3  13
ATOM     13  C   UNL     1      -1.552  10.573  18.133  0.00  0.00    +0.000 A 
ATOM     14  C   UNL     1      -1.713   9.810  16.953  0.00  0.00    +0.000 A 
ATOM     15  C   UNL     1      -2.868   9.926  16.173  0.00  0.00    +0.000 A 
ATOM     16  C   UNL     1      -3.881  10.808  16.549  0.00  0.00    +0.000 A 
ATOM     17  C   UNL     1      -3.735  11.585  17.697  0.00  0.00    +0.000 A 
ATOM     18  C   UNL     1      -2.582  11.476  18.482  0.00  0.00    +0.000 A 
ENDBRANCH   3  13
BRANCH   1  19
ATOM     19  C   UNL     1       2.554   8.273  17.572  0.00  0.00    +0.000 C 
BRANCH  19  24
ATOM     20  C   UNL     1       4.318   6.419  17.558  0.00  0.00    +0.000 A 
ATOM     21  N   UNL     1       4.718   5.393  18.340  0.00  0.00    +0.000 NA
ATOM     22  C   UNL     1       3.880   5.399  19.391  0.00  0.00    +0.000 A 
ATOM     23  C   UNL     1       2.989   6.433  19.253  0.00  0.00    +0.000 A 
ATOM     24  N   UNL     1       3.258   7.089  18.100  0.00  0.00    +0.000 N 
BRANCH  20  26
ATOM     25  C   UNL     1       5.495   5.426  15.456  0.00  0.00    +0.000 C 
ATOM     26  C   UNL     1       5.000   6.651  16.222  0.00  0.00    +0.000 C 
ENDBRANCH  20  26
ENDBRANCH  19  24
ENDBRANCH   1  19
TORSDOF 5
ENDMDL
