MODEL 1
REMARK VINA RESULT:      -7.1      0.000      0.000
REMARK  Name = 
REMARK  8 active torsions:
REMARK  status: ('A' for Active; 'I' for Inactive)
REMARK    1  A    between atoms: C_1  and  C_2
REMARK    2  A    between atoms: C_7  and  N_8
REMARK    3  A    between atoms: N_12  and  S_13
REMARK    4  A    between atoms: S_13  and  C_16
REMARK    5  A    between atoms: C_23  and  C_24
REMARK    6  A    between atoms: C_23  and  C_25
REMARK    7  A    between atoms: N_27  and  C_28
REMARK    8  A    between atoms: C_28  and  C_29
REMARK                            x       y       z     vdW  Elec       q    Type
REMARK                         _______ _______ _______ _____ _____    ______ ____
ROOT
ATOM      1  N   UNL     1       0.624  13.272  20.657  0.00  0.00    +0.000 N 
ATOM      2  C   UNL     1       1.539  14.108  21.319  0.00  0.00    +0.000 C 
ATOM      3  O   UNL     1       1.334  14.677  22.392  0.00  0.00    +0.000 OA
ATOM      4  C   UNL     1       2.945  14.039  20.761  0.00  0.00    +0.000 C 
ATOM      5  N   UNL     1       3.041  14.021  19.291  0.00  0.00    +0.000 NA
ATOM      6  C   UNL     1       2.076  13.051  18.673  0.00  0.00    +0.000 C 
ATOM      7  C   UNL     1       0.604  13.196  19.152  0.00  0.00    +0.000 C 
ATOM      8  C   UNL     1      -0.021  14.496  18.588  0.00  0.00    +0.000 C 
ENDROOT
BRANCH   1  15
ATOM      9  C   UNL     1       0.899  10.554  21.689  0.00  0.00    +0.000 C 
ATOM     10  C   UNL     1      -0.306  11.416  21.944  0.00  0.00    +0.000 A 
ATOM     11  C   UNL     1      -1.276  10.950  22.848  0.00  0.00    +0.000 A 
ATOM     12  C   UNL     1      -2.323  11.775  23.260  0.00  0.00    +0.000 A 
ATOM     13  C   UNL     1      -2.414  13.078  22.780  0.00  0.00    +0.000 A 
ATOM     14  C   UNL     1      -1.471  13.552  21.869  0.00  0.00    +0.000 A 
ATOM     15  C   UNL     1      -0.427  12.725  21.434  0.00  0.00    +0.000 A 
ENDBRANCH   1  15
BRANCH   7  16
ATOM     16  C   UNL     1      -0.344  12.080  18.517  0.00  0.00    +0.000 C 
ATOM     17  O   UNL     1       0.013  10.903  18.425  0.00  0.00    +0.000 OA
ATOM     18  N   UNL     1      -1.647  12.410  18.194  0.00  0.00    +0.000 N 
ATOM     19  H   UNL     1      -2.024  13.331  18.348  0.00  0.00    +0.000 HD
BRANCH  18  20
ATOM     20  C   UNL     1      -2.623  11.396  17.806  0.00  0.00    +0.000 C 
BRANCH  20  21
ATOM     21  C   UNL     1      -3.991  11.765  18.329  0.00  0.00    +0.000 A 
ATOM     22  C   UNL     1      -4.139  12.259  19.636  0.00  0.00    +0.000 A 
ATOM     23  C   UNL     1      -5.411  12.444  20.180  0.00  0.00    +0.000 A 
ATOM     24  C   UNL     1      -6.533  12.138  19.420  0.00  0.00    +0.000 A 
ATOM     25  F   UNL     1      -7.751  12.246  19.966  0.00  0.00    +0.000 F 
ATOM     26  C   UNL     1      -6.408  11.704  18.105  0.00  0.00    +0.000 A 
ATOM     27  C   UNL     1      -5.139  11.529  17.554  0.00  0.00    +0.000 A 
ENDBRANCH  20  21
ENDBRANCH  18  20
ENDBRANCH   7  16
BRANCH   5  28
ATOM     28  S   UNL     1       3.236  15.544  18.560  0.00  0.00    +0.000 S 
ATOM     29  O   UNL     1       2.790  15.423  17.187  0.00  0.00    +0.000 OA
ATOM     30  O   UNL     1       2.684  16.538  19.447  0.00  0.00    +0.000 OA
BRANCH  28  31
ATOM     31  C   UNL     1       4.997  15.767  18.528  0.00  0.00    +0.000 A 
ATOM     32  C   UNL     1       5.806  14.745  18.029  0.00  0.00    +0.000 A 
ATOM     33  C   UNL     1       7.186  14.937  17.962  0.00  0.00    +0.000 A 
ATOM     34  C   UNL     1       7.749  16.145  18.379  0.00  0.00    +0.000 A 
ATOM     35  C   UNL     1       6.935  17.167  18.874  0.00  0.00    +0.000 A 
ATOM     36  C   UNL     1       5.550  16.978  18.949  0.00  0.00    +0.000 A 
ENDBRANCH  28  31
ENDBRANCH   5  28
TORSDOF 6
ENDMDL
MODEL 2
REMARK VINA RESULT:      -6.7      3.945      8.320
REMARK  Name = 
REMARK  8 active torsions:
REMARK  status: ('A' for Active; 'I' for Inactive)
REMARK    1  A    between atoms: C_1  and  C_2
REMARK    2  A    between atoms: C_7  and  N_8
REMARK    3  A    between atoms: N_12  and  S_13
REMARK    4  A    between atoms: S_13  and  C_16
REMARK    5  A    between atoms: C_23  and  C_24
REMARK    6  A    between atoms: C_23  and  C_25
REMARK    7  A    between atoms: N_27  and  C_28
REMARK    8  A    between atoms: C_28  and  C_29
REMARK                            x       y       z     vdW  Elec       q    Type
REMARK                         _______ _______ _______ _____ _____    ______ ____
ROOT
ATOM      1  N   UNL     1      -0.242  14.209  20.828  0.00  0.00    +0.000 N 
ATOM      2  C   UNL     1      -0.645  15.132  21.807  0.00  0.00    +0.000 C 
ATOM      3  O   UNL     1       0.099  15.921  22.390  0.00  0.00    +0.000 OA
ATOM      4  C   UNL     1      -2.147  15.304  21.903  0.00  0.00    +0.000 C 
ATOM      5  N   UNL     1      -2.931  14.059  21.833  0.00  0.00    +0.000 NA
ATOM      6  C   UNL     1      -2.476  13.166  20.716  0.00  0.00    +0.000 C 
ATOM      7  C   UNL     1      -0.947  12.885  20.683  0.00  0.00    +0.000 C 
ATOM      8  C   UNL     1      -0.543  11.965  21.860  0.00  0.00    +0.000 C 
ENDROOT
BRANCH   1  15
ATOM      9  C   UNL     1      -0.197  15.990  18.514  0.00  0.00    +0.000 C 
ATOM     10  C   UNL     1       1.032  15.321  19.064  0.00  0.00    +0.000 A 
ATOM     11  C   UNL     1       2.281  15.689  18.537  0.00  0.00    +0.000 A 
ATOM     12  C   UNL     1       3.464  15.238  19.122  0.00  0.00    +0.000 A 
ATOM     13  C   UNL     1       3.418  14.416  20.245  0.00  0.00    +0.000 A 
ATOM     14  C   UNL     1       2.187  14.026  20.771  0.00  0.00    +0.000 A 
ATOM     15  C   UNL     1       0.993  14.458  20.179  0.00  0.00    +0.000 A 
ENDBRANCH   1  15
BRANCH   7  16
ATOM     16  C   UNL     1      -0.529  12.000  19.422  0.00  0.00    +0.000 C 
ATOM     17  O   UNL     1      -0.938  12.257  18.287  0.00  0.00    +0.000 OA
ATOM     18  N   UNL     1       0.423  11.012  19.582  0.00  0.00    +0.000 N 
ATOM     19  H   UNL     1       0.869  10.830  20.467  0.00  0.00    +0.000 HD
BRANCH  18  20
ATOM     20  C   UNL     1       1.000  10.308  18.440  0.00  0.00    +0.000 C 
BRANCH  20  21
ATOM     21  C   UNL     1       1.587   8.990  18.885  0.00  0.00    +0.000 A 
ATOM     22  C   UNL     1       2.203   8.138  17.954  0.00  0.00    +0.000 A 
ATOM     23  C   UNL     1       2.596   6.851  18.326  0.00  0.00    +0.000 A 
ATOM     24  C   UNL     1       2.377   6.418  19.628  0.00  0.00    +0.000 A 
ATOM     25  F   UNL     1       2.688   5.160  19.966  0.00  0.00    +0.000 F 
ATOM     26  C   UNL     1       1.823   7.266  20.580  0.00  0.00    +0.000 A 
ATOM     27  C   UNL     1       1.439   8.556  20.214  0.00  0.00    +0.000 A 
ENDBRANCH  20  21
ENDBRANCH  18  20
ENDBRANCH   7  16
BRANCH   5  28
ATOM     28  S   UNL     1      -3.301  13.352  23.335  0.00  0.00    +0.000 S 
ATOM     29  O   UNL     1      -3.226  11.915  23.165  0.00  0.00    +0.000 OA
ATOM     30  O   UNL     1      -2.533  14.032  24.349  0.00  0.00    +0.000 OA
BRANCH  28  31
ATOM     31  C   UNL     1      -5.009  13.768  23.581  0.00  0.00    +0.000 A 
ATOM     32  C   UNL     1      -5.920  12.758  23.894  0.00  0.00    +0.000 A 
ATOM     33  C   UNL     1      -7.253  13.091  24.133  0.00  0.00    +0.000 A 
ATOM     34  C   UNL     1      -7.668  14.423  24.069  0.00  0.00    +0.000 A 
ATOM     35  C   UNL     1      -6.752  15.432  23.759  0.00  0.00    +0.000 A 
ATOM     36  C   UNL     1      -5.414  15.103  23.514  0.00  0.00    +0.000 A 
ENDBRANCH  28  31
ENDBRANCH   5  28
TORSDOF 6
ENDMDL
MODEL 3
REMARK VINA RESULT:      -6.6      3.928      8.314
REMARK  Name = 
REMARK  8 active torsions:
REMARK  status: ('A' for Active; 'I' for Inactive)
REMARK    1  A    between atoms: C_1  and  C_2
REMARK    2  A    between atoms: C_7  and  N_8
REMARK    3  A    between atoms: N_12  and  S_13
REMARK    4  A    between atoms: S_13  and  C_16
REMARK    5  A    between atoms: C_23  and  C_24
REMARK    6  A    between atoms: C_23  and  C_25
REMARK    7  A    between atoms: N_27  and  C_28
REMARK    8  A    between atoms: C_28  and  C_29
REMARK                            x       y       z     vdW  Elec       q    Type
REMARK                         _______ _______ _______ _____ _____    ______ ____
ROOT
ATOM      1  N   UNL     1      -0.172  14.455  21.041  0.00  0.00    +0.000 N 
ATOM      2  C   UNL     1      -0.552  15.339  22.065  0.00  0.00    +0.000 C 
ATOM      3  O   UNL     1       0.208  16.091  22.675  0.00  0.00    +0.000 OA
ATOM      4  C   UNL     1      -2.051  15.525  22.185  0.00  0.00    +0.000 C 
ATOM      5  N   UNL     1      -2.852  14.295  22.068  0.00  0.00    +0.000 NA
ATOM      6  C   UNL     1      -2.420  13.447  20.907  0.00  0.00    +0.000 C 
ATOM      7  C   UNL     1      -0.896  13.148  20.845  0.00  0.00    +0.000 C 
ATOM      8  C   UNL     1      -0.491  12.171  21.976  0.00  0.00    +0.000 C 
ENDROOT
BRANCH   1  15
ATOM      9  C   UNL     1      -0.155  16.202  18.701  0.00  0.00    +0.000 C 
ATOM     10  C   UNL     1       1.085  15.564  19.263  0.00  0.00    +0.000 A 
ATOM     11  C   UNL     1       2.329  15.947  18.733  0.00  0.00    +0.000 A 
ATOM     12  C   UNL     1       3.519  15.526  19.327  0.00  0.00    +0.000 A 
ATOM     13  C   UNL     1       3.485  14.721  20.461  0.00  0.00    +0.000 A 
ATOM     14  C   UNL     1       2.261  14.316  20.992  0.00  0.00    +0.000 A 
ATOM     15  C   UNL     1       1.060  14.717  20.391  0.00  0.00    +0.000 A 
ENDBRANCH   1  15
BRANCH   7  16
ATOM     16  C   UNL     1      -0.502  12.315  19.542  0.00  0.00    +0.000 C 
ATOM     17  O   UNL     1      -0.880  12.655  18.418  0.00  0.00    +0.000 OA
ATOM     18  N   UNL     1       0.398  11.274  19.657  0.00  0.00    +0.000 N 
ATOM     19  H   UNL     1       0.821  11.021  20.536  0.00  0.00    +0.000 HD
BRANCH  18  20
ATOM     20  C   UNL     1       0.957  10.607  18.484  0.00  0.00    +0.000 C 
BRANCH  20  21
ATOM     21  C   UNL     1       1.409   9.212  18.846  0.00  0.00    +0.000 A 
ATOM     22  C   UNL     1       1.183   8.708  20.138  0.00  0.00    +0.000 A 
ATOM     23  C   UNL     1       1.742   7.490  20.527  0.00  0.00    +0.000 A 
ATOM     24  C   UNL     1       2.524   6.776  19.628  0.00  0.00    +0.000 A 
ATOM     25  F   UNL     1       3.119   5.644  20.024  0.00  0.00    +0.000 F 
ATOM     26  C   UNL     1       2.710   7.228  18.327  0.00  0.00    +0.000 A 
ATOM     27  C   UNL     1       2.143   8.440  17.931  0.00  0.00    +0.000 A 
ENDBRANCH  20  21
ENDBRANCH  18  20
ENDBRANCH   7  16
BRANCH   5  28
ATOM     28  S   UNL     1      -3.215  13.525  23.540  0.00  0.00    +0.000 S 
ATOM     29  O   UNL     1      -3.077  12.099  23.327  0.00  0.00    +0.000 OA
ATOM     30  O   UNL     1      -2.493  14.204  24.588  0.00  0.00    +0.000 OA
BRANCH  28  31
ATOM     31  C   UNL     1      -4.943  13.863  23.770  0.00  0.00    +0.000 A 
ATOM     32  C   UNL     1      -5.401  15.178  23.678  0.00  0.00    +0.000 A 
ATOM     33  C   UNL     1      -6.764  15.438  23.812  0.00  0.00    +0.000 A 
ATOM     34  C   UNL     1      -7.662  14.390  24.025  0.00  0.00    +0.000 A 
ATOM     35  C   UNL     1      -7.201  13.074  24.112  0.00  0.00    +0.000 A 
ATOM     36  C   UNL     1      -5.833  12.808  23.983  0.00  0.00    +0.000 A 
ENDBRANCH  28  31
ENDBRANCH   5  28
TORSDOF 6
ENDMDL
MODEL 4
REMARK VINA RESULT:      -6.3      4.337      6.711
REMARK  Name = 
REMARK  8 active torsions:
REMARK  status: ('A' for Active; 'I' for Inactive)
REMARK    1  A    between atoms: C_1  and  C_2
REMARK    2  A    between atoms: C_7  and  N_8
REMARK    3  A    between atoms: N_12  and  S_13
REMARK    4  A    between atoms: S_13  and  C_16
REMARK    5  A    between atoms: C_23  and  C_24
REMARK    6  A    between atoms: C_23  and  C_25
REMARK    7  A    between atoms: N_27  and  C_28
REMARK    8  A    between atoms: C_28  and  C_29
REMARK                            x       y       z     vdW  Elec       q    Type
REMARK                         _______ _______ _______ _____ _____    ______ ____
ROOT
ATOM      1  N   UNL     1      -1.768  13.245  21.026  0.00  0.00    +0.000 N 
ATOM      2  C   UNL     1      -1.971  12.279  20.026  0.00  0.00    +0.000 C 
ATOM      3  O   UNL     1      -3.041  12.057  19.458  0.00  0.00    +0.000 OA
ATOM      4  C   UNL     1      -0.688  11.700  19.466  0.00  0.00    +0.000 C 
ATOM      5  N   UNL     1       0.350  11.385  20.462  0.00  0.00    +0.000 NA
ATOM      6  C   UNL     1       0.547  12.500  21.448  0.00  0.00    +0.000 C 
ATOM      7  C   UNL     1      -0.756  13.018  22.120  0.00  0.00    +0.000 C 
ATOM      8  C   UNL     1      -1.308  11.963  23.109  0.00  0.00    +0.000 C 
ENDROOT
BRANCH   1  15
ATOM      9  C   UNL     1      -1.125  15.838  19.847  0.00  0.00    +0.000 C 
ATOM     10  C   UNL     1      -2.426  15.547  20.542  0.00  0.00    +0.000 A 
ATOM     11  C   UNL     1      -3.440  16.519  20.488  0.00  0.00    +0.000 A 
ATOM     12  C   UNL     1      -4.723  16.239  20.958  0.00  0.00    +0.000 A 
ATOM     13  C   UNL     1      -5.014  14.985  21.486  0.00  0.00    +0.000 A 
ATOM     14  C   UNL     1      -4.016  14.014  21.565  0.00  0.00    +0.000 A 
ATOM     15  C   UNL     1      -2.720  14.291  21.113  0.00  0.00    +0.000 A 
ENDBRANCH   1  15
BRANCH   7  16
ATOM     16  C   UNL     1      -0.478  14.256  23.088  0.00  0.00    +0.000 C 
ATOM     17  O   UNL     1       0.434  15.057  22.868  0.00  0.00    +0.000 OA
ATOM     18  N   UNL     1      -1.365  14.518  24.114  0.00  0.00    +0.000 N 
ATOM     19  H   UNL     1      -2.186  13.957  24.274  0.00  0.00    +0.000 HD
BRANCH  18  20
ATOM     20  C   UNL     1      -1.287  15.744  24.905  0.00  0.00    +0.000 C 
BRANCH  20  21
ATOM     21  C   UNL     1      -2.525  16.581  24.687  0.00  0.00    +0.000 A 
ATOM     22  C   UNL     1      -3.790  16.077  25.033  0.00  0.00    +0.000 A 
ATOM     23  C   UNL     1      -4.947  16.775  24.682  0.00  0.00    +0.000 A 
ATOM     24  C   UNL     1      -4.840  17.974  23.989  0.00  0.00    +0.000 A 
ATOM     25  F   UNL     1      -5.950  18.607  23.589  0.00  0.00    +0.000 F 
ATOM     26  C   UNL     1      -3.596  18.519  23.690  0.00  0.00    +0.000 A 
ATOM     27  C   UNL     1      -2.438  17.829  24.049  0.00  0.00    +0.000 A 
ENDBRANCH  20  21
ENDBRANCH  18  20
ENDBRANCH   7  16
BRANCH   5  28
ATOM     28  S   UNL     1       0.334   9.786  21.043  0.00  0.00    +0.000 S 
ATOM     29  O   UNL     1       1.043   9.779  22.306  0.00  0.00    +0.000 OA
ATOM     30  O   UNL     1      -1.015   9.286  20.933  0.00  0.00    +0.000 OA
BRANCH  28  31
ATOM     31  C   UNL     1       1.333   8.907  19.868  0.00  0.00    +0.000 A 
ATOM     32  C   UNL     1       1.845   7.654  20.208  0.00  0.00    +0.000 A 
ATOM     33  C   UNL     1       2.592   6.943  19.269  0.00  0.00    +0.000 A 
ATOM     34  C   UNL     1       2.815   7.477  17.998  0.00  0.00    +0.000 A 
ATOM     35  C   UNL     1       2.297   8.730  17.660  0.00  0.00    +0.000 A 
ATOM     36  C   UNL     1       1.551   9.450  18.599  0.00  0.00    +0.000 A 
ENDBRANCH  28  31
ENDBRANCH   5  28
TORSDOF 6
ENDMDL
MODEL 5
REMARK VINA RESULT:      -6.3      2.644      3.837
REMARK  Name = 
REMARK  8 active torsions:
REMARK  status: ('A' for Active; 'I' for Inactive)
REMARK    1  A    between atoms: C_1  and  C_2
REMARK    2  A    between atoms: C_7  and  N_8
REMARK    3  A    between atoms: N_12  and  S_13
REMARK    4  A    between atoms: S_13  and  C_16
REMARK    5  A    between atoms: C_23  and  C_24
REMARK    6  A    between atoms: C_23  and  C_25
REMARK    7  A    between atoms: N_27  and  C_28
REMARK    8  A    between atoms: C_28  and  C_29
REMARK                            x       y       z     vdW  Elec       q    Type
REMARK                         _______ _______ _______ _____ _____    ______ ____
ROOT
ATOM      1  N   UNL     1       0.527  12.227  20.405  0.00  0.00    +0.000 N 
ATOM      2  C   UNL     1       1.859  12.609  20.638  0.00  0.00    +0.000 C 
ATOM      3  O   UNL     1       2.566  12.196  21.558  0.00  0.00    +0.000 OA
ATOM      4  C   UNL     1       2.487  13.366  19.487  0.00  0.00    +0.000 C 
ATOM      5  N   UNL     1       1.629  14.384  18.857  0.00  0.00    +0.000 NA
ATOM      6  C   UNL     1       0.246  13.867  18.582  0.00  0.00    +0.000 C 
ATOM      7  C   UNL     1      -0.455  13.195  19.796  0.00  0.00    +0.000 C 
ATOM      8  C   UNL     1      -0.839  14.258  20.853  0.00  0.00    +0.000 C 
ENDROOT
BRANCH   1  15
ATOM      9  C   UNL     1       1.109   9.703  19.056  0.00  0.00    +0.000 C 
ATOM     10  C   UNL     1       0.371   9.789  20.362  0.00  0.00    +0.000 A 
ATOM     11  C   UNL     1       0.083   8.593  21.042  0.00  0.00    +0.000 A 
ATOM     12  C   UNL     1      -0.440   8.615  22.335  0.00  0.00    +0.000 A 
ATOM     13  C   UNL     1      -0.679   9.830  22.971  0.00  0.00    +0.000 A 
ATOM     14  C   UNL     1      -0.416  11.027  22.305  0.00  0.00    +0.000 A 
ATOM     15  C   UNL     1       0.091  11.016  20.999  0.00  0.00    +0.000 A 
ENDBRANCH   1  15
BRANCH   7  16
ATOM     16  C   UNL     1      -1.882  12.596  19.406  0.00  0.00    +0.000 C 
ATOM     17  O   UNL     1      -1.991  11.545  18.770  0.00  0.00    +0.000 OA
ATOM     18  N   UNL     1      -3.021  13.192  19.913  0.00  0.00    +0.000 N 
ATOM     19  H   UNL     1      -2.985  13.991  20.525  0.00  0.00    +0.000 HD
BRANCH  18  20
ATOM     20  C   UNL     1      -4.339  12.580  19.767  0.00  0.00    +0.000 C 
BRANCH  20  21
ATOM     21  C   UNL     1      -5.140  12.765  21.034  0.00  0.00    +0.000 A 
ATOM     22  C   UNL     1      -4.497  13.114  22.234  0.00  0.00    +0.000 A 
ATOM     23  C   UNL     1      -5.204  13.123  23.437  0.00  0.00    +0.000 A 
ATOM     24  C   UNL     1      -6.552  12.785  23.442  0.00  0.00    +0.000 A 
ATOM     25  F   UNL     1      -7.213  12.724  24.605  0.00  0.00    +0.000 F 
ATOM     26  C   UNL     1      -7.220  12.495  22.258  0.00  0.00    +0.000 A 
ATOM     27  C   UNL     1      -6.519  12.496  21.052  0.00  0.00    +0.000 A 
ENDBRANCH  20  21
ENDBRANCH  18  20
ENDBRANCH   7  16
BRANCH   5  28
ATOM     28  S   UNL     1       1.795  15.957  19.480  0.00  0.00    +0.000 S 
ATOM     29  O   UNL     1       1.064  16.004  20.730  0.00  0.00    +0.000 OA
ATOM     30  O   UNL     1       3.189  16.320  19.408  0.00  0.00    +0.000 OA
BRANCH  28  31
ATOM     31  C   UNL     1       0.913  16.962  18.312  0.00  0.00    +0.000 A 
ATOM     32  C   UNL     1      -0.432  17.255  18.540  0.00  0.00    +0.000 A 
ATOM     33  C   UNL     1      -1.113  18.082  17.647  0.00  0.00    +0.000 A 
ATOM     34  C   UNL     1      -0.450  18.619  16.542  0.00  0.00    +0.000 A 
ATOM     35  C   UNL     1       0.898  18.327  16.319  0.00  0.00    +0.000 A 
ATOM     36  C   UNL     1       1.585  17.494  17.209  0.00  0.00    +0.000 A 
ENDBRANCH  28  31
ENDBRANCH   5  28
TORSDOF 6
ENDMDL
MODEL 6
REMARK VINA RESULT:      -6.2      0.605      1.533
REMARK  Name = 
REMARK  8 active torsions:
REMARK  status: ('A' for Active; 'I' for Inactive)
REMARK    1  A    between atoms: C_1  and  C_2
REMARK    2  A    between atoms: C_7  and  N_8
REMARK    3  A    between atoms: N_12  and  S_13
REMARK    4  A    between atoms: S_13  and  C_16
REMARK    5  A    between atoms: C_23  and  C_24
REMARK    6  A    between atoms: C_23  and  C_25
REMARK    7  A    between atoms: N_27  and  C_28
REMARK    8  A    between atoms: C_28  and  C_29
REMARK                            x       y       z     vdW  Elec       q    Type
REMARK                         _______ _______ _______ _____ _____    ______ ____
ROOT
ATOM      1  N   UNL     1       0.886  13.391  20.846  0.00  0.00    +0.000 N 
ATOM      2  C   UNL     1       1.904  14.186  21.401  0.00  0.00    +0.000 C 
ATOM      3  O   UNL     1       1.841  14.767  22.484  0.00  0.00    +0.000 OA
ATOM      4  C   UNL     1       3.238  14.049  20.697  0.00  0.00    +0.000 C 
ATOM      5  N   UNL     1       3.175  14.022  19.225  0.00  0.00    +0.000 NA
ATOM      6  C   UNL     1       2.107  13.096  18.721  0.00  0.00    +0.000 C 
ATOM      7  C   UNL     1       0.703  13.311  19.352  0.00  0.00    +0.000 C 
ATOM      8  C   UNL     1       0.082  14.636  18.847  0.00  0.00    +0.000 C 
ENDROOT
BRANCH   1  15
ATOM      9  C   UNL     1      -1.280  15.164  21.677  0.00  0.00    +0.000 C 
ATOM     10  C   UNL     1      -1.157  13.739  22.140  0.00  0.00    +0.000 A 
ATOM     11  C   UNL     1      -2.214  13.187  22.883  0.00  0.00    +0.000 A 
ATOM     12  C   UNL     1      -2.239  11.827  23.188  0.00  0.00    +0.000 A 
ATOM     13  C   UNL     1      -1.211  10.995  22.753  0.00  0.00    +0.000 A 
ATOM     14  C   UNL     1      -0.145  11.527  22.029  0.00  0.00    +0.000 A 
ATOM     15  C   UNL     1      -0.101  12.896  21.735  0.00  0.00    +0.000 A 
ENDBRANCH   1  15
BRANCH   7  16
ATOM     16  C   UNL     1      -0.358  12.237  18.831  0.00  0.00    +0.000 C 
ATOM     17  O   UNL     1      -0.050  11.055  18.658  0.00  0.00    +0.000 OA
ATOM     18  N   UNL     1      -1.683  12.608  18.709  0.00  0.00    +0.000 N 
ATOM     19  H   UNL     1      -2.008  13.533  18.940  0.00  0.00    +0.000 HD
BRANCH  18  20
ATOM     20  C   UNL     1      -2.734  11.630  18.438  0.00  0.00    +0.000 C 
BRANCH  20  21
ATOM     21  C   UNL     1      -4.021  12.053  19.106  0.00  0.00    +0.000 A 
ATOM     22  C   UNL     1      -5.250  11.530  18.670  0.00  0.00    +0.000 A 
ATOM     23  C   UNL     1      -6.449  12.040  19.168  0.00  0.00    +0.000 A 
ATOM     24  C   UNL     1      -6.422  13.069  20.102  0.00  0.00    +0.000 A 
ATOM     25  F   UNL     1      -7.572  13.607  20.526  0.00  0.00    +0.000 F 
ATOM     26  C   UNL     1      -5.216  13.559  20.589  0.00  0.00    +0.000 A 
ATOM     27  C   UNL     1      -4.015  13.044  20.102  0.00  0.00    +0.000 A 
ENDBRANCH  20  21
ENDBRANCH  18  20
ENDBRANCH   7  16
BRANCH   5  28
ATOM     28  S   UNL     1       3.362  15.531  18.465  0.00  0.00    +0.000 S 
ATOM     29  O   UNL     1       2.911  15.383  17.096  0.00  0.00    +0.000 OA
ATOM     30  O   UNL     1       2.809  16.540  19.335  0.00  0.00    +0.000 OA
BRANCH  28  31
ATOM     31  C   UNL     1       5.122  15.760  18.421  0.00  0.00    +0.000 A 
ATOM     32  C   UNL     1       5.927  14.763  17.869  0.00  0.00    +0.000 A 
ATOM     33  C   UNL     1       7.305  14.962  17.793  0.00  0.00    +0.000 A 
ATOM     34  C   UNL     1       7.870  16.153  18.255  0.00  0.00    +0.000 A 
ATOM     35  C   UNL     1       7.060  17.151  18.804  0.00  0.00    +0.000 A 
ATOM     36  C   UNL     1       5.677  16.954  18.887  0.00  0.00    +0.000 A 
ENDBRANCH  28  31
ENDBRANCH   5  28
TORSDOF 6
ENDMDL
MODEL 7
REMARK VINA RESULT:      -6.2      0.731      1.801
REMARK  Name = 
REMARK  8 active torsions:
REMARK  status: ('A' for Active; 'I' for Inactive)
REMARK    1  A    between atoms: C_1  and  C_2
REMARK    2  A    between atoms: C_7  and  N_8
REMARK    3  A    between atoms: N_12  and  S_13
REMARK    4  A    between atoms: S_13  and  C_16
REMARK    5  A    between atoms: C_23  and  C_24
REMARK    6  A    between atoms: C_23  and  C_25
REMARK    7  A    between atoms: N_27  and  C_28
REMARK    8  A    between atoms: C_28  and  C_29
REMARK                            x       y       z     vdW  Elec       q    Type
REMARK                         _______ _______ _______ _____ _____    ______ ____
ROOT
ATOM      1  N   UNL     1       0.486  13.610  21.085  0.00  0.00    +0.000 N 
ATOM      2  C   UNL     1       1.362  14.543  21.666  0.00  0.00    +0.000 C 
ATOM      3  O   UNL     1       1.111  15.235  22.653  0.00  0.00    +0.000 OA
ATOM      4  C   UNL     1       2.787  14.438  21.164  0.00  0.00    +0.000 C 
ATOM      5  N   UNL     1       2.931  14.241  19.711  0.00  0.00    +0.000 NA
ATOM      6  C   UNL     1       2.007  13.180  19.189  0.00  0.00    +0.000 C 
ATOM      7  C   UNL     1       0.517  13.348  19.601  0.00  0.00    +0.000 C 
ATOM      8  C   UNL     1      -0.113  14.553  18.861  0.00  0.00    +0.000 C 
ENDROOT
BRANCH   1  15
ATOM      9  C   UNL     1      -1.976  15.175  21.225  0.00  0.00    +0.000 C 
ATOM     10  C   UNL     1      -1.778  13.880  21.964  0.00  0.00    +0.000 A 
ATOM     11  C   UNL     1      -2.881  13.319  22.629  0.00  0.00    +0.000 A 
ATOM     12  C   UNL     1      -2.808  12.040  23.180  0.00  0.00    +0.000 A 
ATOM     13  C   UNL     1      -1.634  11.300  23.072  0.00  0.00    +0.000 A 
ATOM     14  C   UNL     1      -0.523  11.847  22.431  0.00  0.00    +0.000 A 
ATOM     15  C   UNL     1      -0.580  13.139  21.891  0.00  0.00    +0.000 A 
ENDBRANCH   1  15
BRANCH   7  16
ATOM     16  C   UNL     1      -0.387  12.140  19.081  0.00  0.00    +0.000 C 
ATOM     17  O   UNL     1      -0.030  10.966  19.202  0.00  0.00    +0.000 OA
ATOM     18  N   UNL     1      -1.661  12.407  18.616  0.00  0.00    +0.000 N 
ATOM     19  H   UNL     1      -2.043  13.339  18.595  0.00  0.00    +0.000 HD
BRANCH  18  20
ATOM     20  C   UNL     1      -2.611  11.338  18.321  0.00  0.00    +0.000 C 
BRANCH  20  21
ATOM     21  C   UNL     1      -4.026  11.852  18.449  0.00  0.00    +0.000 A 
ATOM     22  C   UNL     1      -4.901  11.797  17.351  0.00  0.00    +0.000 A 
ATOM     23  C   UNL     1      -6.149  12.419  17.412  0.00  0.00    +0.000 A 
ATOM     24  C   UNL     1      -6.523  13.092  18.569  0.00  0.00    +0.000 A 
ATOM     25  F   UNL     1      -7.689  13.749  18.602  0.00  0.00    +0.000 F 
ATOM     26  C   UNL     1      -5.696  13.108  19.686  0.00  0.00    +0.000 A 
ATOM     27  C   UNL     1      -4.452  12.478  19.632  0.00  0.00    +0.000 A 
ENDBRANCH  20  21
ENDBRANCH  18  20
ENDBRANCH   7  16
BRANCH   5  28
ATOM     28  S   UNL     1       3.121  15.666  18.803  0.00  0.00    +0.000 S 
ATOM     29  O   UNL     1       2.490  15.445  17.518  0.00  0.00    +0.000 OA
ATOM     30  O   UNL     1       2.755  16.781  19.641  0.00  0.00    +0.000 OA
BRANCH  28  31
ATOM     31  C   UNL     1       4.873  15.751  18.525  0.00  0.00    +0.000 A 
ATOM     32  C   UNL     1       5.581  16.870  18.967  0.00  0.00    +0.000 A 
ATOM     33  C   UNL     1       6.963  16.917  18.790  0.00  0.00    +0.000 A 
ATOM     34  C   UNL     1       7.632  15.850  18.188  0.00  0.00    +0.000 A 
ATOM     35  C   UNL     1       6.921  14.729  17.751  0.00  0.00    +0.000 A 
ATOM     36  C   UNL     1       5.532  14.678  17.921  0.00  0.00    +0.000 A 
ENDBRANCH  28  31
ENDBRANCH   5  28
TORSDOF 6
ENDMDL
MODEL 8
REMARK VINA RESULT:      -6.2      4.569      7.224
REMARK  Name = 
REMARK  8 active torsions:
REMARK  status: ('A' for Active; 'I' for Inactive)
REMARK    1  A    between atoms: C_1  and  C_2
REMARK    2  A    between atoms: C_7  and  N_8
REMARK    3  A    between atoms: N_12  and  S_13
REMARK    4  A    between atoms: S_13  and  C_16
REMARK    5  A    between atoms: C_23  and  C_24
REMARK    6  A    between atoms: C_23  and  C_25
REMARK    7  A    between atoms: N_27  and  C_28
REMARK    8  A    between atoms: C_28  and  C_29
REMARK                            x       y       z     vdW  Elec       q    Type
REMARK                         _______ _______ _______ _____ _____    ______ ____
ROOT
ATOM      1  N   UNL     1      -2.002  13.759  22.035  0.00  0.00    +0.000 N 
ATOM      2  C   UNL     1      -1.131  14.725  22.567  0.00  0.00    +0.000 C 
ATOM      3  O   UNL     1      -0.106  14.484  23.205  0.00  0.00    +0.000 OA
ATOM      4  C   UNL     1      -1.383  16.126  22.048  0.00  0.00    +0.000 C 
ATOM      5  N   UNL     1      -2.799  16.520  21.955  0.00  0.00    +0.000 NA
ATOM      6  C   UNL     1      -3.641  15.456  21.313  0.00  0.00    +0.000 C 
ATOM      7  C   UNL     1      -3.479  14.035  21.921  0.00  0.00    +0.000 C 
ATOM      8  C   UNL     1      -4.115  13.977  23.332  0.00  0.00    +0.000 C 
ENDROOT
BRANCH   1  15
ATOM      9  C   UNL     1      -0.762  13.051  19.488  0.00  0.00    +0.000 C 
ATOM     10  C   UNL     1      -0.877  12.096  20.643  0.00  0.00    +0.000 A 
ATOM     11  C   UNL     1      -0.222  10.856  20.548  0.00  0.00    +0.000 A 
ATOM     12  C   UNL     1      -0.144  10.003  21.649  0.00  0.00    +0.000 A 
ATOM     13  C   UNL     1      -0.714  10.377  22.862  0.00  0.00    +0.000 A 
ATOM     14  C   UNL     1      -1.384  11.595  22.971  0.00  0.00    +0.000 A 
ATOM     15  C   UNL     1      -1.485  12.450  21.866  0.00  0.00    +0.000 A 
ENDBRANCH   1  15
BRANCH   7  16
ATOM     16  C   UNL     1      -4.339  12.946  21.134  0.00  0.00    +0.000 C 
ATOM     17  O   UNL     1      -5.102  12.174  21.722  0.00  0.00    +0.000 OA
ATOM     18  N   UNL     1      -4.339  12.960  19.752  0.00  0.00    +0.000 N 
ATOM     19  H   UNL     1      -3.817  13.638  19.220  0.00  0.00    +0.000 HD
BRANCH  18  20
ATOM     20  C   UNL     1      -5.257  12.133  18.974  0.00  0.00    +0.000 C 
BRANCH  20  21
ATOM     21  C   UNL     1      -4.491  11.332  17.948  0.00  0.00    +0.000 A 
ATOM     22  C   UNL     1      -3.378  10.566  18.335  0.00  0.00    +0.000 A 
ATOM     23  C   UNL     1      -2.570   9.960  17.371  0.00  0.00    +0.000 A 
ATOM     24  C   UNL     1      -2.873  10.118  16.025  0.00  0.00    +0.000 A 
ATOM     25  F   UNL     1      -2.057   9.598  15.099  0.00  0.00    +0.000 F 
ATOM     26  C   UNL     1      -4.002  10.823  15.624  0.00  0.00    +0.000 A 
ATOM     27  C   UNL     1      -4.819  11.420  16.585  0.00  0.00    +0.000 A 
ENDBRANCH  20  21
ENDBRANCH  18  20
ENDBRANCH   7  16
BRANCH   5  28
ATOM     28  S   UNL     1      -3.417  17.326  23.319  0.00  0.00    +0.000 S 
ATOM     29  O   UNL     1      -3.351  16.403  24.433  0.00  0.00    +0.000 OA
ATOM     30  O   UNL     1      -2.801  18.630  23.382  0.00  0.00    +0.000 OA
BRANCH  28  31
ATOM     31  C   UNL     1      -5.132  17.558  22.922  0.00  0.00    +0.000 A 
ATOM     32  C   UNL     1      -5.487  18.478  21.935  0.00  0.00    +0.000 A 
ATOM     33  C   UNL     1      -6.830  18.628  21.591  0.00  0.00    +0.000 A 
ATOM     34  C   UNL     1      -7.807  17.855  22.222  0.00  0.00    +0.000 A 
ATOM     35  C   UNL     1      -7.448  16.932  23.207  0.00  0.00    +0.000 A 
ATOM     36  C   UNL     1      -6.102  16.781  23.560  0.00  0.00    +0.000 A 
ENDBRANCH  28  31
ENDBRANCH   5  28
TORSDOF 6
ENDMDL
MODEL 9
REMARK VINA RESULT:      -6.1      3.925      7.761
REMARK  Name = 
REMARK  8 active torsions:
REMARK  status: ('A' for Active; 'I' for Inactive)
REMARK    1  A    between atoms: C_1  and  C_2
REMARK    2  A    between atoms: C_7  and  N_8
REMARK    3  A    between atoms: N_12  and  S_13
REMARK    4  A    between atoms: S_13  and  C_16
REMARK    5  A    between atoms: C_23  and  C_24
REMARK    6  A    between atoms: C_23  and  C_25
REMARK    7  A    between atoms: N_27  and  C_28
REMARK    8  A    between atoms: C_28  and  C_29
REMARK                            x       y       z     vdW  Elec       q    Type
REMARK                         _______ _______ _______ _____ _____    ______ ____
ROOT
ATOM      1  N   UNL     1       0.656  15.071  20.563  0.00  0.00    +0.000 N 
ATOM      2  C   UNL     1       0.663  16.080  21.540  0.00  0.00    +0.000 C 
ATOM      3  O   UNL     1       1.660  16.691  21.925  0.00  0.00    +0.000 OA
ATOM      4  C   UNL     1      -0.717  16.590  21.902  0.00  0.00    +0.000 C 
ATOM      5  N   UNL     1      -1.752  15.553  22.057  0.00  0.00    +0.000 NA
ATOM      6  C   UNL     1      -1.730  14.558  20.933  0.00  0.00    +0.000 C 
ATOM      7  C   UNL     1      -0.336  13.938  20.635  0.00  0.00    +0.000 C 
ATOM      8  C   UNL     1       0.080  12.974  21.772  0.00  0.00    +0.000 C 
ENDROOT
BRANCH   1  15
ATOM      9  C   UNL     1       0.702  16.853  18.250  0.00  0.00    +0.000 C 
ATOM     10  C   UNL     1       1.805  15.880  18.564  0.00  0.00    +0.000 A 
ATOM     11  C   UNL     1       2.981  15.938  17.797  0.00  0.00    +0.000 A 
ATOM     12  C   UNL     1       4.102  15.187  18.151  0.00  0.00    +0.000 A 
ATOM     13  C   UNL     1       4.066  14.369  19.277  0.00  0.00    +0.000 A 
ATOM     14  C   UNL     1       2.902  14.285  20.040  0.00  0.00    +0.000 A 
ATOM     15  C   UNL     1       1.765  15.021  19.682  0.00  0.00    +0.000 A 
ENDBRANCH   1  15
BRANCH   7  16
ATOM     16  C   UNL     1      -0.375  12.957  19.377  0.00  0.00    +0.000 C 
ATOM     17  O   UNL     1      -0.571  13.378  18.234  0.00  0.00    +0.000 OA
ATOM     18  N   UNL     1      -0.040  11.628  19.551  0.00  0.00    +0.000 N 
ATOM     19  H   UNL     1       0.232  11.253  20.446  0.00  0.00    +0.000 HD
BRANCH  18  20
ATOM     20  C   UNL     1       0.145  10.726  18.418  0.00  0.00    +0.000 C 
BRANCH  20  21
ATOM     21  C   UNL     1       1.019   9.561  18.818  0.00  0.00    +0.000 A 
ATOM     22  C   UNL     1       1.756   8.862  17.848  0.00  0.00    +0.000 A 
ATOM     23  C   UNL     1       2.430   7.687  18.186  0.00  0.00    +0.000 A 
ATOM     24  C   UNL     1       2.371   7.214  19.490  0.00  0.00    +0.000 A 
ATOM     25  F   UNL     1       2.958   6.050  19.798  0.00  0.00    +0.000 F 
ATOM     26  C   UNL     1       1.697   7.923  20.478  0.00  0.00    +0.000 A 
ATOM     27  C   UNL     1       1.031   9.103  20.146  0.00  0.00    +0.000 A 
ENDBRANCH  20  21
ENDBRANCH  18  20
ENDBRANCH   7  16
BRANCH   5  28
ATOM     28  S   UNL     1      -1.968  14.977  23.643  0.00  0.00    +0.000 S 
ATOM     29  O   UNL     1      -2.675  13.716  23.551  0.00  0.00    +0.000 OA
ATOM     30  O   UNL     1      -0.704  15.084  24.331  0.00  0.00    +0.000 OA
BRANCH  28  31
ATOM     31  C   UNL     1      -3.079  16.158  24.366  0.00  0.00    +0.000 A 
ATOM     32  C   UNL     1      -2.557  17.266  25.035  0.00  0.00    +0.000 A 
ATOM     33  C   UNL     1      -3.429  18.218  25.564  0.00  0.00    +0.000 A 
ATOM     34  C   UNL     1      -4.809  18.066  25.415  0.00  0.00    +0.000 A 
ATOM     35  C   UNL     1      -5.328  16.957  24.741  0.00  0.00    +0.000 A 
ATOM     36  C   UNL     1      -4.458  15.997  24.213  0.00  0.00    +0.000 A 
ENDBRANCH  28  31
ENDBRANCH   5  28
TORSDOF 6
ENDMDL
