MODEL 1
REMARK VINA RESULT:      -6.7      0.000      0.000
REMARK  Name = 
REMARK  2 active torsions:
REMARK  status: ('A' for Active; 'I' for Inactive)
REMARK    1  A    between atoms: C_4  and  C_5
REMARK    2  A    between atoms: C_5  and  C_6
REMARK                            x       y       z     vdW  Elec       q    Type
REMARK                         _______ _______ _______ _____ _____    ______ ____
ROOT
ATOM      1  C   UNL     1       3.119   4.659  19.058  0.00  0.00    +0.000 C 
ATOM      2  C   UNL     1       2.143   5.135  20.159  0.00  0.00    +0.000 C 
ATOM      3  C   UNL     1       1.469   3.924  20.829  0.00  0.00    +0.000 C 
ATOM      4  C   UNL     1       0.733   3.127  19.744  0.00  0.00    +0.000 C 
ATOM      5  C   UNL     1       1.732   2.718  18.649  0.00  0.00    +0.000 C 
ATOM      6  N   UNL     1       3.110   3.164  18.970  0.00  0.00    +0.000 NA
ATOM      7  C   UNL     1       3.490   2.555  20.264  0.00  0.00    +0.000 C 
ATOM      8  C   UNL     1       2.573   3.024  21.403  0.00  0.00    +0.000 C 
ENDROOT
BRANCH   1   9
ATOM      9  C   UNL     1       4.559   5.205  19.239  0.00  0.00    +0.000 C 
BRANCH   9  13
ATOM     10  C   UNL     1       6.993   4.834  15.830  0.00  0.00    +0.000 A 
ATOM     11  N   UNL     1       7.567   4.588  17.018  0.00  0.00    +0.000 NA
ATOM     12  C   UNL     1       6.771   4.750  18.094  0.00  0.00    +0.000 A 
ATOM     13  C   UNL     1       5.448   5.140  18.029  0.00  0.00    +0.000 A 
ATOM     14  C   UNL     1       4.985   5.394  16.752  0.00  0.00    +0.000 A 
ATOM     15  N   UNL     1       5.733   5.247  15.638  0.00  0.00    +0.000 NA
ENDBRANCH   9  13
ENDBRANCH   1   9
TORSDOF 2
ENDMDL
MODEL 2
REMARK VINA RESULT:      -6.7      0.334      1.232
REMARK  Name = 
REMARK  2 active torsions:
REMARK  status: ('A' for Active; 'I' for Inactive)
REMARK    1  A    between atoms: C_4  and  C_5
REMARK    2  A    between atoms: C_5  and  C_6
REMARK                            x       y       z     vdW  Elec       q    Type
REMARK                         _______ _______ _______ _____ _____    ______ ____
ROOT
ATOM      1  C   UNL     1       2.987   4.703  19.035  0.00  0.00    +0.000 C 
ATOM      2  C   UNL     1       1.980   5.098  20.140  0.00  0.00    +0.000 C 
ATOM      3  C   UNL     1       1.385   3.835  20.790  0.00  0.00    +0.000 C 
ATOM      4  C   UNL     1       0.706   3.008  19.692  0.00  0.00    +0.000 C 
ATOM      5  C   UNL     1       1.732   2.682  18.593  0.00  0.00    +0.000 C 
ATOM      6  N   UNL     1       3.077   3.213  18.925  0.00  0.00    +0.000 NA
ATOM      7  C   UNL     1       3.493   2.610  20.212  0.00  0.00    +0.000 C 
ATOM      8  C   UNL     1       2.545   3.001  21.354  0.00  0.00    +0.000 C 
ENDROOT
BRANCH   1   9
ATOM      9  C   UNL     1       4.388   5.340  19.228  0.00  0.00    +0.000 C 
BRANCH   9  13
ATOM     10  C   UNL     1       7.030   5.405  15.958  0.00  0.00    +0.000 A 
ATOM     11  N   UNL     1       5.859   6.043  15.808  0.00  0.00    +0.000 NA
ATOM     12  C   UNL     1       5.019   5.974  16.860  0.00  0.00    +0.000 A 
ATOM     13  C   UNL     1       5.300   5.306  18.035  0.00  0.00    +0.000 A 
ATOM     14  C   UNL     1       6.524   4.663  18.053  0.00  0.00    +0.000 A 
ATOM     15  N   UNL     1       7.406   4.698  17.032  0.00  0.00    +0.000 NA
ENDBRANCH   9  13
ENDBRANCH   1   9
TORSDOF 2
ENDMDL
MODEL 3
REMARK VINA RESULT:      -6.7      0.952      1.550
REMARK  Name = 
REMARK  2 active torsions:
REMARK  status: ('A' for Active; 'I' for Inactive)
REMARK    1  A    between atoms: C_4  and  C_5
REMARK    2  A    between atoms: C_5  and  C_6
REMARK                            x       y       z     vdW  Elec       q    Type
REMARK                         _______ _______ _______ _____ _____    ______ ____
ROOT
ATOM      1  C   UNL     1       3.333   3.687  18.423  0.00  0.00    +0.000 C 
ATOM      2  C   UNL     1       2.225   4.718  18.742  0.00  0.00    +0.000 C 
ATOM      3  C   UNL     1       1.292   4.171  19.838  0.00  0.00    +0.000 C 
ATOM      4  C   UNL     1       0.692   2.851  19.337  0.00  0.00    +0.000 C 
ATOM      5  C   UNL     1       1.829   1.877  18.987  0.00  0.00    +0.000 C 
ATOM      6  N   UNL     1       3.162   2.465  19.270  0.00  0.00    +0.000 NA
ATOM      7  C   UNL     1       3.204   2.808  20.710  0.00  0.00    +0.000 C 
ATOM      8  C   UNL     1       2.146   3.858  21.075  0.00  0.00    +0.000 C 
ENDROOT
BRANCH   1   9
ATOM      9  C   UNL     1       4.765   4.268  18.553  0.00  0.00    +0.000 C 
BRANCH   9  13
ATOM     10  C   UNL     1       6.985   4.690  15.007  0.00  0.00    +0.000 A 
ATOM     11  N   UNL     1       5.659   4.527  14.880  0.00  0.00    +0.000 NA
ATOM     12  C   UNL     1       4.980   4.359  16.033  0.00  0.00    +0.000 A 
ATOM     13  C   UNL     1       5.564   4.349  17.283  0.00  0.00    +0.000 A 
ATOM     14  C   UNL     1       6.939   4.494  17.278  0.00  0.00    +0.000 A 
ATOM     15  N   UNL     1       7.671   4.667  16.157  0.00  0.00    +0.000 NA
ENDBRANCH   9  13
ENDBRANCH   1   9
TORSDOF 2
ENDMDL
MODEL 4
REMARK VINA RESULT:      -6.7      1.365      1.844
REMARK  Name = 
REMARK  2 active torsions:
REMARK  status: ('A' for Active; 'I' for Inactive)
REMARK    1  A    between atoms: C_4  and  C_5
REMARK    2  A    between atoms: C_5  and  C_6
REMARK                            x       y       z     vdW  Elec       q    Type
REMARK                         _______ _______ _______ _____ _____    ______ ____
ROOT
ATOM      1  C   UNL     1       3.064   4.019  17.512  0.00  0.00    +0.000 C 
ATOM      2  C   UNL     1       1.588   4.381  17.799  0.00  0.00    +0.000 C 
ATOM      3  C   UNL     1       1.115   3.691  19.092  0.00  0.00    +0.000 C 
ATOM      4  C   UNL     1       1.289   2.178  18.915  0.00  0.00    +0.000 C 
ATOM      5  C   UNL     1       2.758   1.870  18.583  0.00  0.00    +0.000 C 
ATOM      6  N   UNL     1       3.587   3.101  18.573  0.00  0.00    +0.000 NA
ATOM      7  C   UNL     1       3.482   3.724  19.912  0.00  0.00    +0.000 C 
ATOM      8  C   UNL     1       2.039   4.138  20.234  0.00  0.00    +0.000 C 
ENDROOT
BRANCH   1   9
ATOM      9  C   UNL     1       3.977   5.261  17.340  0.00  0.00    +0.000 C 
BRANCH   9  13
ATOM     10  C   UNL     1       7.262   4.879  14.743  0.00  0.00    +0.000 A 
ATOM     11  N   UNL     1       6.268   3.987  14.604  0.00  0.00    +0.000 NA
ATOM     12  C   UNL     1       5.246   4.114  15.474  0.00  0.00    +0.000 A 
ATOM     13  C   UNL     1       5.180   5.080  16.458  0.00  0.00    +0.000 A 
ATOM     14  C   UNL     1       6.278   5.916  16.519  0.00  0.00    +0.000 A 
ATOM     15  N   UNL     1       7.329   5.839  15.674  0.00  0.00    +0.000 NA
ENDBRANCH   9  13
ENDBRANCH   1   9
TORSDOF 2
ENDMDL
MODEL 5
REMARK VINA RESULT:      -6.6      1.153      2.035
REMARK  Name = 
REMARK  2 active torsions:
REMARK  status: ('A' for Active; 'I' for Inactive)
REMARK    1  A    between atoms: C_4  and  C_5
REMARK    2  A    between atoms: C_5  and  C_6
REMARK                            x       y       z     vdW  Elec       q    Type
REMARK                         _______ _______ _______ _____ _____    ______ ____
ROOT
ATOM      1  C   UNL     1       4.281   3.759  19.147  0.00  0.00    +0.000 C 
ATOM      2  C   UNL     1       3.902   3.061  17.819  0.00  0.00    +0.000 C 
ATOM      3  C   UNL     1       2.371   2.947  17.699  0.00  0.00    +0.000 C 
ATOM      4  C   UNL     1       1.856   2.155  18.907  0.00  0.00    +0.000 C 
ATOM      5  C   UNL     1       2.297   2.858  20.202  0.00  0.00    +0.000 C 
ATOM      6  N   UNL     1       3.046   4.107  19.918  0.00  0.00    +0.000 NA
ATOM      7  C   UNL     1       2.160   4.993  19.129  0.00  0.00    +0.000 C 
ATOM      8  C   UNL     1       1.782   4.362  17.781  0.00  0.00    +0.000 C 
ENDROOT
BRANCH   1   9
ATOM      9  C   UNL     1       5.191   4.999  18.948  0.00  0.00    +0.000 C 
BRANCH   9  13
ATOM     10  C   UNL     1       7.013   5.145  15.162  0.00  0.00    +0.000 A 
ATOM     11  N   UNL     1       7.706   4.555  16.149  0.00  0.00    +0.000 NA
ATOM     12  C   UNL     1       7.110   4.555  17.358  0.00  0.00    +0.000 A 
ATOM     13  C   UNL     1       5.873   5.112  17.614  0.00  0.00    +0.000 A 
ATOM     14  C   UNL     1       5.277   5.717  16.523  0.00  0.00    +0.000 A 
ATOM     15  N   UNL     1       5.823   5.746  15.289  0.00  0.00    +0.000 NA
ENDBRANCH   9  13
ENDBRANCH   1   9
TORSDOF 2
ENDMDL
MODEL 6
REMARK VINA RESULT:      -6.6      1.161      2.367
REMARK  Name = 
REMARK  2 active torsions:
REMARK  status: ('A' for Active; 'I' for Inactive)
REMARK    1  A    between atoms: C_4  and  C_5
REMARK    2  A    between atoms: C_5  and  C_6
REMARK                            x       y       z     vdW  Elec       q    Type
REMARK                         _______ _______ _______ _____ _____    ______ ____
ROOT
ATOM      1  C   UNL     1       4.247   3.745  19.125  0.00  0.00    +0.000 C 
ATOM      2  C   UNL     1       3.846   2.938  17.868  0.00  0.00    +0.000 C 
ATOM      3  C   UNL     1       2.314   2.799  17.795  0.00  0.00    +0.000 C 
ATOM      4  C   UNL     1       1.837   2.103  19.075  0.00  0.00    +0.000 C 
ATOM      5  C   UNL     1       2.300   2.913  20.297  0.00  0.00    +0.000 C 
ATOM      6  N   UNL     1       3.027   4.143  19.896  0.00  0.00    +0.000 NA
ATOM      7  C   UNL     1       2.112   4.953  19.059  0.00  0.00    +0.000 C 
ATOM      8  C   UNL     1       1.710   4.210  17.776  0.00  0.00    +0.000 C 
ENDROOT
BRANCH   1   9
ATOM      9  C   UNL     1       5.137   4.974  18.805  0.00  0.00    +0.000 C 
BRANCH   9  13
ATOM     10  C   UNL     1       7.024   5.184  15.053  0.00  0.00    +0.000 A 
ATOM     11  N   UNL     1       5.778   5.676  15.136  0.00  0.00    +0.000 NA
ATOM     12  C   UNL     1       5.187   5.562  16.343  0.00  0.00    +0.000 A 
ATOM     13  C   UNL     1       5.782   4.987  17.448  0.00  0.00    +0.000 A 
ATOM     14  C   UNL     1       7.053   4.490  17.224  0.00  0.00    +0.000 A 
ATOM     15  N   UNL     1       7.695   4.577  16.040  0.00  0.00    +0.000 NA
ENDBRANCH   9  13
ENDBRANCH   1   9
TORSDOF 2
ENDMDL
MODEL 7
REMARK VINA RESULT:      -6.6      1.304      1.884
REMARK  Name = 
REMARK  2 active torsions:
REMARK  status: ('A' for Active; 'I' for Inactive)
REMARK    1  A    between atoms: C_4  and  C_5
REMARK    2  A    between atoms: C_5  and  C_6
REMARK                            x       y       z     vdW  Elec       q    Type
REMARK                         _______ _______ _______ _____ _____    ______ ____
ROOT
ATOM      1  C   UNL     1       2.934   3.863  18.406  0.00  0.00    +0.000 C 
ATOM      2  C   UNL     1       1.428   3.511  18.393  0.00  0.00    +0.000 C 
ATOM      3  C   UNL     1       0.896   3.407  19.834  0.00  0.00    +0.000 C 
ATOM      4  C   UNL     1       1.708   2.332  20.566  0.00  0.00    +0.000 C 
ATOM      5  C   UNL     1       3.201   2.698  20.511  0.00  0.00    +0.000 C 
ATOM      6  N   UNL     1       3.423   3.990  19.816  0.00  0.00    +0.000 NA
ATOM      7  C   UNL     1       2.665   5.031  20.548  0.00  0.00    +0.000 C 
ATOM      8  C   UNL     1       1.156   4.749  20.534  0.00  0.00    +0.000 C 
ENDROOT
BRANCH   1   9
ATOM      9  C   UNL     1       3.275   5.127  17.575  0.00  0.00    +0.000 C 
BRANCH   9  13
ATOM     10  C   UNL     1       6.954   4.944  15.548  0.00  0.00    +0.000 A 
ATOM     11  N   UNL     1       6.570   6.145  16.006  0.00  0.00    +0.000 NA
ATOM     12  C   UNL     1       5.370   6.178  16.620  0.00  0.00    +0.000 A 
ATOM     13  C   UNL     1       4.556   5.077  16.791  0.00  0.00    +0.000 A 
ATOM     14  C   UNL     1       5.049   3.906  16.246  0.00  0.00    +0.000 A 
ATOM     15  N   UNL     1       6.243   3.811  15.623  0.00  0.00    +0.000 NA
ENDBRANCH   9  13
ENDBRANCH   1   9
TORSDOF 2
ENDMDL
MODEL 8
REMARK VINA RESULT:      -6.6      1.010      1.030
REMARK  Name = 
REMARK  2 active torsions:
REMARK  status: ('A' for Active; 'I' for Inactive)
REMARK    1  A    between atoms: C_4  and  C_5
REMARK    2  A    between atoms: C_5  and  C_6
REMARK                            x       y       z     vdW  Elec       q    Type
REMARK                         _______ _______ _______ _____ _____    ______ ____
ROOT
ATOM      1  C   UNL     1       3.298   3.895  18.489  0.00  0.00    +0.000 C 
ATOM      2  C   UNL     1       2.156   4.835  18.942  0.00  0.00    +0.000 C 
ATOM      3  C   UNL     1       1.289   4.140  20.008  0.00  0.00    +0.000 C 
ATOM      4  C   UNL     1       0.732   2.847  19.398  0.00  0.00    +0.000 C 
ATOM      5  C   UNL     1       1.898   1.968  18.919  0.00  0.00    +0.000 C 
ATOM      6  N   UNL     1       3.212   2.590  19.217  0.00  0.00    +0.000 NA
ATOM      7  C   UNL     1       3.291   2.793  20.682  0.00  0.00    +0.000 C 
ATOM      8  C   UNL     1       2.200   3.750  21.181  0.00  0.00    +0.000 C 
ENDROOT
BRANCH   1   9
ATOM      9  C   UNL     1       4.706   4.530  18.632  0.00  0.00    +0.000 C 
BRANCH   9  13
ATOM     10  C   UNL     1       7.016   4.884  15.136  0.00  0.00    +0.000 A 
ATOM     11  N   UNL     1       7.277   5.748  16.129  0.00  0.00    +0.000 NA
ATOM     12  C   UNL     1       6.496   5.632  17.222  0.00  0.00    +0.000 A 
ATOM     13  C   UNL     1       5.485   4.703  17.358  0.00  0.00    +0.000 A 
ATOM     14  C   UNL     1       5.294   3.893  16.254  0.00  0.00    +0.000 A 
ATOM     15  N   UNL     1       6.045   3.961  15.135  0.00  0.00    +0.000 NA
ENDBRANCH   9  13
ENDBRANCH   1   9
TORSDOF 2
ENDMDL
MODEL 9
REMARK VINA RESULT:      -6.5      1.236      1.715
REMARK  Name = 
REMARK  2 active torsions:
REMARK  status: ('A' for Active; 'I' for Inactive)
REMARK    1  A    between atoms: C_4  and  C_5
REMARK    2  A    between atoms: C_5  and  C_6
REMARK                            x       y       z     vdW  Elec       q    Type
REMARK                         _______ _______ _______ _____ _____    ______ ____
ROOT
ATOM      1  C   UNL     1       3.046   4.065  17.819  0.00  0.00    +0.000 C 
ATOM      2  C   UNL     1       1.519   4.313  17.802  0.00  0.00    +0.000 C 
ATOM      3  C   UNL     1       0.845   3.540  18.951  0.00  0.00    +0.000 C 
ATOM      4  C   UNL     1       1.166   2.051  18.777  0.00  0.00    +0.000 C 
ATOM      5  C   UNL     1       2.692   1.859  18.750  0.00  0.00    +0.000 C 
ATOM      6  N   UNL     1       3.408   3.144  18.942  0.00  0.00    +0.000 NA
ATOM      7  C   UNL     1       2.984   3.705  20.246  0.00  0.00    +0.000 C 
ATOM      8  C   UNL     1       1.478   4.004  20.271  0.00  0.00    +0.000 C 
ENDROOT
BRANCH   1   9
ATOM      9  C   UNL     1       3.877   5.373  17.871  0.00  0.00    +0.000 C 
BRANCH   9  13
ATOM     10  C   UNL     1       8.024   4.717  18.106  0.00  0.00    +0.000 A 
ATOM     11  N   UNL     1       7.415   5.168  19.214  0.00  0.00    +0.000 NA
ATOM     12  C   UNL     1       6.092   5.402  19.097  0.00  0.00    +0.000 A 
ATOM     13  C   UNL     1       5.369   5.206  17.937  0.00  0.00    +0.000 A 
ATOM     14  C   UNL     1       6.117   4.771  16.859  0.00  0.00    +0.000 A 
ATOM     15  N   UNL     1       7.441   4.517  16.917  0.00  0.00    +0.000 NA
ENDBRANCH   9  13
ENDBRANCH   1   9
TORSDOF 2
ENDMDL
