MODEL 1
REMARK VINA RESULT:      -7.6      0.000      0.000
REMARK  Name = 
REMARK  9 active torsions:
REMARK  status: ('A' for Active; 'I' for Inactive)
REMARK    1  A    between atoms: N_1  and  C_2
REMARK    2  A    between atoms: C_2  and  C_3
REMARK    3  A    between atoms: C_3  and  C_4
REMARK    4  A    between atoms: C_4  and  C_5
REMARK    5  A    between atoms: C_4  and  N_16
REMARK    6  A    between atoms: N_7  and  C_8
REMARK    7  A    between atoms: C_8  and  C_9
REMARK    8  A    between atoms: C_20  and  C_21
REMARK    9  A    between atoms: C_20  and  C_27
REMARK                            x       y       z     vdW  Elec       q    Type
REMARK                         _______ _______ _______ _____ _____    ______ ____
ROOT
ATOM      1  N   UNL     1       0.889  11.368  20.072  0.00  0.00    +0.000 NA
ATOM      2  C   UNL     1       1.346  12.280  19.008  0.00  0.00    +0.000 C 
ATOM      3  C   UNL     1       0.334  13.328  18.484  0.00  0.00    +0.000 C 
ATOM      4  C   UNL     1      -0.426  14.014  19.613  0.00  0.00    +0.000 C 
ATOM      5  C   UNL     1      -0.558  15.352  19.795  0.00  0.00    +0.000 C 
ATOM      6  C   UNL     1      -1.008  12.979  20.552  0.00  0.00    +0.000 C 
ATOM      7  C   UNL     1       0.106  12.079  21.092  0.00  0.00    +0.000 C 
ENDROOT
BRANCH   5   8
ATOM      8  C   UNL     1       0.062  16.301  18.844  0.00  0.00    +0.000 A 
ATOM      9  C   UNL     1       1.455  16.371  18.724  0.00  0.00    +0.000 A 
ATOM     10  C   UNL     1       2.037  17.260  17.819  0.00  0.00    +0.000 A 
ATOM     11  C   UNL     1       1.231  18.080  17.030  0.00  0.00    +0.000 A 
ATOM     12  C   UNL     1      -0.157  18.012  17.143  0.00  0.00    +0.000 A 
ATOM     13  C   UNL     1      -0.742  17.124  18.047  0.00  0.00    +0.000 A 
ENDBRANCH   5   8
BRANCH   5  14
ATOM     14  C   UNL     1      -1.310  15.850  20.973  0.00  0.00    +0.000 A 
ATOM     15  C   UNL     1      -0.627  16.167  22.155  0.00  0.00    +0.000 A 
ATOM     16  C   UNL     1      -1.332  16.579  23.287  0.00  0.00    +0.000 A 
ATOM     17  C   UNL     1      -2.723  16.679  23.245  0.00  0.00    +0.000 A 
ATOM     18  C   UNL     1      -3.410  16.365  22.073  0.00  0.00    +0.000 A 
ATOM     19  C   UNL     1      -2.707  15.952  20.938  0.00  0.00    +0.000 A 
ENDBRANCH   5  14
BRANCH   1  20
ATOM     20  C   UNL     1       0.299  10.072  19.652  0.00  0.00    +0.000 C 
BRANCH  20  21
ATOM     21  C   UNL     1       1.204   8.922  20.160  0.00  0.00    +0.000 C 
ATOM     22  O   UNL     1       1.356   8.657  21.351  0.00  0.00    +0.000 OA
ATOM     23  N   UNL     1       1.867   8.246  19.155  0.00  0.00    +0.000 N 
ATOM     24  H   UNL     1       1.446   8.271  18.235  0.00  0.00    +0.000 HD
BRANCH  23  25
ATOM     25  C   UNL     1       2.760   7.157  19.472  0.00  0.00    +0.000 C 
BRANCH  25  26
ATOM     26  C   UNL     1       2.104   5.813  19.277  0.00  0.00    +0.000 A 
ATOM     27  C   UNL     1       2.087   5.198  18.011  0.00  0.00    +0.000 A 
ATOM     28  C   UNL     1       1.522   3.931  17.846  0.00  0.00    +0.000 A 
ATOM     29  C   UNL     1       0.983   3.273  18.944  0.00  0.00    +0.000 A 
ATOM     30  F   UNL     1       0.448   2.055  18.787  0.00  0.00    +0.000 F 
ATOM     31  C   UNL     1       0.995   3.858  20.205  0.00  0.00    +0.000 A 
ATOM     32  C   UNL     1       1.555   5.125  20.370  0.00  0.00    +0.000 A 
ENDBRANCH  25  26
ENDBRANCH  23  25
ENDBRANCH  20  21
BRANCH  20  33
ATOM     33  C   UNL     1      -0.031   9.851  18.166  0.00  0.00    +0.000 C 
BRANCH  33  34
ATOM     34  C   UNL     1      -1.529  10.036  17.890  0.00  0.00    +0.000 C 
BRANCH  34  35
ATOM     35  N   UNL     1      -1.733  11.036  16.845  0.00  0.00    +0.000 NA
ATOM     36  H   UNL     1      -0.826  11.344  16.495  0.00  0.00    +0.000 HD
ATOM     37  H   UNL     1      -2.166  11.864  17.257  0.00  0.00    +0.000 HD
ENDBRANCH  34  35
ENDBRANCH  33  34
ENDBRANCH  20  33
ENDBRANCH   1  20
TORSDOF 9
ENDMDL
MODEL 2
REMARK VINA RESULT:      -7.5      0.395      1.237
REMARK  Name = 
REMARK  9 active torsions:
REMARK  status: ('A' for Active; 'I' for Inactive)
REMARK    1  A    between atoms: N_1  and  C_2
REMARK    2  A    between atoms: C_2  and  C_3
REMARK    3  A    between atoms: C_3  and  C_4
REMARK    4  A    between atoms: C_4  and  C_5
REMARK    5  A    between atoms: C_4  and  N_16
REMARK    6  A    between atoms: N_7  and  C_8
REMARK    7  A    between atoms: C_8  and  C_9
REMARK    8  A    between atoms: C_20  and  C_21
REMARK    9  A    between atoms: C_20  and  C_27
REMARK                            x       y       z     vdW  Elec       q    Type
REMARK                         _______ _______ _______ _____ _____    ______ ____
ROOT
ATOM      1  N   UNL     1       1.016  11.251  19.935  0.00  0.00    +0.000 NA
ATOM      2  C   UNL     1       1.454  12.196  18.892  0.00  0.00    +0.000 C 
ATOM      3  C   UNL     1       0.427  13.249  18.408  0.00  0.00    +0.000 C 
ATOM      4  C   UNL     1      -0.328  13.896  19.564  0.00  0.00    +0.000 C 
ATOM      5  C   UNL     1      -0.469  15.228  19.784  0.00  0.00    +0.000 C 
ATOM      6  C   UNL     1      -0.890  12.830  20.480  0.00  0.00    +0.000 C 
ATOM      7  C   UNL     1       0.238  11.926  20.983  0.00  0.00    +0.000 C 
ENDROOT
BRANCH   5   8
ATOM      8  C   UNL     1       0.132  16.209  18.854  0.00  0.00    +0.000 A 
ATOM      9  C   UNL     1       1.522  16.295  18.721  0.00  0.00    +0.000 A 
ATOM     10  C   UNL     1       2.087  17.214  17.835  0.00  0.00    +0.000 A 
ATOM     11  C   UNL     1       1.265  18.048  17.078  0.00  0.00    +0.000 A 
ATOM     12  C   UNL     1      -0.121  17.965  17.204  0.00  0.00    +0.000 A 
ATOM     13  C   UNL     1      -0.689  17.047  18.089  0.00  0.00    +0.000 A 
ENDBRANCH   5   8
BRANCH   5  14
ATOM     14  C   UNL     1      -1.214  15.686  20.984  0.00  0.00    +0.000 A 
ATOM     15  C   UNL     1      -2.604  15.852  20.922  0.00  0.00    +0.000 A 
ATOM     16  C   UNL     1      -3.305  16.339  22.026  0.00  0.00    +0.000 A 
ATOM     17  C   UNL     1      -2.623  16.661  23.199  0.00  0.00    +0.000 A 
ATOM     18  C   UNL     1      -1.240  16.498  23.269  0.00  0.00    +0.000 A 
ATOM     19  C   UNL     1      -0.535  16.011  22.165  0.00  0.00    +0.000 A 
ENDBRANCH   5  14
BRANCH   1  20
ATOM     20  C   UNL     1       0.434   9.962  19.486  0.00  0.00    +0.000 C 
BRANCH  20  21
ATOM     21  C   UNL     1       1.227   8.801  20.135  0.00  0.00    +0.000 C 
ATOM     22  O   UNL     1       1.192   8.547  21.338  0.00  0.00    +0.000 OA
ATOM     23  N   UNL     1       2.020   8.099  19.248  0.00  0.00    +0.000 N 
ATOM     24  H   UNL     1       1.742   8.121  18.275  0.00  0.00    +0.000 HD
BRANCH  23  25
ATOM     25  C   UNL     1       2.831   6.997  19.707  0.00  0.00    +0.000 C 
BRANCH  25  26
ATOM     26  C   UNL     1       2.186   5.663  19.420  0.00  0.00    +0.000 A 
ATOM     27  C   UNL     1       1.574   4.924  20.449  0.00  0.00    +0.000 A 
ATOM     28  C   UNL     1       0.934   3.714  20.167  0.00  0.00    +0.000 A 
ATOM     29  C   UNL     1       0.897   3.246  18.861  0.00  0.00    +0.000 A 
ATOM     30  F   UNL     1       0.277   2.089  18.591  0.00  0.00    +0.000 F 
ATOM     31  C   UNL     1       1.488   3.963  17.827  0.00  0.00    +0.000 A 
ATOM     32  C   UNL     1       2.131   5.170  18.107  0.00  0.00    +0.000 A 
ENDBRANCH  25  26
ENDBRANCH  23  25
ENDBRANCH  20  21
BRANCH  20  33
ATOM     33  C   UNL     1       0.279   9.701  17.977  0.00  0.00    +0.000 C 
BRANCH  33  34
ATOM     34  C   UNL     1      -1.143  10.018  17.496  0.00  0.00    +0.000 C 
BRANCH  34  35
ATOM     35  N   UNL     1      -2.029  10.232  18.637  0.00  0.00    +0.000 NA
ATOM     36  H   UNL     1      -2.997  10.128  18.334  0.00  0.00    +0.000 HD
ATOM     37  H   UNL     1      -1.940  11.199  18.951  0.00  0.00    +0.000 HD
ENDBRANCH  34  35
ENDBRANCH  33  34
ENDBRANCH  20  33
ENDBRANCH   1  20
TORSDOF 9
ENDMDL
MODEL 3
REMARK VINA RESULT:      -7.4      1.049      1.564
REMARK  Name = 
REMARK  9 active torsions:
REMARK  status: ('A' for Active; 'I' for Inactive)
REMARK    1  A    between atoms: N_1  and  C_2
REMARK    2  A    between atoms: C_2  and  C_3
REMARK    3  A    between atoms: C_3  and  C_4
REMARK    4  A    between atoms: C_4  and  C_5
REMARK    5  A    between atoms: C_4  and  N_16
REMARK    6  A    between atoms: N_7  and  C_8
REMARK    7  A    between atoms: C_8  and  C_9
REMARK    8  A    between atoms: C_20  and  C_21
REMARK    9  A    between atoms: C_20  and  C_27
REMARK                            x       y       z     vdW  Elec       q    Type
REMARK                         _______ _______ _______ _____ _____    ______ ____
ROOT
ATOM      1  N   UNL     1       1.008  11.086  19.667  0.00  0.00    +0.000 NA
ATOM      2  C   UNL     1       1.344  12.217  18.784  0.00  0.00    +0.000 C 
ATOM      3  C   UNL     1       0.263  13.307  18.579  0.00  0.00    +0.000 C 
ATOM      4  C   UNL     1      -0.407  13.710  19.887  0.00  0.00    +0.000 C 
ATOM      5  C   UNL     1      -0.554  14.975  20.357  0.00  0.00    +0.000 C 
ATOM      6  C   UNL     1      -0.876  12.479  20.633  0.00  0.00    +0.000 C 
ATOM      7  C   UNL     1       0.304  11.535  20.876  0.00  0.00    +0.000 C 
ENDROOT
BRANCH   5   8
ATOM      8  C   UNL     1      -0.047  16.126  19.579  0.00  0.00    +0.000 A 
ATOM      9  C   UNL     1      -0.877  16.779  18.660  0.00  0.00    +0.000 A 
ATOM     10  C   UNL     1      -0.398  17.871  17.935  0.00  0.00    +0.000 A 
ATOM     11  C   UNL     1       0.909  18.317  18.126  0.00  0.00    +0.000 A 
ATOM     12  C   UNL     1       1.739  17.674  19.043  0.00  0.00    +0.000 A 
ATOM     13  C   UNL     1       1.264  16.581  19.770  0.00  0.00    +0.000 A 
ENDBRANCH   5   8
BRANCH   5  14
ATOM     14  C   UNL     1      -1.208  15.185  21.672  0.00  0.00    +0.000 A 
ATOM     15  C   UNL     1      -0.455  15.087  22.850  0.00  0.00    +0.000 A 
ATOM     16  C   UNL     1      -1.073  15.224  24.094  0.00  0.00    +0.000 A 
ATOM     17  C   UNL     1      -2.445  15.461  24.170  0.00  0.00    +0.000 A 
ATOM     18  C   UNL     1      -3.202  15.560  23.003  0.00  0.00    +0.000 A 
ATOM     19  C   UNL     1      -2.586  15.423  21.756  0.00  0.00    +0.000 A 
ENDBRANCH   5  14
BRANCH   1  20
ATOM     20  C   UNL     1       0.415   9.881  19.035  0.00  0.00    +0.000 C 
BRANCH  20  21
ATOM     21  C   UNL     1       1.545   8.869  18.726  0.00  0.00    +0.000 C 
ATOM     22  O   UNL     1       2.150   8.836  17.656  0.00  0.00    +0.000 OA
ATOM     23  N   UNL     1       1.785   7.969  19.746  0.00  0.00    +0.000 N 
ATOM     24  H   UNL     1       1.525   8.260  20.680  0.00  0.00    +0.000 HD
BRANCH  23  25
ATOM     25  C   UNL     1       2.800   6.953  19.601  0.00  0.00    +0.000 C 
BRANCH  25  26
ATOM     26  C   UNL     1       2.204   5.589  19.356  0.00  0.00    +0.000 A 
ATOM     27  C   UNL     1       1.600   4.870  20.403  0.00  0.00    +0.000 A 
ATOM     28  C   UNL     1       1.005   3.629  20.160  0.00  0.00    +0.000 A 
ATOM     29  C   UNL     1       1.003   3.110  18.871  0.00  0.00    +0.000 A 
ATOM     30  F   UNL     1       0.426   1.925  18.637  0.00  0.00    +0.000 F 
ATOM     31  C   UNL     1       1.588   3.808  17.820  0.00  0.00    +0.000 A 
ATOM     32  C   UNL     1       2.186   5.045  18.062  0.00  0.00    +0.000 A 
ENDBRANCH  25  26
ENDBRANCH  23  25
ENDBRANCH  20  21
BRANCH  20  33
ATOM     33  C   UNL     1      -0.477  10.055  17.793  0.00  0.00    +0.000 C 
BRANCH  33  34
ATOM     34  C   UNL     1      -1.958  10.173  18.177  0.00  0.00    +0.000 C 
BRANCH  34  35
ATOM     35  N   UNL     1      -2.561  11.331  17.524  0.00  0.00    +0.000 NA
ATOM     36  H   UNL     1      -3.309  11.016  16.906  0.00  0.00    +0.000 HD
ATOM     37  H   UNL     1      -1.868  11.769  16.916  0.00  0.00    +0.000 HD
ENDBRANCH  34  35
ENDBRANCH  33  34
ENDBRANCH  20  33
ENDBRANCH   1  20
TORSDOF 9
ENDMDL
MODEL 4
REMARK VINA RESULT:      -7.3      0.688      1.573
REMARK  Name = 
REMARK  9 active torsions:
REMARK  status: ('A' for Active; 'I' for Inactive)
REMARK    1  A    between atoms: N_1  and  C_2
REMARK    2  A    between atoms: C_2  and  C_3
REMARK    3  A    between atoms: C_3  and  C_4
REMARK    4  A    between atoms: C_4  and  C_5
REMARK    5  A    between atoms: C_4  and  N_16
REMARK    6  A    between atoms: N_7  and  C_8
REMARK    7  A    between atoms: C_8  and  C_9
REMARK    8  A    between atoms: C_20  and  C_21
REMARK    9  A    between atoms: C_20  and  C_27
REMARK                            x       y       z     vdW  Elec       q    Type
REMARK                         _______ _______ _______ _____ _____    ______ ____
ROOT
ATOM      1  N   UNL     1       0.593  11.204  20.543  0.00  0.00    +0.000 NA
ATOM      2  C   UNL     1       1.225  12.230  19.695  0.00  0.00    +0.000 C 
ATOM      3  C   UNL     1       0.297  13.279  19.035  0.00  0.00    +0.000 C 
ATOM      4  C   UNL     1      -0.746  13.822  20.005  0.00  0.00    +0.000 C 
ATOM      5  C   UNL     1      -1.000  15.131  20.260  0.00  0.00    +0.000 C 
ATOM      6  C   UNL     1      -1.462  12.680  20.693  0.00  0.00    +0.000 C 
ATOM      7  C   UNL     1      -0.448  11.781  21.405  0.00  0.00    +0.000 C 
ENDROOT
BRANCH   5   8
ATOM      8  C   UNL     1      -0.239  16.191  19.564  0.00  0.00    +0.000 A 
ATOM      9  C   UNL     1      -0.714  16.727  18.361  0.00  0.00    +0.000 A 
ATOM     10  C   UNL     1       0.001  17.735  17.712  0.00  0.00    +0.000 A 
ATOM     11  C   UNL     1       1.191  18.212  18.261  0.00  0.00    +0.000 A 
ATOM     12  C   UNL     1       1.667  17.684  19.461  0.00  0.00    +0.000 A 
ATOM     13  C   UNL     1       0.954  16.677  20.113  0.00  0.00    +0.000 A 
ENDBRANCH   5   8
BRANCH   5  14
ATOM     14  C   UNL     1      -2.034  15.483  21.264  0.00  0.00    +0.000 A 
ATOM     15  C   UNL     1      -3.356  15.710  20.856  0.00  0.00    +0.000 A 
ATOM     16  C   UNL     1      -4.323  16.099  21.784  0.00  0.00    +0.000 A 
ATOM     17  C   UNL     1      -3.977  16.262  23.125  0.00  0.00    +0.000 A 
ATOM     18  C   UNL     1      -2.664  16.039  23.540  0.00  0.00    +0.000 A 
ATOM     19  C   UNL     1      -1.694  15.649  22.613  0.00  0.00    +0.000 A 
ENDBRANCH   5  14
BRANCH   1  20
ATOM     20  C   UNL     1       0.200   9.929  19.892  0.00  0.00    +0.000 C 
BRANCH  20  21
ATOM     21  C   UNL     1       1.187   8.818  20.327  0.00  0.00    +0.000 C 
ATOM     22  O   UNL     1       1.436   8.557  21.503  0.00  0.00    +0.000 OA
ATOM     23  N   UNL     1       1.805   8.174  19.274  0.00  0.00    +0.000 N 
ATOM     24  H   UNL     1       1.318   8.182  18.387  0.00  0.00    +0.000 HD
BRANCH  23  25
ATOM     25  C   UNL     1       2.764   7.124  19.520  0.00  0.00    +0.000 C 
BRANCH  25  26
ATOM     26  C   UNL     1       2.165   5.753  19.323  0.00  0.00    +0.000 A 
ATOM     27  C   UNL     1       1.580   5.063  20.401  0.00  0.00    +0.000 A 
ATOM     28  C   UNL     1       0.981   3.816  20.202  0.00  0.00    +0.000 A 
ATOM     29  C   UNL     1       0.957   3.262  18.929  0.00  0.00    +0.000 A 
ATOM     30  F   UNL     1       0.377   2.070  18.737  0.00  0.00    +0.000 F 
ATOM     31  C   UNL     1       1.523   3.930  17.848  0.00  0.00    +0.000 A 
ATOM     32  C   UNL     1       2.125   5.173  18.046  0.00  0.00    +0.000 A 
ENDBRANCH  25  26
ENDBRANCH  23  25
ENDBRANCH  20  21
BRANCH  20  33
ATOM     33  C   UNL     1       0.028   9.897  18.363  0.00  0.00    +0.000 C 
BRANCH  33  34
ATOM     34  C   UNL     1      -1.447  10.033  17.961  0.00  0.00    +0.000 C 
BRANCH  34  35
ATOM     35  N   UNL     1      -1.624  11.166  17.057  0.00  0.00    +0.000 NA
ATOM     36  H   UNL     1      -0.752  11.332  16.553  0.00  0.00    +0.000 HD
ATOM     37  H   UNL     1      -1.790  12.009  17.607  0.00  0.00    +0.000 HD
ENDBRANCH  34  35
ENDBRANCH  33  34
ENDBRANCH  20  33
ENDBRANCH   1  20
TORSDOF 9
ENDMDL
MODEL 5
REMARK VINA RESULT:      -7.1      4.821      8.185
REMARK  Name = 
REMARK  9 active torsions:
REMARK  status: ('A' for Active; 'I' for Inactive)
REMARK    1  A    between atoms: N_1  and  C_2
REMARK    2  A    between atoms: C_2  and  C_3
REMARK    3  A    between atoms: C_3  and  C_4
REMARK    4  A    between atoms: C_4  and  C_5
REMARK    5  A    between atoms: C_4  and  N_16
REMARK    6  A    between atoms: N_7  and  C_8
REMARK    7  A    between atoms: C_8  and  C_9
REMARK    8  A    between atoms: C_20  and  C_21
REMARK    9  A    between atoms: C_20  and  C_27
REMARK                            x       y       z     vdW  Elec       q    Type
REMARK                         _______ _______ _______ _____ _____    ______ ____
ROOT
ATOM      1  N   UNL     1       3.132  14.191  18.872  0.00  0.00    +0.000 NA
ATOM      2  C   UNL     1       3.038  13.547  20.195  0.00  0.00    +0.000 C 
ATOM      3  C   UNL     1       1.621  13.332  20.782  0.00  0.00    +0.000 C 
ATOM      4  C   UNL     1       0.642  12.788  19.749  0.00  0.00    +0.000 C 
ATOM      5  C   UNL     1      -0.150  11.695  19.891  0.00  0.00    +0.000 C 
ATOM      6  C   UNL     1       0.690  13.631  18.492  0.00  0.00    +0.000 C 
ATOM      7  C   UNL     1       2.118  13.671  17.944  0.00  0.00    +0.000 C 
ENDROOT
BRANCH   5   8
ATOM      8  C   UNL     1      -0.122  10.907  21.143  0.00  0.00    +0.000 A 
ATOM      9  C   UNL     1       0.840   9.907  21.325  0.00  0.00    +0.000 A 
ATOM     10  C   UNL     1       0.871   9.172  22.512  0.00  0.00    +0.000 A 
ATOM     11  C   UNL     1      -0.056   9.436  23.520  0.00  0.00    +0.000 A 
ATOM     12  C   UNL     1      -1.013  10.434  23.345  0.00  0.00    +0.000 A 
ATOM     13  C   UNL     1      -1.047  11.170  22.160  0.00  0.00    +0.000 A 
ENDBRANCH   5   8
BRANCH   5  14
ATOM     14  C   UNL     1      -1.026  11.287  18.764  0.00  0.00    +0.000 A 
ATOM     15  C   UNL     1      -2.248  11.941  18.556  0.00  0.00    +0.000 A 
ATOM     16  C   UNL     1      -3.104  11.525  17.536  0.00  0.00    +0.000 A 
ATOM     17  C   UNL     1      -2.747  10.456  16.717  0.00  0.00    +0.000 A 
ATOM     18  C   UNL     1      -1.533   9.798  16.917  0.00  0.00    +0.000 A 
ATOM     19  C   UNL     1      -0.673  10.213  17.937  0.00  0.00    +0.000 A 
ENDBRANCH   5  14
BRANCH   1  20
ATOM     20  C   UNL     1       3.278  15.668  18.842  0.00  0.00    +0.000 C 
BRANCH  20  21
ATOM     21  C   UNL     1       4.741  16.020  18.480  0.00  0.00    +0.000 C 
ATOM     22  O   UNL     1       5.209  17.154  18.577  0.00  0.00    +0.000 OA
ATOM     23  N   UNL     1       5.470  14.953  17.991  0.00  0.00    +0.000 N 
ATOM     24  H   UNL     1       5.160  14.029  18.262  0.00  0.00    +0.000 HD
BRANCH  23  25
ATOM     25  C   UNL     1       6.847  15.128  17.596  0.00  0.00    +0.000 C 
BRANCH  25  26
ATOM     26  C   UNL     1       7.743  14.068  18.186  0.00  0.00    +0.000 A 
ATOM     27  C   UNL     1       8.159  14.144  19.528  0.00  0.00    +0.000 A 
ATOM     28  C   UNL     1       8.947  13.133  20.084  0.00  0.00    +0.000 A 
ATOM     29  C   UNL     1       9.312  12.042  19.306  0.00  0.00    +0.000 A 
ATOM     30  F   UNL     1      10.062  11.069  19.841  0.00  0.00    +0.000 F 
ATOM     31  C   UNL     1       8.905  11.942  17.980  0.00  0.00    +0.000 A 
ATOM     32  C   UNL     1       8.122  12.953  17.422  0.00  0.00    +0.000 A 
ENDBRANCH  25  26
ENDBRANCH  23  25
ENDBRANCH  20  21
BRANCH  20  33
ATOM     33  C   UNL     1       2.838  16.484  20.070  0.00  0.00    +0.000 C 
BRANCH  33  34
ATOM     34  C   UNL     1       1.692  17.445  19.725  0.00  0.00    +0.000 C 
BRANCH  34  35
ATOM     35  N   UNL     1       0.403  16.813  19.991  0.00  0.00    +0.000 NA
ATOM     36  H   UNL     1      -0.093  17.350  20.703  0.00  0.00    +0.000 HD
ATOM     37  H   UNL     1       0.561  15.892  20.401  0.00  0.00    +0.000 HD
ENDBRANCH  34  35
ENDBRANCH  33  34
ENDBRANCH  20  33
ENDBRANCH   1  20
TORSDOF 9
ENDMDL
MODEL 6
REMARK VINA RESULT:      -7.1      4.666      8.240
REMARK  Name = 
REMARK  9 active torsions:
REMARK  status: ('A' for Active; 'I' for Inactive)
REMARK    1  A    between atoms: N_1  and  C_2
REMARK    2  A    between atoms: C_2  and  C_3
REMARK    3  A    between atoms: C_3  and  C_4
REMARK    4  A    between atoms: C_4  and  C_5
REMARK    5  A    between atoms: C_4  and  N_16
REMARK    6  A    between atoms: N_7  and  C_8
REMARK    7  A    between atoms: C_8  and  C_9
REMARK    8  A    between atoms: C_20  and  C_21
REMARK    9  A    between atoms: C_20  and  C_27
REMARK                            x       y       z     vdW  Elec       q    Type
REMARK                         _______ _______ _______ _____ _____    ______ ____
ROOT
ATOM      1  N   UNL     1       2.003  14.774  19.782  0.00  0.00    +0.000 NA
ATOM      2  C   UNL     1       0.581  14.778  19.394  0.00  0.00    +0.000 C 
ATOM      3  C   UNL     1       0.129  13.747  18.330  0.00  0.00    +0.000 C 
ATOM      4  C   UNL     1       0.705  12.359  18.588  0.00  0.00    +0.000 C 
ATOM      5  C   UNL     1       0.004  11.199  18.655  0.00  0.00    +0.000 C 
ATOM      6  C   UNL     1       2.202  12.447  18.796  0.00  0.00    +0.000 C 
ATOM      7  C   UNL     1       2.513  13.406  19.948  0.00  0.00    +0.000 C 
ENDROOT
BRANCH   5   8
ATOM      8  C   UNL     1      -1.463  11.199  18.464  0.00  0.00    +0.000 A 
ATOM      9  C   UNL     1      -2.288  11.917  19.336  0.00  0.00    +0.000 A 
ATOM     10  C   UNL     1      -3.671  11.924  19.148  0.00  0.00    +0.000 A 
ATOM     11  C   UNL     1      -4.234  11.215  18.087  0.00  0.00    +0.000 A 
ATOM     12  C   UNL     1      -3.417  10.501  17.212  0.00  0.00    +0.000 A 
ATOM     13  C   UNL     1      -2.033  10.492  17.398  0.00  0.00    +0.000 A 
ENDBRANCH   5   8
BRANCH   5  14
ATOM     14  C   UNL     1       0.725   9.935  18.947  0.00  0.00    +0.000 A 
ATOM     15  C   UNL     1       0.741   9.426  20.253  0.00  0.00    +0.000 A 
ATOM     16  C   UNL     1       1.465   8.271  20.549  0.00  0.00    +0.000 A 
ATOM     17  C   UNL     1       2.178   7.616  19.545  0.00  0.00    +0.000 A 
ATOM     18  C   UNL     1       2.168   8.117  18.243  0.00  0.00    +0.000 A 
ATOM     19  C   UNL     1       1.443   9.273  17.943  0.00  0.00    +0.000 A 
ENDBRANCH   5  14
BRANCH   1  20
ATOM     20  C   UNL     1       2.916  15.673  19.033  0.00  0.00    +0.000 C 
BRANCH  20  21
ATOM     21  C   UNL     1       4.277  15.731  19.768  0.00  0.00    +0.000 C 
ATOM     22  O   UNL     1       4.387  15.957  20.972  0.00  0.00    +0.000 OA
ATOM     23  N   UNL     1       5.369  15.552  18.941  0.00  0.00    +0.000 N 
ATOM     24  H   UNL     1       5.210  15.039  18.083  0.00  0.00    +0.000 HD
BRANCH  23  25
ATOM     25  C   UNL     1       6.708  15.594  19.478  0.00  0.00    +0.000 C 
BRANCH  25  26
ATOM     26  C   UNL     1       7.554  14.451  18.976  0.00  0.00    +0.000 A 
ATOM     27  C   UNL     1       8.566  13.897  19.782  0.00  0.00    +0.000 A 
ATOM     28  C   UNL     1       9.313  12.805  19.331  0.00  0.00    +0.000 A 
ATOM     29  C   UNL     1       9.045  12.260  18.082  0.00  0.00    +0.000 A 
ATOM     30  F   UNL     1       9.756  11.209  17.654  0.00  0.00    +0.000 F 
ATOM     31  C   UNL     1       8.045  12.786  17.273  0.00  0.00    +0.000 A 
ATOM     32  C   UNL     1       7.301  13.879  17.719  0.00  0.00    +0.000 A 
ENDBRANCH  25  26
ENDBRANCH  23  25
ENDBRANCH  20  21
BRANCH  20  33
ATOM     33  C   UNL     1       2.447  17.100  18.701  0.00  0.00    +0.000 C 
BRANCH  33  34
ATOM     34  C   UNL     1       2.346  17.320  17.185  0.00  0.00    +0.000 C 
BRANCH  34  35
ATOM     35  N   UNL     1       1.480  18.459  16.894  0.00  0.00    +0.000 NA
ATOM     36  H   UNL     1       1.772  19.256  17.461  0.00  0.00    +0.000 HD
ATOM     37  H   UNL     1       0.530  18.241  17.194  0.00  0.00    +0.000 HD
ENDBRANCH  34  35
ENDBRANCH  33  34
ENDBRANCH  20  33
ENDBRANCH   1  20
TORSDOF 9
ENDMDL
MODEL 7
REMARK VINA RESULT:      -7.1      1.781      3.612
REMARK  Name = 
REMARK  9 active torsions:
REMARK  status: ('A' for Active; 'I' for Inactive)
REMARK    1  A    between atoms: N_1  and  C_2
REMARK    2  A    between atoms: C_2  and  C_3
REMARK    3  A    between atoms: C_3  and  C_4
REMARK    4  A    between atoms: C_4  and  C_5
REMARK    5  A    between atoms: C_4  and  N_16
REMARK    6  A    between atoms: N_7  and  C_8
REMARK    7  A    between atoms: C_8  and  C_9
REMARK    8  A    between atoms: C_20  and  C_21
REMARK    9  A    between atoms: C_20  and  C_27
REMARK                            x       y       z     vdW  Elec       q    Type
REMARK                         _______ _______ _______ _____ _____    ______ ____
ROOT
ATOM      1  N   UNL     1       0.982  11.604  18.546  0.00  0.00    +0.000 NA
ATOM      2  C   UNL     1      -0.214  12.458  18.660  0.00  0.00    +0.000 C 
ATOM      3  C   UNL     1      -0.197  13.567  19.741  0.00  0.00    +0.000 C 
ATOM      4  C   UNL     1       1.123  14.329  19.767  0.00  0.00    +0.000 C 
ATOM      5  C   UNL     1       1.273  15.677  19.715  0.00  0.00    +0.000 C 
ATOM      6  C   UNL     1       2.283  13.359  19.831  0.00  0.00    +0.000 C 
ATOM      7  C   UNL     1       2.219  12.391  18.647  0.00  0.00    +0.000 C 
ENDROOT
BRANCH   5   8
ATOM      8  C   UNL     1       0.088  16.559  19.630  0.00  0.00    +0.000 A 
ATOM      9  C   UNL     1      -0.598  16.934  20.791  0.00  0.00    +0.000 A 
ATOM     10  C   UNL     1      -1.709  17.775  20.708  0.00  0.00    +0.000 A 
ATOM     11  C   UNL     1      -2.138  18.246  19.467  0.00  0.00    +0.000 A 
ATOM     12  C   UNL     1      -1.456  17.879  18.308  0.00  0.00    +0.000 A 
ATOM     13  C   UNL     1      -0.344  17.038  18.387  0.00  0.00    +0.000 A 
ENDBRANCH   5   8
BRANCH   5  14
ATOM     14  C   UNL     1       2.641  16.252  19.719  0.00  0.00    +0.000 A 
ATOM     15  C   UNL     1       3.420  16.209  18.555  0.00  0.00    +0.000 A 
ATOM     16  C   UNL     1       4.729  16.693  18.566  0.00  0.00    +0.000 A 
ATOM     17  C   UNL     1       5.267  17.225  19.738  0.00  0.00    +0.000 A 
ATOM     18  C   UNL     1       4.498  17.272  20.900  0.00  0.00    +0.000 A 
ATOM     19  C   UNL     1       3.187  16.788  20.893  0.00  0.00    +0.000 A 
ENDBRANCH   5  14
BRANCH   1  20
ATOM     20  C   UNL     1       0.999  10.346  19.334  0.00  0.00    +0.000 C 
BRANCH  20  21
ATOM     21  C   UNL     1       1.685   9.239  18.497  0.00  0.00    +0.000 C 
ATOM     22  O   UNL     1       1.734   9.252  17.268  0.00  0.00    +0.000 OA
ATOM     23  N   UNL     1       2.201   8.205  19.253  0.00  0.00    +0.000 N 
ATOM     24  H   UNL     1       2.438   8.417  20.213  0.00  0.00    +0.000 HD
BRANCH  23  25
ATOM     25  C   UNL     1       2.859   7.090  18.614  0.00  0.00    +0.000 C 
BRANCH  25  26
ATOM     26  C   UNL     1       2.194   5.777  18.943  0.00  0.00    +0.000 A 
ATOM     27  C   UNL     1       1.955   4.820  17.940  0.00  0.00    +0.000 A 
ATOM     28  C   UNL     1       1.384   3.585  18.260  0.00  0.00    +0.000 A 
ATOM     29  C   UNL     1       1.061   3.300  19.580  0.00  0.00    +0.000 A 
ATOM     30  F   UNL     1       0.521   2.114  19.887  0.00  0.00    +0.000 F 
ATOM     31  C   UNL     1       1.296   4.228  20.589  0.00  0.00    +0.000 A 
ATOM     32  C   UNL     1       1.862   5.463  20.271  0.00  0.00    +0.000 A 
ENDBRANCH  25  26
ENDBRANCH  23  25
ENDBRANCH  20  21
BRANCH  20  33
ATOM     33  C   UNL     1      -0.324   9.812  19.911  0.00  0.00    +0.000 C 
BRANCH  33  34
ATOM     34  C   UNL     1      -0.331   9.869  21.445  0.00  0.00    +0.000 C 
BRANCH  34  35
ATOM     35  N   UNL     1       0.687  10.800  21.923  0.00  0.00    +0.000 NA
ATOM     36  H   UNL     1       0.367  11.756  21.767  0.00  0.00    +0.000 HD
ATOM     37  H   UNL     1       1.528  10.694  21.355  0.00  0.00    +0.000 HD
ENDBRANCH  34  35
ENDBRANCH  33  34
ENDBRANCH  20  33
ENDBRANCH   1  20
TORSDOF 9
ENDMDL
MODEL 8
REMARK VINA RESULT:      -7.1      1.119      1.699
REMARK  Name = 
REMARK  9 active torsions:
REMARK  status: ('A' for Active; 'I' for Inactive)
REMARK    1  A    between atoms: N_1  and  C_2
REMARK    2  A    between atoms: C_2  and  C_3
REMARK    3  A    between atoms: C_3  and  C_4
REMARK    4  A    between atoms: C_4  and  C_5
REMARK    5  A    between atoms: C_4  and  N_16
REMARK    6  A    between atoms: N_7  and  C_8
REMARK    7  A    between atoms: C_8  and  C_9
REMARK    8  A    between atoms: C_20  and  C_21
REMARK    9  A    between atoms: C_20  and  C_27
REMARK                            x       y       z     vdW  Elec       q    Type
REMARK                         _______ _______ _______ _____ _____    ______ ____
ROOT
ATOM      1  N   UNL     1       0.475  11.849  19.811  0.00  0.00    +0.000 NA
ATOM      2  C   UNL     1       0.722  12.670  18.612  0.00  0.00    +0.000 C 
ATOM      3  C   UNL     1      -0.210  13.885  18.376  0.00  0.00    +0.000 C 
ATOM      4  C   UNL     1      -0.447  14.689  19.649  0.00  0.00    +0.000 C 
ATOM      5  C   UNL     1      -0.284  16.028  19.795  0.00  0.00    +0.000 C 
ATOM      6  C   UNL     1      -0.871  13.769  20.774  0.00  0.00    +0.000 C 
ATOM      7  C   UNL     1       0.187  12.682  20.986  0.00  0.00    +0.000 C 
ENDROOT
BRANCH   5   8
ATOM      8  C   UNL     1       0.157  16.857  18.651  0.00  0.00    +0.000 A 
ATOM      9  C   UNL     1      -0.779  17.569  17.893  0.00  0.00    +0.000 A 
ATOM     10  C   UNL     1      -0.359  18.358  16.821  0.00  0.00    +0.000 A 
ATOM     11  C   UNL     1       0.997  18.442  16.505  0.00  0.00    +0.000 A 
ATOM     12  C   UNL     1       1.934  17.738  17.259  0.00  0.00    +0.000 A 
ATOM     13  C   UNL     1       1.518  16.948  18.332  0.00  0.00    +0.000 A 
ENDBRANCH   5   8
BRANCH   5  14
ATOM     14  C   UNL     1      -0.530  16.645  21.121  0.00  0.00    +0.000 A 
ATOM     15  C   UNL     1       0.510  16.727  22.058  0.00  0.00    +0.000 A 
ATOM     16  C   UNL     1       0.273  17.251  23.329  0.00  0.00    +0.000 A 
ATOM     17  C   UNL     1      -1.002  17.699  23.673  0.00  0.00    +0.000 A 
ATOM     18  C   UNL     1      -2.042  17.622  22.747  0.00  0.00    +0.000 A 
ATOM     19  C   UNL     1      -1.808  17.097  21.473  0.00  0.00    +0.000 A 
ENDBRANCH   5  14
BRANCH   1  20
ATOM     20  C   UNL     1      -0.429  10.680  19.662  0.00  0.00    +0.000 C 
BRANCH  20  21
ATOM     21  C   UNL     1       0.071   9.540  20.583  0.00  0.00    +0.000 C 
ATOM     22  O   UNL     1      -0.462   9.252  21.653  0.00  0.00    +0.000 OA
ATOM     23  N   UNL     1       1.203   8.900  20.118  0.00  0.00    +0.000 N 
ATOM     24  H   UNL     1       1.368   8.935  19.120  0.00  0.00    +0.000 HD
BRANCH  23  25
ATOM     25  C   UNL     1       1.798   7.824  20.875  0.00  0.00    +0.000 C 
BRANCH  25  26
ATOM     26  C   UNL     1       1.931   6.564  20.056  0.00  0.00    +0.000 A 
ATOM     27  C   UNL     1       1.509   5.324  20.571  0.00  0.00    +0.000 A 
ATOM     28  C   UNL     1       1.589   4.169  19.789  0.00  0.00    +0.000 A 
ATOM     29  C   UNL     1       2.079   4.251  18.492  0.00  0.00    +0.000 A 
ATOM     30  F   UNL     1       2.148   3.144  17.741  0.00  0.00    +0.000 F 
ATOM     31  C   UNL     1       2.494   5.467  17.961  0.00  0.00    +0.000 A 
ATOM     32  C   UNL     1       2.420   6.621  18.741  0.00  0.00    +0.000 A 
ENDBRANCH  25  26
ENDBRANCH  23  25
ENDBRANCH  20  21
BRANCH  20  33
ATOM     33  C   UNL     1      -0.700  10.125  18.252  0.00  0.00    +0.000 C 
BRANCH  33  34
ATOM     34  C   UNL     1      -2.079  10.557  17.735  0.00  0.00    +0.000 C 
BRANCH  34  35
ATOM     35  N   UNL     1      -2.743  11.414  18.713  0.00  0.00    +0.000 NA
ATOM     36  H   UNL     1      -2.980  10.860  19.537  0.00  0.00    +0.000 HD
ATOM     37  H   UNL     1      -3.632  11.732  18.328  0.00  0.00    +0.000 HD
ENDBRANCH  34  35
ENDBRANCH  33  34
ENDBRANCH  20  33
ENDBRANCH   1  20
TORSDOF 9
ENDMDL
MODEL 9
REMARK VINA RESULT:      -7.1      0.702      1.087
REMARK  Name = 
REMARK  9 active torsions:
REMARK  status: ('A' for Active; 'I' for Inactive)
REMARK    1  A    between atoms: N_1  and  C_2
REMARK    2  A    between atoms: C_2  and  C_3
REMARK    3  A    between atoms: C_3  and  C_4
REMARK    4  A    between atoms: C_4  and  C_5
REMARK    5  A    between atoms: C_4  and  N_16
REMARK    6  A    between atoms: N_7  and  C_8
REMARK    7  A    between atoms: C_8  and  C_9
REMARK    8  A    between atoms: C_20  and  C_21
REMARK    9  A    between atoms: C_20  and  C_27
REMARK                            x       y       z     vdW  Elec       q    Type
REMARK                         _______ _______ _______ _____ _____    ______ ____
ROOT
ATOM      1  N   UNL     1       0.919  11.697  20.143  0.00  0.00    +0.000 NA
ATOM      2  C   UNL     1       1.352  12.563  19.032  0.00  0.00    +0.000 C 
ATOM      3  C   UNL     1       0.322  13.576  18.474  0.00  0.00    +0.000 C 
ATOM      4  C   UNL     1      -0.430  14.305  19.580  0.00  0.00    +0.000 C 
ATOM      5  C   UNL     1      -0.574  15.650  19.702  0.00  0.00    +0.000 C 
ATOM      6  C   UNL     1      -0.989  13.309  20.574  0.00  0.00    +0.000 C 
ATOM      7  C   UNL     1       0.142  12.446  21.140  0.00  0.00    +0.000 C 
ENDROOT
BRANCH   5   8
ATOM      8  C   UNL     1       0.023  16.560  18.701  0.00  0.00    +0.000 A 
ATOM      9  C   UNL     1      -0.794  17.389  17.924  0.00  0.00    +0.000 A 
ATOM     10  C   UNL     1      -0.227  18.254  16.987  0.00  0.00    +0.000 A 
ATOM     11  C   UNL     1       1.157  18.296  16.824  0.00  0.00    +0.000 A 
ATOM     12  C   UNL     1       1.977  17.476  17.598  0.00  0.00    +0.000 A 
ATOM     13  C   UNL     1       1.413  16.610  18.536  0.00  0.00    +0.000 A 
ENDBRANCH   5   8
BRANCH   5  14
ATOM     14  C   UNL     1      -1.315  16.194  20.867  0.00  0.00    +0.000 A 
ATOM     15  C   UNL     1      -0.621  16.563  22.027  0.00  0.00    +0.000 A 
ATOM     16  C   UNL     1      -1.316  17.020  23.147  0.00  0.00    +0.000 A 
ATOM     17  C   UNL     1      -2.706  17.113  23.117  0.00  0.00    +0.000 A 
ATOM     18  C   UNL     1      -3.405  16.747  21.967  0.00  0.00    +0.000 A 
ATOM     19  C   UNL     1      -2.713  16.289  20.843  0.00  0.00    +0.000 A 
ENDBRANCH   5  14
BRANCH   1  20
ATOM     20  C   UNL     1       0.338  10.377  19.792  0.00  0.00    +0.000 C 
BRANCH  20  21
ATOM     21  C   UNL     1       0.983   9.291  20.687  0.00  0.00    +0.000 C 
ATOM     22  O   UNL     1       1.231   9.457  21.880  0.00  0.00    +0.000 OA
ATOM     23  N   UNL     1       1.303   8.128  20.014  0.00  0.00    +0.000 N 
ATOM     24  H   UNL     1       0.775   7.929  19.174  0.00  0.00    +0.000 HD
BRANCH  23  25
ATOM     25  C   UNL     1       1.925   7.028  20.711  0.00  0.00    +0.000 C 
BRANCH  25  26
ATOM     26  C   UNL     1       1.825   5.738  19.934  0.00  0.00    +0.000 A 
ATOM     27  C   UNL     1       2.346   5.642  18.631  0.00  0.00    +0.000 A 
ATOM     28  C   UNL     1       2.295   4.431  17.936  0.00  0.00    +0.000 A 
ATOM     29  C   UNL     1       1.736   3.314  18.543  0.00  0.00    +0.000 A 
ATOM     30  F   UNL     1       1.694   2.152  17.879  0.00  0.00    +0.000 F 
ATOM     31  C   UNL     1       1.222   3.385  19.833  0.00  0.00    +0.000 A 
ATOM     32  C   UNL     1       1.268   4.594  20.527  0.00  0.00    +0.000 A 
ENDBRANCH  25  26
ENDBRANCH  23  25
ENDBRANCH  20  21
BRANCH  20  33
ATOM     33  C   UNL     1       0.365   9.919  18.323  0.00  0.00    +0.000 C 
BRANCH  33  34
ATOM     34  C   UNL     1      -1.024  10.019  17.677  0.00  0.00    +0.000 C 
BRANCH  34  35
ATOM     35  N   UNL     1      -1.967  10.648  18.598  0.00  0.00    +0.000 NA
ATOM     36  H   UNL     1      -2.873  10.737  18.138  0.00  0.00    +0.000 HD
ATOM     37  H   UNL     1      -1.659  11.601  18.791  0.00  0.00    +0.000 HD
ENDBRANCH  34  35
ENDBRANCH  33  34
ENDBRANCH  20  33
ENDBRANCH   1  20
TORSDOF 9
ENDMDL
