MODEL 1
REMARK VINA RESULT:      -7.7      0.000      0.000
REMARK  Name = 
REMARK  8 active torsions:
REMARK  status: ('A' for Active; 'I' for Inactive)
REMARK    1  A    between atoms: C_1  and  C_2
REMARK    2  A    between atoms: C_2  and  O_3
REMARK    3  A    between atoms: O_3  and  C_4
REMARK    4  A    between atoms: N_7  and  C_8
REMARK    5  A    between atoms: C_8  and  C_9
REMARK    6  A    between atoms: C_9  and  N_10
REMARK    7  A    between atoms: N_18  and  C_19
REMARK    8  A    between atoms: C_22  and  N_23
REMARK                            x       y       z     vdW  Elec       q    Type
REMARK                         _______ _______ _______ _____ _____    ______ ____
ROOT
ATOM      1  C   UNL     1       2.599   5.055  20.314  0.00  0.00    +0.000 A 
ATOM      2  N   UNL     1       2.157   6.250  19.955  0.00  0.00    +0.000 NA
ATOM      3  C   UNL     1       2.745   6.764  18.886  0.00  0.00    +0.000 A 
ATOM      4  N   UNL     1       2.384   8.011  18.403  0.00  0.00    +0.000 N 
ATOM      5  N   UNL     1       3.702   6.146  18.216  0.00  0.00    +0.000 NA
ATOM      6  C   UNL     1       4.167   5.015  18.738  0.00  0.00    +0.000 A 
ATOM      7  N   UNL     1       5.328   4.447  18.217  0.00  0.00    +0.000 N 
ATOM      8  N   UNL     1       3.632   4.411  19.787  0.00  0.00    +0.000 NA
ATOM      9  H   UNL     1       2.011   7.895  17.469  0.00  0.00    +0.000 HD
ATOM     10  H   UNL     1       5.651   3.675  18.778  0.00  0.00    +0.000 HD
ENDROOT
BRANCH   7  11
ATOM     11  C   UNL     1       5.842   4.543  16.918  0.00  0.00    +0.000 A 
ATOM     12  C   UNL     1       7.072   5.179  16.707  0.00  0.00    +0.000 A 
ATOM     13  C   UNL     1       7.594   5.317  15.412  0.00  0.00    +0.000 A 
ATOM     14  C   UNL     1       6.883   4.800  14.327  0.00  0.00    +0.000 A 
ATOM     15  C   UNL     1       5.654   4.165  14.519  0.00  0.00    +0.000 A 
ATOM     16  C   UNL     1       5.135   4.053  15.809  0.00  0.00    +0.000 A 
BRANCH  14  17
ATOM     17  N   UNL     1       7.423   4.921  12.968  0.00  0.00    +0.000 N 
ATOM     18  O   UNL     1       8.243   5.826  12.753  0.00  0.00    +0.000 OA
ATOM     19  O   UNL     1       7.039   4.107  12.113  0.00  0.00    +0.000 OA
ENDBRANCH  14  17
ENDBRANCH   7  11
BRANCH   1  20
ATOM     20  O   UNL     1       1.951   4.507  21.402  0.00  0.00    +0.000 OA
BRANCH  20  22
ATOM     21  C   UNL     1       0.682   2.995  20.075  0.00  0.00    +0.000 C 
ATOM     22  C   UNL     1       1.657   3.121  21.232  0.00  0.00    +0.000 C 
ENDBRANCH  20  22
ENDBRANCH   1  20
BRANCH   4  23
ATOM     23  C   UNL     1       1.605   8.870  19.284  0.00  0.00    +0.000 C 
BRANCH  23  24
ATOM     24  C   UNL     1       0.752   9.855  18.440  0.00  0.00    +0.000 C 
BRANCH  24  25
ATOM     25  N   UNL     1      -0.589  10.123  18.995  0.00  0.00    +0.000 NA
ATOM     26  C   UNL     1      -1.336  11.097  18.155  0.00  0.00    +0.000 C 
ATOM     27  C   UNL     1      -0.892  12.568  18.305  0.00  0.00    +0.000 C 
ATOM     28  O   UNL     1      -0.842  12.985  19.675  0.00  0.00    +0.000 OA
ATOM     29  C   UNL     1      -0.014  12.106  20.446  0.00  0.00    +0.000 C 
ATOM     30  C   UNL     1      -0.547  10.669  20.370  0.00  0.00    +0.000 C 
ENDBRANCH  24  25
ENDBRANCH  23  24
ENDBRANCH   4  23
TORSDOF 7
ENDMDL
MODEL 2
REMARK VINA RESULT:      -7.6      0.311      1.117
REMARK  Name = 
REMARK  8 active torsions:
REMARK  status: ('A' for Active; 'I' for Inactive)
REMARK    1  A    between atoms: C_1  and  C_2
REMARK    2  A    between atoms: C_2  and  O_3
REMARK    3  A    between atoms: O_3  and  C_4
REMARK    4  A    between atoms: N_7  and  C_8
REMARK    5  A    between atoms: C_8  and  C_9
REMARK    6  A    between atoms: C_9  and  N_10
REMARK    7  A    between atoms: N_18  and  C_19
REMARK    8  A    between atoms: C_22  and  N_23
REMARK                            x       y       z     vdW  Elec       q    Type
REMARK                         _______ _______ _______ _____ _____    ______ ____
ROOT
ATOM      1  C   UNL     1       2.723   4.782  20.276  0.00  0.00    +0.000 A 
ATOM      2  N   UNL     1       2.262   5.987  19.980  0.00  0.00    +0.000 NA
ATOM      3  C   UNL     1       2.829   6.558  18.929  0.00  0.00    +0.000 A 
ATOM      4  N   UNL     1       2.447   7.822  18.511  0.00  0.00    +0.000 N 
ATOM      5  N   UNL     1       3.785   5.985  18.218  0.00  0.00    +0.000 NA
ATOM      6  C   UNL     1       4.271   4.836  18.680  0.00  0.00    +0.000 A 
ATOM      7  N   UNL     1       5.431   4.309  18.117  0.00  0.00    +0.000 N 
ATOM      8  N   UNL     1       3.757   4.176  19.705  0.00  0.00    +0.000 NA
ATOM      9  H   UNL     1       2.064   7.746  17.577  0.00  0.00    +0.000 HD
ATOM     10  H   UNL     1       5.771   3.515  18.637  0.00  0.00    +0.000 HD
ENDROOT
BRANCH   7  11
ATOM     11  C   UNL     1       5.927   4.474  16.818  0.00  0.00    +0.000 A 
ATOM     12  C   UNL     1       5.393   3.712  15.772  0.00  0.00    +0.000 A 
ATOM     13  C   UNL     1       5.895   3.835  14.467  0.00  0.00    +0.000 A 
ATOM     14  C   UNL     1       6.927   4.740  14.212  0.00  0.00    +0.000 A 
ATOM     15  C   UNL     1       7.472   5.506  15.244  0.00  0.00    +0.000 A 
ATOM     16  C   UNL     1       6.981   5.359  16.540  0.00  0.00    +0.000 A 
BRANCH  14  17
ATOM     17  N   UNL     1       7.451   4.892  12.850  0.00  0.00    +0.000 N 
ATOM     18  O   UNL     1       7.099   4.061  12.001  0.00  0.00    +0.000 OA
ATOM     19  O   UNL     1       8.208   5.849  12.620  0.00  0.00    +0.000 OA
ENDBRANCH  14  17
ENDBRANCH   7  11
BRANCH   1  20
ATOM     20  O   UNL     1       2.096   4.174  21.344  0.00  0.00    +0.000 OA
BRANCH  20  22
ATOM     21  C   UNL     1       0.702   2.867  19.928  0.00  0.00    +0.000 C 
ATOM     22  C   UNL     1       1.706   2.830  21.066  0.00  0.00    +0.000 C 
ENDBRANCH  20  22
ENDBRANCH   1  20
BRANCH   4  23
ATOM     23  C   UNL     1       1.670   8.628  19.441  0.00  0.00    +0.000 C 
BRANCH  23  24
ATOM     24  C   UNL     1       0.866   9.705  18.662  0.00  0.00    +0.000 C 
BRANCH  24  25
ATOM     25  N   UNL     1      -0.459  10.006  19.239  0.00  0.00    +0.000 NA
ATOM     26  C   UNL     1      -1.151  11.074  18.470  0.00  0.00    +0.000 C 
ATOM     27  C   UNL     1      -0.630  12.505  18.718  0.00  0.00    +0.000 C 
ATOM     28  O   UNL     1      -0.557  12.825  20.113  0.00  0.00    +0.000 OA
ATOM     29  C   UNL     1       0.223  11.853  20.819  0.00  0.00    +0.000 C 
ATOM     30  C   UNL     1      -0.387  10.454  20.648  0.00  0.00    +0.000 C 
ENDBRANCH  24  25
ENDBRANCH  23  24
ENDBRANCH   4  23
TORSDOF 7
ENDMDL
MODEL 3
REMARK VINA RESULT:      -7.5      0.652      1.468
REMARK  Name = 
REMARK  8 active torsions:
REMARK  status: ('A' for Active; 'I' for Inactive)
REMARK    1  A    between atoms: C_1  and  C_2
REMARK    2  A    between atoms: C_2  and  O_3
REMARK    3  A    between atoms: O_3  and  C_4
REMARK    4  A    between atoms: N_7  and  C_8
REMARK    5  A    between atoms: C_8  and  C_9
REMARK    6  A    between atoms: C_9  and  N_10
REMARK    7  A    between atoms: N_18  and  C_19
REMARK    8  A    between atoms: C_22  and  N_23
REMARK                            x       y       z     vdW  Elec       q    Type
REMARK                         _______ _______ _______ _____ _____    ______ ____
ROOT
ATOM      1  C   UNL     1       2.556   4.820  20.423  0.00  0.00    +0.000 A 
ATOM      2  N   UNL     1       2.098   6.022  20.110  0.00  0.00    +0.000 NA
ATOM      3  C   UNL     1       2.679   6.585  19.063  0.00  0.00    +0.000 A 
ATOM      4  N   UNL     1       2.300   7.845  18.629  0.00  0.00    +0.000 N 
ATOM      5  N   UNL     1       3.645   6.008  18.370  0.00  0.00    +0.000 NA
ATOM      6  C   UNL     1       4.126   4.864  18.848  0.00  0.00    +0.000 A 
ATOM      7  N   UNL     1       5.295   4.334  18.307  0.00  0.00    +0.000 N 
ATOM      8  N   UNL     1       3.599   4.211  19.872  0.00  0.00    +0.000 NA
ATOM      9  H   UNL     1       1.930   7.760  17.690  0.00  0.00    +0.000 HD
ATOM     10  H   UNL     1       5.630   3.545  18.838  0.00  0.00    +0.000 HD
ENDROOT
BRANCH   7  11
ATOM     11  C   UNL     1       5.809   4.488  17.014  0.00  0.00    +0.000 A 
ATOM     12  C   UNL     1       5.040   4.094  15.912  0.00  0.00    +0.000 A 
ATOM     13  C   UNL     1       5.545   4.209  14.608  0.00  0.00    +0.000 A 
ATOM     14  C   UNL     1       6.823   4.737  14.411  0.00  0.00    +0.000 A 
ATOM     15  C   UNL     1       7.604   5.134  15.498  0.00  0.00    +0.000 A 
ATOM     16  C   UNL     1       7.100   4.995  16.791  0.00  0.00    +0.000 A 
BRANCH  14  17
ATOM     17  N   UNL     1       7.359   4.879  13.052  0.00  0.00    +0.000 N 
ATOM     18  O   UNL     1       6.931   4.108  12.181  0.00  0.00    +0.000 OA
ATOM     19  O   UNL     1       8.200   5.768  12.847  0.00  0.00    +0.000 OA
ENDBRANCH  14  17
ENDBRANCH   7  11
BRANCH   1  20
ATOM     20  O   UNL     1       1.916   4.220  21.487  0.00  0.00    +0.000 OA
BRANCH  20  22
ATOM     21  C   UNL     1       0.678   2.901  19.942  0.00  0.00    +0.000 C 
ATOM     22  C   UNL     1       1.515   2.879  21.209  0.00  0.00    +0.000 C 
ENDBRANCH  20  22
ENDBRANCH   1  20
BRANCH   4  23
ATOM     23  C   UNL     1       1.509   8.657  19.542  0.00  0.00    +0.000 C 
BRANCH  23  24
ATOM     24  C   UNL     1       1.338  10.087  18.961  0.00  0.00    +0.000 C 
BRANCH  24  25
ATOM     25  N   UNL     1       0.971  11.108  19.963  0.00  0.00    +0.000 NA
ATOM     26  C   UNL     1      -0.429  10.927  20.430  0.00  0.00    +0.000 C 
ATOM     27  C   UNL     1      -1.516  11.394  19.440  0.00  0.00    +0.000 C 
ATOM     28  O   UNL     1      -1.288  12.728  18.968  0.00  0.00    +0.000 OA
ATOM     29  C   UNL     1       0.023  12.851  18.403  0.00  0.00    +0.000 C 
ATOM     30  C   UNL     1       1.088  12.490  19.448  0.00  0.00    +0.000 C 
ENDBRANCH  24  25
ENDBRANCH  23  24
ENDBRANCH   4  23
TORSDOF 7
ENDMDL
MODEL 4
REMARK VINA RESULT:      -7.5      1.089      1.205
REMARK  Name = 
REMARK  8 active torsions:
REMARK  status: ('A' for Active; 'I' for Inactive)
REMARK    1  A    between atoms: C_1  and  C_2
REMARK    2  A    between atoms: C_2  and  O_3
REMARK    3  A    between atoms: O_3  and  C_4
REMARK    4  A    between atoms: N_7  and  C_8
REMARK    5  A    between atoms: C_8  and  C_9
REMARK    6  A    between atoms: C_9  and  N_10
REMARK    7  A    between atoms: N_18  and  C_19
REMARK    8  A    between atoms: C_22  and  N_23
REMARK                            x       y       z     vdW  Elec       q    Type
REMARK                         _______ _______ _______ _____ _____    ______ ____
ROOT
ATOM      1  C   UNL     1       1.874   4.022  19.153  0.00  0.00    +0.000 A 
ATOM      2  N   UNL     1       1.771   5.337  19.259  0.00  0.00    +0.000 NA
ATOM      3  C   UNL     1       2.660   6.024  18.558  0.00  0.00    +0.000 A 
ATOM      4  N   UNL     1       2.672   7.409  18.581  0.00  0.00    +0.000 N 
ATOM      5  N   UNL     1       3.588   5.457  17.806  0.00  0.00    +0.000 NA
ATOM      6  C   UNL     1       3.692   4.133  17.877  0.00  0.00    +0.000 A 
ATOM      7  N   UNL     1       4.793   3.502  17.302  0.00  0.00    +0.000 N 
ATOM      8  N   UNL     1       2.839   3.359  18.528  0.00  0.00    +0.000 NA
ATOM      9  H   UNL     1       2.484   7.744  17.644  0.00  0.00    +0.000 HD
ATOM     10  H   UNL     1       4.828   2.522  17.537  0.00  0.00    +0.000 HD
ENDROOT
BRANCH   7  11
ATOM     11  C   UNL     1       5.574   3.919  16.217  0.00  0.00    +0.000 A 
ATOM     12  C   UNL     1       6.740   4.659  16.449  0.00  0.00    +0.000 A 
ATOM     13  C   UNL     1       7.522   5.117  15.377  0.00  0.00    +0.000 A 
ATOM     14  C   UNL     1       7.137   4.815  14.069  0.00  0.00    +0.000 A 
ATOM     15  C   UNL     1       5.977   4.079  13.821  0.00  0.00    +0.000 A 
ATOM     16  C   UNL     1       5.196   3.649  14.893  0.00  0.00    +0.000 A 
BRANCH  14  17
ATOM     17  N   UNL     1       7.954   5.272  12.939  0.00  0.00    +0.000 N 
ATOM     18  O   UNL     1       8.922   6.006  13.187  0.00  0.00    +0.000 OA
ATOM     19  O   UNL     1       7.638   4.892  11.800  0.00  0.00    +0.000 OA
ENDBRANCH  14  17
ENDBRANCH   7  11
BRANCH   1  20
ATOM     20  O   UNL     1       0.917   3.314  19.850  0.00  0.00    +0.000 OA
BRANCH  20  22
ATOM     21  C   UNL     1       2.050   3.165  21.936  0.00  0.00    +0.000 C 
ATOM     22  C   UNL     1       1.480   2.378  20.770  0.00  0.00    +0.000 C 
ENDBRANCH  20  22
ENDBRANCH   1  20
BRANCH   4  23
ATOM     23  C   UNL     1       1.921   8.066  19.642  0.00  0.00    +0.000 C 
BRANCH  23  24
ATOM     24  C   UNL     1       1.251   9.355  19.092  0.00  0.00    +0.000 C 
BRANCH  24  25
ATOM     25  N   UNL     1       0.283   9.976  20.017  0.00  0.00    +0.000 NA
ATOM     26  C   UNL     1      -0.975  10.344  19.315  0.00  0.00    +0.000 C 
ATOM     27  C   UNL     1      -0.887  11.607  18.432  0.00  0.00    +0.000 C 
ATOM     28  O   UNL     1      -0.330  12.726  19.134  0.00  0.00    +0.000 OA
ATOM     29  C   UNL     1       0.943  12.391  19.698  0.00  0.00    +0.000 C 
ATOM     30  C   UNL     1       0.804  11.203  20.660  0.00  0.00    +0.000 C 
ENDBRANCH  24  25
ENDBRANCH  23  24
ENDBRANCH   4  23
TORSDOF 7
ENDMDL
MODEL 5
REMARK VINA RESULT:      -7.5      0.719      1.302
REMARK  Name = 
REMARK  8 active torsions:
REMARK  status: ('A' for Active; 'I' for Inactive)
REMARK    1  A    between atoms: C_1  and  C_2
REMARK    2  A    between atoms: C_2  and  O_3
REMARK    3  A    between atoms: O_3  and  C_4
REMARK    4  A    between atoms: N_7  and  C_8
REMARK    5  A    between atoms: C_8  and  C_9
REMARK    6  A    between atoms: C_9  and  N_10
REMARK    7  A    between atoms: N_18  and  C_19
REMARK    8  A    between atoms: C_22  and  N_23
REMARK                            x       y       z     vdW  Elec       q    Type
REMARK                         _______ _______ _______ _____ _____    ______ ____
ROOT
ATOM      1  C   UNL     1       2.639   5.275  20.275  0.00  0.00    +0.000 A 
ATOM      2  N   UNL     1       2.168   6.440  19.859  0.00  0.00    +0.000 NA
ATOM      3  C   UNL     1       2.736   6.910  18.759  0.00  0.00    +0.000 A 
ATOM      4  N   UNL     1       2.345   8.122  18.216  0.00  0.00    +0.000 N 
ATOM      5  N   UNL     1       3.701   6.278  18.113  0.00  0.00    +0.000 NA
ATOM      6  C   UNL     1       4.194   5.186  18.689  0.00  0.00    +0.000 A 
ATOM      7  N   UNL     1       5.363   4.616  18.187  0.00  0.00    +0.000 N 
ATOM      8  N   UNL     1       3.681   4.626  19.772  0.00  0.00    +0.000 NA
ATOM      9  H   UNL     1       1.967   7.950  17.293  0.00  0.00    +0.000 HD
ATOM     10  H   UNL     1       5.708   3.881  18.784  0.00  0.00    +0.000 HD
ENDROOT
BRANCH   7  11
ATOM     11  C   UNL     1       5.864   4.656  16.880  0.00  0.00    +0.000 A 
ATOM     12  C   UNL     1       7.023   5.394  16.606  0.00  0.00    +0.000 A 
ATOM     13  C   UNL     1       7.528   5.476  15.299  0.00  0.00    +0.000 A 
ATOM     14  C   UNL     1       6.872   4.801  14.268  0.00  0.00    +0.000 A 
ATOM     15  C   UNL     1       5.715   4.062  14.523  0.00  0.00    +0.000 A 
ATOM     16  C   UNL     1       5.211   4.006  15.821  0.00  0.00    +0.000 A 
BRANCH  14  17
ATOM     17  N   UNL     1       7.397   4.863  12.898  0.00  0.00    +0.000 N 
ATOM     18  O   UNL     1       6.974   4.033  12.081  0.00  0.00    +0.000 OA
ATOM     19  O   UNL     1       8.225   5.749  12.631  0.00  0.00    +0.000 OA
ENDBRANCH  14  17
ENDBRANCH   7  11
BRANCH   1  20
ATOM     20  O   UNL     1       2.012   4.770  21.396  0.00  0.00    +0.000 OA
BRANCH  20  22
ATOM     21  C   UNL     1       1.161   2.637  20.775  0.00  0.00    +0.000 C 
ATOM     22  C   UNL     1       2.228   3.370  21.569  0.00  0.00    +0.000 C 
ENDBRANCH  20  22
ENDBRANCH   1  20
BRANCH   4  23
ATOM     23  C   UNL     1       1.555   9.009  19.059  0.00  0.00    +0.000 C 
BRANCH  23  24
ATOM     24  C   UNL     1       1.373  10.381  18.355  0.00  0.00    +0.000 C 
BRANCH  24  25
ATOM     25  N   UNL     1       1.400  11.540  19.270  0.00  0.00    +0.000 NA
ATOM     26  C   UNL     1       0.547  11.303  20.464  0.00  0.00    +0.000 C 
ATOM     27  C   UNL     1      -0.972  11.430  20.221  0.00  0.00    +0.000 C 
ATOM     28  O   UNL     1      -1.318  12.654  19.561  0.00  0.00    +0.000 OA
ATOM     29  C   UNL     1      -0.578  12.804  18.344  0.00  0.00    +0.000 C 
ATOM     30  C   UNL     1       0.930  12.789  18.632  0.00  0.00    +0.000 C 
ENDBRANCH  24  25
ENDBRANCH  23  24
ENDBRANCH   4  23
TORSDOF 7
ENDMDL
MODEL 6
REMARK VINA RESULT:      -7.5      0.823      1.283
REMARK  Name = 
REMARK  8 active torsions:
REMARK  status: ('A' for Active; 'I' for Inactive)
REMARK    1  A    between atoms: C_1  and  C_2
REMARK    2  A    between atoms: C_2  and  O_3
REMARK    3  A    between atoms: O_3  and  C_4
REMARK    4  A    between atoms: N_7  and  C_8
REMARK    5  A    between atoms: C_8  and  C_9
REMARK    6  A    between atoms: C_9  and  N_10
REMARK    7  A    between atoms: N_18  and  C_19
REMARK    8  A    between atoms: C_22  and  N_23
REMARK                            x       y       z     vdW  Elec       q    Type
REMARK                         _______ _______ _______ _____ _____    ______ ____
ROOT
ATOM      1  C   UNL     1       1.856   4.402  19.370  0.00  0.00    +0.000 A 
ATOM      2  N   UNL     1       1.715   5.719  19.373  0.00  0.00    +0.000 NA
ATOM      3  C   UNL     1       2.581   6.374  18.616  0.00  0.00    +0.000 A 
ATOM      4  N   UNL     1       2.551   7.756  18.531  0.00  0.00    +0.000 N 
ATOM      5  N   UNL     1       3.522   5.777  17.905  0.00  0.00    +0.000 NA
ATOM      6  C   UNL     1       3.665   4.467  18.079  0.00  0.00    +0.000 A 
ATOM      7  N   UNL     1       4.783   3.825  17.549  0.00  0.00    +0.000 N 
ATOM      8  N   UNL     1       2.838   3.721  18.793  0.00  0.00    +0.000 NA
ATOM      9  H   UNL     1       2.351   8.012  17.572  0.00  0.00    +0.000 HD
ATOM     10  H   UNL     1       4.848   2.869  17.859  0.00  0.00    +0.000 HD
ENDROOT
BRANCH   7  11
ATOM     11  C   UNL     1       5.547   4.180  16.430  0.00  0.00    +0.000 A 
ATOM     12  C   UNL     1       5.063   3.902  15.146  0.00  0.00    +0.000 A 
ATOM     13  C   UNL     1       5.824   4.218  14.010  0.00  0.00    +0.000 A 
ATOM     14  C   UNL     1       7.069   4.829  14.167  0.00  0.00    +0.000 A 
ATOM     15  C   UNL     1       7.568   5.112  15.440  0.00  0.00    +0.000 A 
ATOM     16  C   UNL     1       6.812   4.773  16.562  0.00  0.00    +0.000 A 
BRANCH  14  17
ATOM     17  N   UNL     1       7.869   5.181  12.988  0.00  0.00    +0.000 N 
ATOM     18  O   UNL     1       8.833   5.943  13.152  0.00  0.00    +0.000 OA
ATOM     19  O   UNL     1       7.546   4.688  11.896  0.00  0.00    +0.000 OA
ENDBRANCH  14  17
ENDBRANCH   7  11
BRANCH   1  20
ATOM     20  O   UNL     1       0.923   3.723  20.125  0.00  0.00    +0.000 OA
BRANCH  20  22
ATOM     21  C   UNL     1       2.059   2.718  21.958  0.00  0.00    +0.000 C 
ATOM     22  C   UNL     1       1.406   2.470  20.609  0.00  0.00    +0.000 C 
ENDBRANCH  20  22
ENDBRANCH   1  20
BRANCH   4  23
ATOM     23  C   UNL     1       1.785   8.472  19.542  0.00  0.00    +0.000 C 
BRANCH  23  24
ATOM     24  C   UNL     1       0.975   9.617  18.875  0.00  0.00    +0.000 C 
BRANCH  24  25
ATOM     25  N   UNL     1      -0.252   9.995  19.604  0.00  0.00    +0.000 NA
ATOM     26  C   UNL     1      -1.108  10.897  18.789  0.00  0.00    +0.000 C 
ATOM     27  C   UNL     1      -0.619  12.358  18.697  0.00  0.00    +0.000 C 
ATOM     28  O   UNL     1      -0.337  12.922  19.984  0.00  0.00    +0.000 OA
ATOM     29  C   UNL     1       0.590  12.103  20.707  0.00  0.00    +0.000 C 
ATOM     30  C   UNL     1       0.025  10.686  20.883  0.00  0.00    +0.000 C 
ENDBRANCH  24  25
ENDBRANCH  23  24
ENDBRANCH   4  23
TORSDOF 7
ENDMDL
MODEL 7
REMARK VINA RESULT:      -7.5      1.121      1.319
REMARK  Name = 
REMARK  8 active torsions:
REMARK  status: ('A' for Active; 'I' for Inactive)
REMARK    1  A    between atoms: C_1  and  C_2
REMARK    2  A    between atoms: C_2  and  O_3
REMARK    3  A    between atoms: O_3  and  C_4
REMARK    4  A    between atoms: N_7  and  C_8
REMARK    5  A    between atoms: C_8  and  C_9
REMARK    6  A    between atoms: C_9  and  N_10
REMARK    7  A    between atoms: N_18  and  C_19
REMARK    8  A    between atoms: C_22  and  N_23
REMARK                            x       y       z     vdW  Elec       q    Type
REMARK                         _______ _______ _______ _____ _____    ______ ____
ROOT
ATOM      1  C   UNL     1       1.876   4.341  19.213  0.00  0.00    +0.000 A 
ATOM      2  N   UNL     1       1.707   5.654  19.174  0.00  0.00    +0.000 NA
ATOM      3  C   UNL     1       2.564   6.304  18.403  0.00  0.00    +0.000 A 
ATOM      4  N   UNL     1       2.506   7.682  18.274  0.00  0.00    +0.000 N 
ATOM      5  N   UNL     1       3.524   5.705  17.718  0.00  0.00    +0.000 NA
ATOM      6  C   UNL     1       3.694   4.404  17.934  0.00  0.00    +0.000 A 
ATOM      7  N   UNL     1       4.830   3.771  17.434  0.00  0.00    +0.000 N 
ATOM      8  N   UNL     1       2.877   3.664  18.666  0.00  0.00    +0.000 NA
ATOM      9  H   UNL     1       2.308   7.902  17.306  0.00  0.00    +0.000 HD
ATOM     10  H   UNL     1       4.912   2.826  17.775  0.00  0.00    +0.000 HD
ENDROOT
BRANCH   7  11
ATOM     11  C   UNL     1       5.595   4.106  16.311  0.00  0.00    +0.000 A 
ATOM     12  C   UNL     1       6.811   4.781  16.478  0.00  0.00    +0.000 A 
ATOM     13  C   UNL     1       7.581   5.157  15.367  0.00  0.00    +0.000 A 
ATOM     14  C   UNL     1       7.134   4.837  14.083  0.00  0.00    +0.000 A 
ATOM     15  C   UNL     1       5.924   4.166  13.898  0.00  0.00    +0.000 A 
ATOM     16  C   UNL     1       5.156   3.817  15.009  0.00  0.00    +0.000 A 
BRANCH  14  17
ATOM     17  N   UNL     1       7.936   5.208  12.912  0.00  0.00    +0.000 N 
ATOM     18  O   UNL     1       8.907   5.957  13.093  0.00  0.00    +0.000 OA
ATOM     19  O   UNL     1       7.606   4.745  11.809  0.00  0.00    +0.000 OA
ENDBRANCH  14  17
ENDBRANCH   7  11
BRANCH   1  20
ATOM     20  O   UNL     1       0.951   3.667  19.983  0.00  0.00    +0.000 OA
BRANCH  20  22
ATOM     21  C   UNL     1       1.822   2.598  21.922  0.00  0.00    +0.000 C 
ATOM     22  C   UNL     1       1.439   2.414  20.464  0.00  0.00    +0.000 C 
ENDBRANCH  20  22
ENDBRANCH   1  20
BRANCH   4  23
ATOM     23  C   UNL     1       1.716   8.412  19.255  0.00  0.00    +0.000 C 
BRANCH  23  24
ATOM     24  C   UNL     1       1.381   9.828  18.712  0.00  0.00    +0.000 C 
BRANCH  24  25
ATOM     25  N   UNL     1       0.092  10.369  19.187  0.00  0.00    +0.000 NA
ATOM     26  C   UNL     1       0.124  11.854  19.259  0.00  0.00    +0.000 C 
ATOM     27  C   UNL     1       0.900  12.436  20.459  0.00  0.00    +0.000 C 
ATOM     28  O   UNL     1       0.493  11.858  21.705  0.00  0.00    +0.000 OA
ATOM     29  C   UNL     1       0.590  10.429  21.661  0.00  0.00    +0.000 C 
ATOM     30  C   UNL     1      -0.284   9.871  20.529  0.00  0.00    +0.000 C 
ENDBRANCH  24  25
ENDBRANCH  23  24
ENDBRANCH   4  23
TORSDOF 7
ENDMDL
MODEL 8
REMARK VINA RESULT:      -7.5      0.769      1.535
REMARK  Name = 
REMARK  8 active torsions:
REMARK  status: ('A' for Active; 'I' for Inactive)
REMARK    1  A    between atoms: C_1  and  C_2
REMARK    2  A    between atoms: C_2  and  O_3
REMARK    3  A    between atoms: O_3  and  C_4
REMARK    4  A    between atoms: N_7  and  C_8
REMARK    5  A    between atoms: C_8  and  C_9
REMARK    6  A    between atoms: C_9  and  N_10
REMARK    7  A    between atoms: N_18  and  C_19
REMARK    8  A    between atoms: C_22  and  N_23
REMARK                            x       y       z     vdW  Elec       q    Type
REMARK                         _______ _______ _______ _____ _____    ______ ____
ROOT
ATOM      1  C   UNL     1       2.313   4.602  19.923  0.00  0.00    +0.000 A 
ATOM      2  N   UNL     1       2.001   5.877  19.745  0.00  0.00    +0.000 NA
ATOM      3  C   UNL     1       2.707   6.498  18.813  0.00  0.00    +0.000 A 
ATOM      4  N   UNL     1       2.490   7.835  18.526  0.00  0.00    +0.000 N 
ATOM      5  N   UNL     1       3.655   5.907  18.105  0.00  0.00    +0.000 NA
ATOM      6  C   UNL     1       3.983   4.667  18.456  0.00  0.00    +0.000 A 
ATOM      7  N   UNL     1       5.126   4.083  17.915  0.00  0.00    +0.000 N 
ATOM      8  N   UNL     1       3.323   3.955  19.356  0.00  0.00    +0.000 NA
ATOM      9  H   UNL     1       2.178   7.908  17.566  0.00  0.00    +0.000 HD
ATOM     10  H   UNL     1       5.341   3.202  18.356  0.00  0.00    +0.000 HD
ENDROOT
BRANCH   7  11
ATOM     11  C   UNL     1       5.740   4.338  16.683  0.00  0.00    +0.000 A 
ATOM     12  C   UNL     1       5.114   3.928  15.500  0.00  0.00    +0.000 A 
ATOM     13  C   UNL     1       5.724   4.143  14.255  0.00  0.00    +0.000 A 
ATOM     14  C   UNL     1       6.961   4.789  14.200  0.00  0.00    +0.000 A 
ATOM     15  C   UNL     1       7.600   5.204  15.370  0.00  0.00    +0.000 A 
ATOM     16  C   UNL     1       6.994   4.964  16.603  0.00  0.00    +0.000 A 
BRANCH  14  17
ATOM     17  N   UNL     1       7.604   5.036  12.904  0.00  0.00    +0.000 N 
ATOM     18  O   UNL     1       8.464   5.927  12.849  0.00  0.00    +0.000 OA
ATOM     19  O   UNL     1       7.262   4.334  11.939  0.00  0.00    +0.000 OA
ENDBRANCH  14  17
ENDBRANCH   7  11
BRANCH   1  20
ATOM     20  O   UNL     1       1.543   3.950  20.864  0.00  0.00    +0.000 OA
BRANCH  20  22
ATOM     21  C   UNL     1       0.563   2.511  19.242  0.00  0.00    +0.000 C 
ATOM     22  C   UNL     1       1.332   2.574  20.550  0.00  0.00    +0.000 C 
ENDBRANCH  20  22
ENDBRANCH   1  20
BRANCH   4  23
ATOM     23  C   UNL     1       1.725   8.611  19.492  0.00  0.00    +0.000 C 
BRANCH  23  24
ATOM     24  C   UNL     1       0.771   9.585  18.748  0.00  0.00    +0.000 C 
BRANCH  24  25
ATOM     25  N   UNL     1       0.881  10.991  19.185  0.00  0.00    +0.000 NA
ATOM     26  C   UNL     1       0.838  11.101  20.667  0.00  0.00    +0.000 C 
ATOM     27  C   UNL     1      -0.561  10.932  21.296  0.00  0.00    +0.000 C 
ATOM     28  O   UNL     1      -1.543  11.774  20.678  0.00  0.00    +0.000 OA
ATOM     29  C   UNL     1      -1.576  11.562  19.261  0.00  0.00    +0.000 C 
ATOM     30  C   UNL     1      -0.198  11.849  18.648  0.00  0.00    +0.000 C 
ENDBRANCH  24  25
ENDBRANCH  23  24
ENDBRANCH   4  23
TORSDOF 7
ENDMDL
MODEL 9
REMARK VINA RESULT:      -7.4      3.656      5.848
REMARK  Name = 
REMARK  8 active torsions:
REMARK  status: ('A' for Active; 'I' for Inactive)
REMARK    1  A    between atoms: C_1  and  C_2
REMARK    2  A    between atoms: C_2  and  O_3
REMARK    3  A    between atoms: O_3  and  C_4
REMARK    4  A    between atoms: N_7  and  C_8
REMARK    5  A    between atoms: C_8  and  C_9
REMARK    6  A    between atoms: C_9  and  N_10
REMARK    7  A    between atoms: N_18  and  C_19
REMARK    8  A    between atoms: C_22  and  N_23
REMARK                            x       y       z     vdW  Elec       q    Type
REMARK                         _______ _______ _______ _____ _____    ______ ____
ROOT
ATOM      1  C   UNL     1       0.087  10.096  22.125  0.00  0.00    +0.000 A 
ATOM      2  N   UNL     1      -0.165  10.664  20.955  0.00  0.00    +0.000 NA
ATOM      3  C   UNL     1       0.208   9.956  19.901  0.00  0.00    +0.000 A 
ATOM      4  N   UNL     1       0.010  10.433  18.615  0.00  0.00    +0.000 N 
ATOM      5  N   UNL     1       0.790   8.772  19.988  0.00  0.00    +0.000 NA
ATOM      6  C   UNL     1       1.121   8.355  21.207  0.00  0.00    +0.000 A 
ATOM      7  N   UNL     1       1.945   7.240  21.347  0.00  0.00    +0.000 N 
ATOM      8  N   UNL     1       0.773   8.977  22.321  0.00  0.00    +0.000 NA
ATOM      9  H   UNL     1      -0.618   9.801  18.134  0.00  0.00    +0.000 HD
ATOM     10  H   UNL     1       2.232   7.105  22.303  0.00  0.00    +0.000 HD
ENDROOT
BRANCH   7  11
ATOM     11  C   UNL     1       2.096   6.149  20.482  0.00  0.00    +0.000 A 
ATOM     12  C   UNL     1       2.979   6.243  19.399  0.00  0.00    +0.000 A 
ATOM     13  C   UNL     1       3.124   5.176  18.499  0.00  0.00    +0.000 A 
ATOM     14  C   UNL     1       2.391   4.005  18.700  0.00  0.00    +0.000 A 
ATOM     15  C   UNL     1       1.505   3.895  19.773  0.00  0.00    +0.000 A 
ATOM     16  C   UNL     1       1.352   4.970  20.648  0.00  0.00    +0.000 A 
BRANCH  14  17
ATOM     17  N   UNL     1       2.544   2.874  17.777  0.00  0.00    +0.000 N 
ATOM     18  O   UNL     1       2.298   3.071  16.578  0.00  0.00    +0.000 OA
ATOM     19  O   UNL     1       2.922   1.788  18.244  0.00  0.00    +0.000 OA
ENDBRANCH  14  17
ENDBRANCH   7  11
BRANCH   1  20
ATOM     20  O   UNL     1      -0.345  10.819  23.218  0.00  0.00    +0.000 OA
BRANCH  20  22
ATOM     21  C   UNL     1      -1.422  12.939  23.252  0.00  0.00    +0.000 C 
ATOM     22  C   UNL     1      -1.605  11.453  23.000  0.00  0.00    +0.000 C 
ENDBRANCH  20  22
ENDBRANCH   1  20
BRANCH   4  23
ATOM     23  C   UNL     1      -0.294  11.849  18.466  0.00  0.00    +0.000 C 
BRANCH  23  24
ATOM     24  C   UNL     1      -1.740  12.023  17.926  0.00  0.00    +0.000 C 
BRANCH  24  25
ATOM     25  N   UNL     1      -2.504  10.764  17.826  0.00  0.00    +0.000 NA
ATOM     26  C   UNL     1      -2.292  10.108  16.508  0.00  0.00    +0.000 C 
ATOM     27  C   UNL     1      -3.045  10.753  15.326  0.00  0.00    +0.000 C 
ATOM     28  O   UNL     1      -4.440  10.938  15.602  0.00  0.00    +0.000 OA
ATOM     29  C   UNL     1      -4.624  11.685  16.811  0.00  0.00    +0.000 C 
ATOM     30  C   UNL     1      -3.962  10.960  17.991  0.00  0.00    +0.000 C 
ENDBRANCH  24  25
ENDBRANCH  23  24
ENDBRANCH   4  23
TORSDOF 7
ENDMDL
