MODEL 1
REMARK VINA RESULT:      -7.4      0.000      0.000
REMARK  Name = 
REMARK  4 active torsions:
REMARK  status: ('A' for Active; 'I' for Inactive)
REMARK    1  A    between atoms: C_1  and  C_2
REMARK    2  A    between atoms: C_5  and  C_7
REMARK    3  A    between atoms: C_16  and  C_18
REMARK    4  A    between atoms: C_18  and  C_20
REMARK                            x       y       z     vdW  Elec       q    Type
REMARK                         _______ _______ _______ _____ _____    ______ ____
ROOT
ATOM      1  C   UNL     1       0.914   9.398  21.170  0.00  0.00    +0.000 C 
ATOM      2  C   UNL     1       0.159   9.816  19.895  0.00  0.00    +0.000 C 
ATOM      3  C   UNL     1       0.322   8.863  18.673  0.00  0.00    +0.000 C 
ATOM      4  N   UNL     1       1.720   8.858  18.204  0.00  0.00    +0.000 N 
ATOM      5  C   UNL     1       2.616   7.778  18.167  0.00  0.00    +0.000 C 
ATOM      6  O   UNL     1       3.738   7.890  17.659  0.00  0.00    +0.000 OA
ATOM      7  C   UNL     1       2.166  10.192  17.772  0.00  0.00    +0.000 C 
ATOM      8  C   UNL     1       1.960  11.235  18.893  0.00  0.00    +0.000 C 
ATOM      9  N   UNL     1       0.614  11.167  19.496  0.00  0.00    +0.000 N 
ATOM     10  C   UNL     1      -0.093  12.350  19.736  0.00  0.00    +0.000 C 
ATOM     11  O   UNL     1       0.322  13.465  19.448  0.00  0.00    +0.000 OA
ENDROOT
BRANCH   5  12
ATOM     12  C   UNL     1       2.256   6.454  18.754  0.00  0.00    +0.000 A 
ATOM     13  C   UNL     1       2.008   5.359  17.923  0.00  0.00    +0.000 A 
ATOM     14  C   UNL     1       1.681   4.112  18.476  0.00  0.00    +0.000 A 
ATOM     15  C   UNL     1       1.590   3.938  19.859  0.00  0.00    +0.000 A 
ATOM     16  C   UNL     1       1.866   4.999  20.694  0.00  0.00    +0.000 A 
ATOM     17  C   UNL     1       2.230   6.215  20.130  0.00  0.00    +0.000 A 
ENDBRANCH   5  12
BRANCH  10  18
ATOM     18  C   UNL     1      -1.492  12.248  20.358  0.00  0.00    +0.000 C 
ATOM     19  O   UNL     1      -1.552  12.250  21.591  0.00  0.00    +0.000 OA
BRANCH  18  20
ATOM     20  C   UNL     1      -2.689  12.160  19.526  0.00  0.00    +0.000 A 
ATOM     21  C   UNL     1      -3.935  12.616  19.941  0.00  0.00    +0.000 A 
ATOM     22  N   UNL     1      -4.836  12.416  18.932  0.00  0.00    +0.000 N 
ATOM     23  C   UNL     1      -4.215  11.822  17.874  0.00  0.00    +0.000 A 
ATOM     24  N   UNL     1      -4.843  11.494  16.729  0.00  0.00    +0.000 NA
ATOM     25  C   UNL     1      -4.031  10.895  15.832  0.00  0.00    +0.000 A 
ATOM     26  C   UNL     1      -2.684  10.629  16.021  0.00  0.00    +0.000 A 
ATOM     27  C   UNL     1      -2.079  11.000  17.225  0.00  0.00    +0.000 A 
ATOM     28  C   UNL     1      -2.874  11.628  18.202  0.00  0.00    +0.000 A 
ATOM     29  H   UNL     1      -5.817  12.653  18.942  0.00  0.00    +0.000 HD
ENDBRANCH  18  20
ENDBRANCH  10  18
TORSDOF 3
ENDMDL
MODEL 2
REMARK VINA RESULT:      -7.2      2.699      7.755
REMARK  Name = 
REMARK  4 active torsions:
REMARK  status: ('A' for Active; 'I' for Inactive)
REMARK    1  A    between atoms: C_1  and  C_2
REMARK    2  A    between atoms: C_5  and  C_7
REMARK    3  A    between atoms: C_16  and  C_18
REMARK    4  A    between atoms: C_18  and  C_20
REMARK                            x       y       z     vdW  Elec       q    Type
REMARK                         _______ _______ _______ _____ _____    ______ ____
ROOT
ATOM      1  C   UNL     1      -2.228  12.217  19.546  0.00  0.00    +0.000 C 
ATOM      2  C   UNL     1      -1.091  11.565  20.354  0.00  0.00    +0.000 C 
ATOM      3  C   UNL     1      -1.158  11.771  21.897  0.00  0.00    +0.000 C 
ATOM      4  N   UNL     1      -0.988  13.196  22.238  0.00  0.00    +0.000 N 
ATOM      5  C   UNL     1      -1.904  14.048  22.875  0.00  0.00    +0.000 C 
ATOM      6  O   UNL     1      -1.597  15.205  23.186  0.00  0.00    +0.000 OA
ATOM      7  C   UNL     1       0.310  13.722  21.790  0.00  0.00    +0.000 C 
ATOM      8  C   UNL     1       0.512  13.485  20.276  0.00  0.00    +0.000 C 
ATOM      9  N   UNL     1       0.202  12.100  19.869  0.00  0.00    +0.000 N 
ATOM     10  C   UNL     1       1.068  11.426  19.002  0.00  0.00    +0.000 C 
ATOM     11  O   UNL     1       2.107  11.904  18.567  0.00  0.00    +0.000 OA
ENDROOT
BRANCH   5  12
ATOM     12  C   UNL     1      -3.291  13.597  23.189  0.00  0.00    +0.000 A 
ATOM     13  C   UNL     1      -4.325  13.808  22.273  0.00  0.00    +0.000 A 
ATOM     14  C   UNL     1      -5.627  13.374  22.566  0.00  0.00    +0.000 A 
ATOM     15  C   UNL     1      -5.920  12.733  23.771  0.00  0.00    +0.000 A 
ATOM     16  C   UNL     1      -4.905  12.486  24.670  0.00  0.00    +0.000 A 
ATOM     17  C   UNL     1      -3.614  12.885  24.346  0.00  0.00    +0.000 A 
ENDBRANCH   5  12
BRANCH  10  18
ATOM     18  C   UNL     1       0.721   9.986  18.601  0.00  0.00    +0.000 C 
ATOM     19  O   UNL     1      -0.101   9.846  17.692  0.00  0.00    +0.000 OA
BRANCH  18  20
ATOM     20  C   UNL     1       1.345   8.843  19.262  0.00  0.00    +0.000 A 
ATOM     21  C   UNL     1       1.090   8.501  20.584  0.00  0.00    +0.000 A 
ATOM     22  N   UNL     1       1.803   7.376  20.895  0.00  0.00    +0.000 N 
ATOM     23  C   UNL     1       2.535   6.985  19.813  0.00  0.00    +0.000 A 
ATOM     24  N   UNL     1       3.344   5.909  19.811  0.00  0.00    +0.000 NA
ATOM     25  C   UNL     1       3.984   5.730  18.636  0.00  0.00    +0.000 A 
ATOM     26  C   UNL     1       3.852   6.539  17.518  0.00  0.00    +0.000 A 
ATOM     27  C   UNL     1       2.990   7.638  17.572  0.00  0.00    +0.000 A 
ATOM     28  C   UNL     1       2.294   7.879  18.771  0.00  0.00    +0.000 A 
ATOM     29  H   UNL     1       1.814   6.892  21.781  0.00  0.00    +0.000 HD
ENDBRANCH  18  20
ENDBRANCH  10  18
TORSDOF 3
ENDMDL
MODEL 3
REMARK VINA RESULT:      -7.1      3.574      8.388
REMARK  Name = 
REMARK  4 active torsions:
REMARK  status: ('A' for Active; 'I' for Inactive)
REMARK    1  A    between atoms: C_1  and  C_2
REMARK    2  A    between atoms: C_5  and  C_7
REMARK    3  A    between atoms: C_16  and  C_18
REMARK    4  A    between atoms: C_18  and  C_20
REMARK                            x       y       z     vdW  Elec       q    Type
REMARK                         _______ _______ _______ _____ _____    ______ ____
ROOT
ATOM      1  C   UNL     1       2.059  13.490  18.581  0.00  0.00    +0.000 C 
ATOM      2  C   UNL     1       0.662  13.184  19.149  0.00  0.00    +0.000 C 
ATOM      3  C   UNL     1      -0.298  14.405  19.270  0.00  0.00    +0.000 C 
ATOM      4  N   UNL     1       0.219  15.374  20.255  0.00  0.00    +0.000 N 
ATOM      5  C   UNL     1       0.612  16.703  20.036  0.00  0.00    +0.000 C 
ATOM      6  O   UNL     1       0.941  17.440  20.972  0.00  0.00    +0.000 OA
ATOM      7  C   UNL     1       0.342  14.789  21.599  0.00  0.00    +0.000 C 
ATOM      8  C   UNL     1       1.209  13.510  21.569  0.00  0.00    +0.000 C 
ATOM      9  N   UNL     1       0.818  12.579  20.492  0.00  0.00    +0.000 N 
ATOM     10  C   UNL     1       0.712  11.212  20.767  0.00  0.00    +0.000 C 
ATOM     11  O   UNL     1       0.898  10.722  21.873  0.00  0.00    +0.000 OA
ENDROOT
BRANCH   5  12
ATOM     12  C   UNL     1       0.663  17.279  18.659  0.00  0.00    +0.000 A 
ATOM     13  C   UNL     1      -0.463  17.896  18.111  0.00  0.00    +0.000 A 
ATOM     14  C   UNL     1      -0.410  18.446  16.821  0.00  0.00    +0.000 A 
ATOM     15  C   UNL     1       0.758  18.384  16.059  0.00  0.00    +0.000 A 
ATOM     16  C   UNL     1       1.889  17.810  16.598  0.00  0.00    +0.000 A 
ATOM     17  C   UNL     1       1.830  17.308  17.892  0.00  0.00    +0.000 A 
ENDBRANCH   5  12
BRANCH  10  18
ATOM     18  C   UNL     1       0.298  10.270  19.629  0.00  0.00    +0.000 C 
ATOM     19  O   UNL     1      -0.866  10.362  19.229  0.00  0.00    +0.000 OA
BRANCH  18  20
ATOM     20  C   UNL     1       1.242   9.320  19.047  0.00  0.00    +0.000 A 
ATOM     21  C   UNL     1       1.913   9.554  17.853  0.00  0.00    +0.000 A 
ATOM     22  N   UNL     1       2.737   8.494  17.595  0.00  0.00    +0.000 N 
ATOM     23  C   UNL     1       2.608   7.562  18.582  0.00  0.00    +0.000 A 
ATOM     24  N   UNL     1       3.290   6.402  18.605  0.00  0.00    +0.000 NA
ATOM     25  C   UNL     1       2.983   5.628  19.667  0.00  0.00    +0.000 A 
ATOM     26  C   UNL     1       2.070   5.951  20.659  0.00  0.00    +0.000 A 
ATOM     27  C   UNL     1       1.397   7.174  20.592  0.00  0.00    +0.000 A 
ATOM     28  C   UNL     1       1.674   8.027  19.506  0.00  0.00    +0.000 A 
ATOM     29  H   UNL     1       3.352   8.385  16.801  0.00  0.00    +0.000 HD
ENDBRANCH  18  20
ENDBRANCH  10  18
TORSDOF 3
ENDMDL
MODEL 4
REMARK VINA RESULT:      -6.9      3.752      8.165
REMARK  Name = 
REMARK  4 active torsions:
REMARK  status: ('A' for Active; 'I' for Inactive)
REMARK    1  A    between atoms: C_1  and  C_2
REMARK    2  A    between atoms: C_5  and  C_7
REMARK    3  A    between atoms: C_16  and  C_18
REMARK    4  A    between atoms: C_18  and  C_20
REMARK                            x       y       z     vdW  Elec       q    Type
REMARK                         _______ _______ _______ _____ _____    ______ ____
ROOT
ATOM      1  C   UNL     1       1.826  13.713  19.717  0.00  0.00    +0.000 C 
ATOM      2  C   UNL     1       0.301  13.619  19.905  0.00  0.00    +0.000 C 
ATOM      3  C   UNL     1      -0.505  14.896  19.521  0.00  0.00    +0.000 C 
ATOM      4  N   UNL     1      -0.162  16.014  20.420  0.00  0.00    +0.000 N 
ATOM      5  C   UNL     1       0.430  17.241  20.087  0.00  0.00    +0.000 C 
ATOM      6  O   UNL     1       0.579  18.134  20.929  0.00  0.00    +0.000 OA
ATOM      7  C   UNL     1      -0.476  15.712  21.825  0.00  0.00    +0.000 C 
ATOM      8  C   UNL     1       0.209  14.404  22.279  0.00  0.00    +0.000 C 
ATOM      9  N   UNL     1       0.016  13.296  21.322  0.00  0.00    +0.000 N 
ATOM     10  C   UNL     1      -0.321  12.025  21.798  0.00  0.00    +0.000 C 
ATOM     11  O   UNL     1      -0.500  11.764  22.980  0.00  0.00    +0.000 OA
ENDROOT
BRANCH   5  12
ATOM     12  C   UNL     1       0.919  17.515  18.703  0.00  0.00    +0.000 A 
ATOM     13  C   UNL     1       2.160  17.028  18.285  0.00  0.00    +0.000 A 
ATOM     14  C   UNL     1       2.613  17.276  16.981  0.00  0.00    +0.000 A 
ATOM     15  C   UNL     1       1.844  18.015  16.079  0.00  0.00    +0.000 A 
ATOM     16  C   UNL     1       0.603  18.473  16.463  0.00  0.00    +0.000 A 
ATOM     17  C   UNL     1       0.152  18.182  17.745  0.00  0.00    +0.000 A 
ENDBRANCH   5  12
BRANCH  10  18
ATOM     18  C   UNL     1      -0.521  10.896  20.779  0.00  0.00    +0.000 C 
ATOM     19  O   UNL     1      -1.456  11.026  19.983  0.00  0.00    +0.000 OA
BRANCH  18  20
ATOM     20  C   UNL     1       0.359   9.731  20.753  0.00  0.00    +0.000 A 
ATOM     21  C   UNL     1       0.621   8.954  21.875  0.00  0.00    +0.000 A 
ATOM     22  N   UNL     1       1.456   7.932  21.519  0.00  0.00    +0.000 N 
ATOM     23  C   UNL     1       1.765   8.032  20.195  0.00  0.00    +0.000 A 
ATOM     24  N   UNL     1       2.573   7.170  19.551  0.00  0.00    +0.000 NA
ATOM     25  C   UNL     1       2.751   7.482  18.250  0.00  0.00    +0.000 A 
ATOM     26  C   UNL     1       2.180   8.564  17.598  0.00  0.00    +0.000 A 
ATOM     27  C   UNL     1       1.339   9.422  18.312  0.00  0.00    +0.000 A 
ATOM     28  C   UNL     1       1.114   9.150  19.675  0.00  0.00    +0.000 A 
ATOM     29  H   UNL     1       1.814   7.205  22.122  0.00  0.00    +0.000 HD
ENDBRANCH  18  20
ENDBRANCH  10  18
TORSDOF 3
ENDMDL
MODEL 5
REMARK VINA RESULT:      -6.9      3.701      7.235
REMARK  Name = 
REMARK  4 active torsions:
REMARK  status: ('A' for Active; 'I' for Inactive)
REMARK    1  A    between atoms: C_1  and  C_2
REMARK    2  A    between atoms: C_5  and  C_7
REMARK    3  A    between atoms: C_16  and  C_18
REMARK    4  A    between atoms: C_18  and  C_20
REMARK                            x       y       z     vdW  Elec       q    Type
REMARK                         _______ _______ _______ _____ _____    ______ ____
ROOT
ATOM      1  C   UNL     1       1.834  13.492  18.174  0.00  0.00    +0.000 C 
ATOM      2  C   UNL     1       0.583  13.412  19.068  0.00  0.00    +0.000 C 
ATOM      3  C   UNL     1      -0.105  14.773  19.387  0.00  0.00    +0.000 C 
ATOM      4  N   UNL     1       0.785  15.626  20.196  0.00  0.00    +0.000 N 
ATOM      5  C   UNL     1       1.328  16.876  19.858  0.00  0.00    +0.000 C 
ATOM      6  O   UNL     1       1.989  17.531  20.671  0.00  0.00    +0.000 OA
ATOM      7  C   UNL     1       1.129  15.006  21.484  0.00  0.00    +0.000 C 
ATOM      8  C   UNL     1       1.741  13.602  21.278  0.00  0.00    +0.000 C 
ATOM      9  N   UNL     1       0.955  12.767  20.348  0.00  0.00    +0.000 N 
ATOM     10  C   UNL     1       0.695  11.432  20.672  0.00  0.00    +0.000 C 
ATOM     11  O   UNL     1       1.057  10.899  21.713  0.00  0.00    +0.000 OA
ENDROOT
BRANCH   5  12
ATOM     12  C   UNL     1       1.142  17.457  18.496  0.00  0.00    +0.000 A 
ATOM     13  C   UNL     1       2.155  17.353  17.540  0.00  0.00    +0.000 A 
ATOM     14  C   UNL     1       1.974  17.891  16.257  0.00  0.00    +0.000 A 
ATOM     15  C   UNL     1       0.790  18.544  15.909  0.00  0.00    +0.000 A 
ATOM     16  C   UNL     1      -0.233  18.625  16.829  0.00  0.00    +0.000 A 
ATOM     17  C   UNL     1      -0.053  18.050  18.080  0.00  0.00    +0.000 A 
ENDBRANCH   5  12
BRANCH  10  18
ATOM     18  C   UNL     1      -0.130  10.591  19.689  0.00  0.00    +0.000 C 
ATOM     19  O   UNL     1       0.358   9.513  19.337  0.00  0.00    +0.000 OA
BRANCH  18  20
ATOM     20  C   UNL     1      -1.430  11.046  19.205  0.00  0.00    +0.000 A 
ATOM     21  C   UNL     1      -2.267  11.873  19.944  0.00  0.00    +0.000 A 
ATOM     22  N   UNL     1      -3.389  12.136  19.209  0.00  0.00    +0.000 N 
ATOM     23  C   UNL     1      -3.316  11.487  18.013  0.00  0.00    +0.000 A 
ATOM     24  N   UNL     1      -4.276  11.549  17.071  0.00  0.00    +0.000 NA
ATOM     25  C   UNL     1      -3.997  10.806  15.979  0.00  0.00    +0.000 A 
ATOM     26  C   UNL     1      -2.852  10.045  15.797  0.00  0.00    +0.000 A 
ATOM     27  C   UNL     1      -1.882  10.025  16.803  0.00  0.00    +0.000 A 
ATOM     28  C   UNL     1      -2.116  10.779  17.968  0.00  0.00    +0.000 A 
ATOM     29  H   UNL     1      -4.171  12.713  19.484  0.00  0.00    +0.000 HD
ENDBRANCH  18  20
ENDBRANCH  10  18
TORSDOF 3
ENDMDL
MODEL 6
REMARK VINA RESULT:      -6.8      0.937      1.809
REMARK  Name = 
REMARK  4 active torsions:
REMARK  status: ('A' for Active; 'I' for Inactive)
REMARK    1  A    between atoms: C_1  and  C_2
REMARK    2  A    between atoms: C_5  and  C_7
REMARK    3  A    between atoms: C_16  and  C_18
REMARK    4  A    between atoms: C_18  and  C_20
REMARK                            x       y       z     vdW  Elec       q    Type
REMARK                         _______ _______ _______ _____ _____    ______ ____
ROOT
ATOM      1  C   UNL     1       0.546   9.368  20.961  0.00  0.00    +0.000 C 
ATOM      2  C   UNL     1      -0.056   9.781  19.605  0.00  0.00    +0.000 C 
ATOM      3  C   UNL     1       0.278   8.843  18.407  0.00  0.00    +0.000 C 
ATOM      4  N   UNL     1       1.724   8.873  18.113  0.00  0.00    +0.000 N 
ATOM      5  C   UNL     1       2.642   7.814  18.181  0.00  0.00    +0.000 C 
ATOM      6  O   UNL     1       3.815   7.955  17.817  0.00  0.00    +0.000 OA
ATOM      7  C   UNL     1       2.188  10.219  17.748  0.00  0.00    +0.000 C 
ATOM      8  C   UNL     1       1.821  11.248  18.841  0.00  0.00    +0.000 C 
ATOM      9  N   UNL     1       0.413  11.145  19.273  0.00  0.00    +0.000 N 
ATOM     10  C   UNL     1      -0.346  12.309  19.431  0.00  0.00    +0.000 C 
ATOM     11  O   UNL     1       0.076  13.436  19.203  0.00  0.00    +0.000 OA
ENDROOT
BRANCH   5  12
ATOM     12  C   UNL     1       2.244   6.476  18.711  0.00  0.00    +0.000 A 
ATOM     13  C   UNL     1       2.002   5.415  17.837  0.00  0.00    +0.000 A 
ATOM     14  C   UNL     1       1.639   4.156  18.337  0.00  0.00    +0.000 A 
ATOM     15  C   UNL     1       1.505   3.937  19.710  0.00  0.00    +0.000 A 
ATOM     16  C   UNL     1       1.773   4.963  20.589  0.00  0.00    +0.000 A 
ATOM     17  C   UNL     1       2.172   6.192  20.077  0.00  0.00    +0.000 A 
ENDBRANCH   5  12
BRANCH  10  18
ATOM     18  C   UNL     1      -1.808  12.170  19.875  0.00  0.00    +0.000 C 
ATOM     19  O   UNL     1      -2.027  12.234  21.088  0.00  0.00    +0.000 OA
BRANCH  18  20
ATOM     20  C   UNL     1      -2.882  11.981  18.904  0.00  0.00    +0.000 A 
ATOM     21  C   UNL     1      -2.652  11.641  17.576  0.00  0.00    +0.000 A 
ATOM     22  N   UNL     1      -3.854  11.514  16.938  0.00  0.00    +0.000 N 
ATOM     23  C   UNL     1      -4.867  11.782  17.811  0.00  0.00    +0.000 A 
ATOM     24  N   UNL     1      -6.170  11.743  17.476  0.00  0.00    +0.000 NA
ATOM     25  C   UNL     1      -6.990  12.067  18.497  0.00  0.00    +0.000 A 
ATOM     26  C   UNL     1      -6.582  12.408  19.778  0.00  0.00    +0.000 A 
ATOM     27  C   UNL     1      -5.217  12.422  20.075  0.00  0.00    +0.000 A 
ATOM     28  C   UNL     1      -4.309  12.094  19.050  0.00  0.00    +0.000 A 
ATOM     29  H   UNL     1      -4.003  11.269  15.970  0.00  0.00    +0.000 HD
ENDBRANCH  18  20
ENDBRANCH  10  18
TORSDOF 3
ENDMDL
MODEL 7
REMARK VINA RESULT:      -6.8      2.126      2.965
REMARK  Name = 
REMARK  4 active torsions:
REMARK  status: ('A' for Active; 'I' for Inactive)
REMARK    1  A    between atoms: C_1  and  C_2
REMARK    2  A    between atoms: C_5  and  C_7
REMARK    3  A    between atoms: C_16  and  C_18
REMARK    4  A    between atoms: C_18  and  C_20
REMARK                            x       y       z     vdW  Elec       q    Type
REMARK                         _______ _______ _______ _____ _____    ______ ____
ROOT
ATOM      1  C   UNL     1      -0.109  10.961  21.916  0.00  0.00    +0.000 C 
ATOM      2  C   UNL     1      -1.179  11.235  20.843  0.00  0.00    +0.000 C 
ATOM      3  C   UNL     1      -0.902  10.613  19.442  0.00  0.00    +0.000 C 
ATOM      4  N   UNL     1       0.294  11.224  18.832  0.00  0.00    +0.000 N 
ATOM      5  C   UNL     1       1.500  10.598  18.478  0.00  0.00    +0.000 C 
ATOM      6  O   UNL     1       2.394  11.212  17.885  0.00  0.00    +0.000 OA
ATOM      7  C   UNL     1       0.140  12.674  18.637  0.00  0.00    +0.000 C 
ATOM      8  C   UNL     1      -0.228  13.375  19.964  0.00  0.00    +0.000 C 
ATOM      9  N   UNL     1      -1.326  12.699  20.682  0.00  0.00    +0.000 N 
ATOM     10  C   UNL     1      -2.360  13.462  21.235  0.00  0.00    +0.000 C 
ATOM     11  O   UNL     1      -2.437  14.680  21.138  0.00  0.00    +0.000 OA
ENDROOT
BRANCH   5  12
ATOM     12  C   UNL     1       1.758   9.168  18.816  0.00  0.00    +0.000 A 
ATOM     13  C   UNL     1       2.257   8.293  17.848  0.00  0.00    +0.000 A 
ATOM     14  C   UNL     1       2.510   6.952  18.171  0.00  0.00    +0.000 A 
ATOM     15  C   UNL     1       2.264   6.460  19.455  0.00  0.00    +0.000 A 
ATOM     16  C   UNL     1       1.804   7.317  20.431  0.00  0.00    +0.000 A 
ATOM     17  C   UNL     1       1.600   8.652  20.105  0.00  0.00    +0.000 A 
ENDBRANCH   5  12
BRANCH  10  18
ATOM     18  C   UNL     1      -3.491  12.731  21.971  0.00  0.00    +0.000 C 
ATOM     19  O   UNL     1      -3.210  12.239  23.068  0.00  0.00    +0.000 OA
BRANCH  18  20
ATOM     20  C   UNL     1      -4.831  12.634  21.400  0.00  0.00    +0.000 A 
ATOM     21  C   UNL     1      -5.987  12.850  22.139  0.00  0.00    +0.000 A 
ATOM     22  N   UNL     1      -7.070  12.710  21.316  0.00  0.00    +0.000 N 
ATOM     23  C   UNL     1      -6.652  12.387  20.059  0.00  0.00    +0.000 A 
ATOM     24  N   UNL     1      -7.488  12.180  19.026  0.00  0.00    +0.000 NA
ATOM     25  C   UNL     1      -6.849  11.850  17.884  0.00  0.00    +0.000 A 
ATOM     26  C   UNL     1      -5.475  11.728  17.739  0.00  0.00    +0.000 A 
ATOM     27  C   UNL     1      -4.651  11.966  18.843  0.00  0.00    +0.000 A 
ATOM     28  C   UNL     1      -5.259  12.313  20.064  0.00  0.00    +0.000 A 
ATOM     29  H   UNL     1      -8.041  12.815  21.571  0.00  0.00    +0.000 HD
ENDBRANCH  18  20
ENDBRANCH  10  18
TORSDOF 3
ENDMDL
MODEL 8
REMARK VINA RESULT:      -6.7      3.390      8.407
REMARK  Name = 
REMARK  4 active torsions:
REMARK  status: ('A' for Active; 'I' for Inactive)
REMARK    1  A    between atoms: C_1  and  C_2
REMARK    2  A    between atoms: C_5  and  C_7
REMARK    3  A    between atoms: C_16  and  C_18
REMARK    4  A    between atoms: C_18  and  C_20
REMARK                            x       y       z     vdW  Elec       q    Type
REMARK                         _______ _______ _______ _____ _____    ______ ____
ROOT
ATOM      1  C   UNL     1       2.380  13.202  18.608  0.00  0.00    +0.000 C 
ATOM      2  C   UNL     1       0.935  12.724  18.840  0.00  0.00    +0.000 C 
ATOM      3  C   UNL     1      -0.148  13.844  18.875  0.00  0.00    +0.000 C 
ATOM      4  N   UNL     1       0.063  14.732  20.034  0.00  0.00    +0.000 N 
ATOM      5  C   UNL     1       0.357  16.104  20.029  0.00  0.00    +0.000 C 
ATOM      6  O   UNL     1       0.418  16.753  21.080  0.00  0.00    +0.000 OA
ATOM      7  C   UNL     1      -0.026  14.009  21.311  0.00  0.00    +0.000 C 
ATOM      8  C   UNL     1       0.954  12.814  21.341  0.00  0.00    +0.000 C 
ATOM      9  N   UNL     1       0.880  11.984  20.122  0.00  0.00    +0.000 N 
ATOM     10  C   UNL     1       0.859  10.591  20.238  0.00  0.00    +0.000 C 
ATOM     11  O   UNL     1       0.869   9.994  21.306  0.00  0.00    +0.000 OA
ENDROOT
BRANCH   5  12
ATOM     12  C   UNL     1       0.624  16.835  18.755  0.00  0.00    +0.000 A 
ATOM     13  C   UNL     1       1.905  16.836  18.198  0.00  0.00    +0.000 A 
ATOM     14  C   UNL     1       2.152  17.514  16.995  0.00  0.00    +0.000 A 
ATOM     15  C   UNL     1       1.133  18.204  16.334  0.00  0.00    +0.000 A 
ATOM     16  C   UNL     1      -0.144  18.184  16.851  0.00  0.00    +0.000 A 
ATOM     17  C   UNL     1      -0.379  17.472  18.021  0.00  0.00    +0.000 A 
ENDBRANCH   5  12
BRANCH  10  18
ATOM     18  C   UNL     1       0.776   9.755  18.953  0.00  0.00    +0.000 C 
ATOM     19  O   UNL     1      -0.156  10.009  18.186  0.00  0.00    +0.000 OA
BRANCH  18  20
ATOM     20  C   UNL     1       1.760   8.717  18.658  0.00  0.00    +0.000 A 
ATOM     21  C   UNL     1       2.657   8.803  17.599  0.00  0.00    +0.000 A 
ATOM     22  N   UNL     1       3.455   7.693  17.606  0.00  0.00    +0.000 N 
ATOM     23  C   UNL     1       3.091   6.873  18.633  0.00  0.00    +0.000 A 
ATOM     24  N   UNL     1       3.692   5.698  18.896  0.00  0.00    +0.000 NA
ATOM     25  C   UNL     1       3.147   5.048  19.947  0.00  0.00    +0.000 A 
ATOM     26  C   UNL     1       2.082   5.504  20.708  0.00  0.00    +0.000 A 
ATOM     27  C   UNL     1       1.501   6.736  20.397  0.00  0.00    +0.000 A 
ATOM     28  C   UNL     1       2.025   7.463  19.311  0.00  0.00    +0.000 A 
ATOM     29  H   UNL     1       4.203   7.481  16.961  0.00  0.00    +0.000 HD
ENDBRANCH  18  20
ENDBRANCH  10  18
TORSDOF 3
ENDMDL
MODEL 9
REMARK VINA RESULT:      -6.7      2.677      7.690
REMARK  Name = 
REMARK  4 active torsions:
REMARK  status: ('A' for Active; 'I' for Inactive)
REMARK    1  A    between atoms: C_1  and  C_2
REMARK    2  A    between atoms: C_5  and  C_7
REMARK    3  A    between atoms: C_16  and  C_18
REMARK    4  A    between atoms: C_18  and  C_20
REMARK                            x       y       z     vdW  Elec       q    Type
REMARK                         _______ _______ _______ _____ _____    ______ ____
ROOT
ATOM      1  C   UNL     1      -1.489  11.702  18.919  0.00  0.00    +0.000 C 
ATOM      2  C   UNL     1      -0.335  11.092  19.736  0.00  0.00    +0.000 C 
ATOM      3  C   UNL     1      -0.318  11.455  21.251  0.00  0.00    +0.000 C 
ATOM      4  N   UNL     1      -0.082  12.900  21.434  0.00  0.00    +0.000 N 
ATOM      5  C   UNL     1      -0.935  13.847  22.022  0.00  0.00    +0.000 C 
ATOM      6  O   UNL     1      -0.574  15.016  22.197  0.00  0.00    +0.000 OA
ATOM      7  C   UNL     1       1.209  13.327  20.875  0.00  0.00    +0.000 C 
ATOM      8  C   UNL     1       1.327  12.929  19.386  0.00  0.00    +0.000 C 
ATOM      9  N   UNL     1       0.949  11.524  19.139  0.00  0.00    +0.000 N 
ATOM     10  C   UNL     1       1.747  10.732  18.306  0.00  0.00    +0.000 C 
ATOM     11  O   UNL     1       2.779  11.123  17.776  0.00  0.00    +0.000 OA
ENDROOT
BRANCH   5  12
ATOM     12  C   UNL     1      -2.320  13.485  22.446  0.00  0.00    +0.000 A 
ATOM     13  C   UNL     1      -3.382  13.587  21.544  0.00  0.00    +0.000 A 
ATOM     14  C   UNL     1      -4.681  13.235  21.940  0.00  0.00    +0.000 A 
ATOM     15  C   UNL     1      -4.943  12.786  23.237  0.00  0.00    +0.000 A 
ATOM     16  C   UNL     1      -3.901  12.647  24.128  0.00  0.00    +0.000 A 
ATOM     17  C   UNL     1      -2.615  12.959  23.706  0.00  0.00    +0.000 A 
ENDBRANCH   5  12
BRANCH  10  18
ATOM     18  C   UNL     1       1.332   9.273  18.073  0.00  0.00    +0.000 C 
ATOM     19  O   UNL     1       0.444   9.076  17.239  0.00  0.00    +0.000 OA
BRANCH  18  20
ATOM     20  C   UNL     1       1.967   8.178  18.799  0.00  0.00    +0.000 A 
ATOM     21  C   UNL     1       1.615   7.824  20.096  0.00  0.00    +0.000 A 
ATOM     22  N   UNL     1       2.370   6.751  20.482  0.00  0.00    +0.000 N 
ATOM     23  C   UNL     1       3.223   6.406  19.476  0.00  0.00    +0.000 A 
ATOM     24  N   UNL     1       4.100   5.388  19.559  0.00  0.00    +0.000 NA
ATOM     25  C   UNL     1       4.856   5.248  18.449  0.00  0.00    +0.000 A 
ATOM     26  C   UNL     1       4.774   6.043  17.316  0.00  0.00    +0.000 A 
ATOM     27  C   UNL     1       3.839   7.081  17.279  0.00  0.00    +0.000 A 
ATOM     28  C   UNL     1       3.020   7.278  18.407  0.00  0.00    +0.000 A 
ATOM     29  H   UNL     1       2.331   6.272  21.370  0.00  0.00    +0.000 HD
ENDBRANCH  18  20
ENDBRANCH  10  18
TORSDOF 3
ENDMDL
