MODEL 1
REMARK VINA RESULT:      -7.0      0.000      0.000
REMARK  Name = 
REMARK  10 active torsions:
REMARK  status: ('A' for Active; 'I' for Inactive)
REMARK    1  A    between atoms: C_1  and  C_2
REMARK    2  A    between atoms: C_8  and  C_9
REMARK    3  A    between atoms: C_9  and  N_10
REMARK    4  A    between atoms: C_9  and  C_23
REMARK    5  A    between atoms: N_10  and  C_11
REMARK    6  A    between atoms: C_11  and  C_12
REMARK    7  A    between atoms: C_11  and  C_13
REMARK    8  A    between atoms: CA_19  and  C_20
REMARK    9  A    between atoms: C_20  and  OXT_22
REMARK   10  A    between atoms: C_23  and  O_25
REMARK                            x       y       z     vdW  Elec       q    Type
REMARK                         _______ _______ _______ _____ _____    ______ ____
ROOT
ATOM      1  N   UNK A   1       5.029   3.539  17.149  0.00  0.00    +0.000 NA
ATOM      2  H   UNK A   1       5.119   2.698  16.572  0.00  0.00    +0.000 HD
ENDROOT
BRANCH   1   3
ATOM      3  C   UNK A   1       5.127   4.737  16.244  0.00  0.00    +0.000 C 
ATOM      4  C   UNK A   1       5.210   6.047  17.034  0.00  0.00    +0.000 C 
BRANCH   3   5
ATOM      5  C   UNK A   1       6.392   4.660  15.332  0.00  0.00    +0.000 C 
ATOM      6  O   UNK A   1       7.527   4.891  15.768  0.00  0.00    +0.000 OA
ATOM      7  N   PRO A   2       6.258   4.390  13.985  0.00  0.00    +0.000 N 
ATOM      8  CD  PRO A   2       5.052   4.209  13.197  0.00  0.00    +0.000 C 
ATOM      9  CG  PRO A   2       5.450   3.121  12.219  0.00  0.00    +0.000 C 
ATOM     10  CB  PRO A   2       6.919   3.406  11.912  0.00  0.00    +0.000 C 
ATOM     11  CA  PRO A   2       7.436   4.220  13.111  0.00  0.00    +0.000 C 
BRANCH  11  12
ATOM     12  C   PRO A   2       8.033   5.575  12.674  0.00  0.00    +0.000 C 
ATOM     13  O   PRO A   2       7.702   6.202  11.672  0.00  0.00    +0.000 OA
BRANCH  12  14
ATOM     14  OXT PRO A   2       9.037   6.003  13.475  0.00  0.00    +0.000 OA
ATOM     15  HXT PRO A   2       9.925   5.897  13.051  0.00  0.00    +0.000 HD
ENDBRANCH  12  14
ENDBRANCH  11  12
ENDBRANCH   3   5
ENDBRANCH   1   3
BRANCH   1  16
ATOM     16  C   UNK A   1       3.720   3.459  17.882  0.00  0.00    +0.000 C 
BRANCH  16  24
ATOM     17  C   UNK A   1       2.757   6.754  19.489  0.00  0.00    +0.000 C 
ATOM     18  C   UNK A   1       1.978   5.636  20.129  0.00  0.00    +0.000 C 
ATOM     19  O   UNK A   1       1.007   5.916  20.837  0.00  0.00    +0.000 OA
ATOM     20  N   UNK A   1       2.367   4.327  19.902  0.00  0.00    +0.000 N 
ATOM     21  C   UNK A   1       1.724   3.276  20.678  0.00  0.00    +0.000 C 
ATOM     22  C   UNK A   1       2.890   2.597  21.363  0.00  0.00    +0.000 C 
ATOM     23  C   UNK A   1       3.978   2.627  20.297  0.00  0.00    +0.000 C 
ATOM     24  C   UNK A   1       3.679   3.870  19.404  0.00  0.00    +0.000 C 
ENDBRANCH  16  24
BRANCH  16  25
ATOM     25  C   UNK A   1       3.224   2.003  17.837  0.00  0.00    +0.000 C 
ATOM     26  O   UNK A   1       3.956   1.032  17.967  0.00  0.00    +0.000 OA
BRANCH  25  27
ATOM     27  O   UNK A   1       1.903   1.879  17.567  0.00  0.00    +0.000 OA
ATOM     28  H   UNK A   1       1.309   1.981  18.336  0.00  0.00    +0.000 HD
ENDBRANCH  25  27
ENDBRANCH  16  25
ENDBRANCH   1  16
TORSDOF 8
ENDMDL
MODEL 2
REMARK VINA RESULT:      -6.8      4.593      7.669
REMARK  Name = 
REMARK  10 active torsions:
REMARK  status: ('A' for Active; 'I' for Inactive)
REMARK    1  A    between atoms: C_1  and  C_2
REMARK    2  A    between atoms: C_8  and  C_9
REMARK    3  A    between atoms: C_9  and  N_10
REMARK    4  A    between atoms: C_9  and  C_23
REMARK    5  A    between atoms: N_10  and  C_11
REMARK    6  A    between atoms: C_11  and  C_12
REMARK    7  A    between atoms: C_11  and  C_13
REMARK    8  A    between atoms: CA_19  and  C_20
REMARK    9  A    between atoms: C_20  and  OXT_22
REMARK   10  A    between atoms: C_23  and  O_25
REMARK                            x       y       z     vdW  Elec       q    Type
REMARK                         _______ _______ _______ _____ _____    ______ ____
ROOT
ATOM      1  N   UNK A   1       2.134   8.077  20.325  0.00  0.00    +0.000 NA
ATOM      2  H   UNK A   1       2.334   7.586  21.201  0.00  0.00    +0.000 HD
ENDROOT
BRANCH   1   3
ATOM      3  C   UNK A   1       2.187   7.072  19.206  0.00  0.00    +0.000 C 
ATOM      4  C   UNK A   1       2.697   7.692  17.901  0.00  0.00    +0.000 C 
BRANCH   3   5
ATOM      5  C   UNK A   1       3.132   5.879  19.556  0.00  0.00    +0.000 C 
ATOM      6  O   UNK A   1       4.364   5.977  19.482  0.00  0.00    +0.000 OA
ATOM      7  N   PRO A   2       2.599   4.653  19.900  0.00  0.00    +0.000 N 
ATOM      8  CD  PRO A   2       1.210   4.230  19.940  0.00  0.00    +0.000 C 
ATOM      9  CG  PRO A   2       1.173   3.315  21.148  0.00  0.00    +0.000 C 
ATOM     10  CB  PRO A   2       2.526   2.608  21.130  0.00  0.00    +0.000 C 
ATOM     11  CA  PRO A   2       3.458   3.529  20.324  0.00  0.00    +0.000 C 
BRANCH  11  12
ATOM     12  C   PRO A   2       4.093   2.799  19.122  0.00  0.00    +0.000 C 
ATOM     13  O   PRO A   2       3.560   1.899  18.481  0.00  0.00    +0.000 OA
BRANCH  12  14
ATOM     14  OXT PRO A   2       5.361   3.198  18.860  0.00  0.00    +0.000 OA
ATOM     15  HXT PRO A   2       5.978   2.993  19.605  0.00  0.00    +0.000 HD
ENDBRANCH  12  14
ENDBRANCH  11  12
ENDBRANCH   3   5
ENDBRANCH   1   3
BRANCH   1  16
ATOM     16  C   UNK A   1       0.792   8.739  20.460  0.00  0.00    +0.000 C 
BRANCH  16  24
ATOM     17  C   UNK A   1      -1.304   9.784  17.480  0.00  0.00    +0.000 C 
ATOM     18  C   UNK A   1      -1.645  10.651  18.663  0.00  0.00    +0.000 C 
ATOM     19  O   UNK A   1      -2.663  11.346  18.618  0.00  0.00    +0.000 OA
ATOM     20  N   UNK A   1      -0.812  10.640  19.769  0.00  0.00    +0.000 N 
ATOM     21  C   UNK A   1      -1.052  11.621  20.818  0.00  0.00    +0.000 C 
ATOM     22  C   UNK A   1       0.268  12.355  20.905  0.00  0.00    +0.000 C 
ATOM     23  C   UNK A   1       1.291  11.247  20.690  0.00  0.00    +0.000 C 
ATOM     24  C   UNK A   1       0.584  10.164  19.817  0.00  0.00    +0.000 C 
ENDBRANCH  16  24
BRANCH  16  25
ATOM     25  C   UNK A   1       0.483   8.914  21.957  0.00  0.00    +0.000 C 
ATOM     26  O   UNK A   1       1.287   9.350  22.769  0.00  0.00    +0.000 OA
BRANCH  25  27
ATOM     27  O   UNK A   1      -0.744   8.476  22.322  0.00  0.00    +0.000 OA
ATOM     28  H   UNK A   1      -1.424   9.171  22.416  0.00  0.00    +0.000 HD
ENDBRANCH  25  27
ENDBRANCH  16  25
ENDBRANCH   1  16
TORSDOF 8
ENDMDL
MODEL 3
REMARK VINA RESULT:      -6.8      2.628      3.872
REMARK  Name = 
REMARK  10 active torsions:
REMARK  status: ('A' for Active; 'I' for Inactive)
REMARK    1  A    between atoms: C_1  and  C_2
REMARK    2  A    between atoms: C_8  and  C_9
REMARK    3  A    between atoms: C_9  and  N_10
REMARK    4  A    between atoms: C_9  and  C_23
REMARK    5  A    between atoms: N_10  and  C_11
REMARK    6  A    between atoms: C_11  and  C_12
REMARK    7  A    between atoms: C_11  and  C_13
REMARK    8  A    between atoms: CA_19  and  C_20
REMARK    9  A    between atoms: C_20  and  OXT_22
REMARK   10  A    between atoms: C_23  and  O_25
REMARK                            x       y       z     vdW  Elec       q    Type
REMARK                         _______ _______ _______ _____ _____    ______ ____
ROOT
ATOM      1  N   UNK A   1       2.248   5.576  19.308  0.00  0.00    +0.000 NA
ATOM      2  H   UNK A   1       2.907   5.284  20.035  0.00  0.00    +0.000 HD
ENDROOT
BRANCH   1   3
ATOM      3  C   UNK A   1       3.044   6.051  18.122  0.00  0.00    +0.000 C 
ATOM      4  C   UNK A   1       2.854   7.550  17.868  0.00  0.00    +0.000 C 
BRANCH   3   5
ATOM      5  C   UNK A   1       4.572   5.800  18.324  0.00  0.00    +0.000 C 
ATOM      6  O   UNK A   1       5.076   5.714  19.451  0.00  0.00    +0.000 OA
ATOM      7  N   PRO A   2       5.411   5.733  17.231  0.00  0.00    +0.000 N 
ATOM      8  CD  PRO A   2       5.110   5.926  15.823  0.00  0.00    +0.000 C 
ATOM      9  CG  PRO A   2       6.000   4.902  15.146  0.00  0.00    +0.000 C 
ATOM     10  CB  PRO A   2       7.269   4.883  15.995  0.00  0.00    +0.000 C 
ATOM     11  CA  PRO A   2       6.845   5.407  17.377  0.00  0.00    +0.000 C 
BRANCH  11  12
ATOM     12  C   PRO A   2       7.676   6.634  17.809  0.00  0.00    +0.000 C 
ATOM     13  O   PRO A   2       7.896   7.619  17.110  0.00  0.00    +0.000 OA
BRANCH  12  14
ATOM     14  OXT PRO A   2       8.221   6.507  19.042  0.00  0.00    +0.000 OA
ATOM     15  HXT PRO A   2       9.155   6.181  19.005  0.00  0.00    +0.000 HD
ENDBRANCH  12  14
ENDBRANCH  11  12
ENDBRANCH   3   5
ENDBRANCH   1   3
BRANCH   1  16
ATOM     16  C   UNK A   1       1.358   4.407  18.992  0.00  0.00    +0.000 C 
BRANCH  16  24
ATOM     17  C   UNK A   1       4.275   2.081  18.321  0.00  0.00    +0.000 C 
ATOM     18  C   UNK A   1       4.162   2.332  19.802  0.00  0.00    +0.000 C 
ATOM     19  O   UNK A   1       5.103   2.014  20.532  0.00  0.00    +0.000 OA
ATOM     20  N   UNK A   1       3.011   2.917  20.301  0.00  0.00    +0.000 N 
ATOM     21  C   UNK A   1       2.842   2.975  21.745  0.00  0.00    +0.000 C 
ATOM     22  C   UNK A   1       1.535   2.244  21.965  0.00  0.00    +0.000 C 
ATOM     23  C   UNK A   1       0.695   2.679  20.771  0.00  0.00    +0.000 C 
ATOM     24  C   UNK A   1       1.701   3.004  19.624  0.00  0.00    +0.000 C 
ENDBRANCH  16  24
BRANCH  16  25
ATOM     25  C   UNK A   1       1.367   4.186  17.470  0.00  0.00    +0.000 C 
ATOM     26  O   UNK A   1       0.676   4.824  16.687  0.00  0.00    +0.000 OA
BRANCH  25  27
ATOM     27  O   UNK A   1       2.159   3.166  17.065  0.00  0.00    +0.000 OA
ATOM     28  H   UNK A   1       2.929   3.426  16.523  0.00  0.00    +0.000 HD
ENDBRANCH  25  27
ENDBRANCH  16  25
ENDBRANCH   1  16
TORSDOF 8
ENDMDL
MODEL 4
REMARK VINA RESULT:      -6.8      3.440      7.360
REMARK  Name = 
REMARK  10 active torsions:
REMARK  status: ('A' for Active; 'I' for Inactive)
REMARK    1  A    between atoms: C_1  and  C_2
REMARK    2  A    between atoms: C_8  and  C_9
REMARK    3  A    between atoms: C_9  and  N_10
REMARK    4  A    between atoms: C_9  and  C_23
REMARK    5  A    between atoms: N_10  and  C_11
REMARK    6  A    between atoms: C_11  and  C_12
REMARK    7  A    between atoms: C_11  and  C_13
REMARK    8  A    between atoms: CA_19  and  C_20
REMARK    9  A    between atoms: C_20  and  OXT_22
REMARK   10  A    between atoms: C_23  and  O_25
REMARK                            x       y       z     vdW  Elec       q    Type
REMARK                         _______ _______ _______ _____ _____    ______ ____
ROOT
ATOM      1  N   UNK A   1       3.655   6.355  17.757  0.00  0.00    +0.000 NA
ATOM      2  H   UNK A   1       3.308   6.083  16.833  0.00  0.00    +0.000 HD
ENDROOT
BRANCH   1   3
ATOM      3  C   UNK A   1       2.488   6.862  18.561  0.00  0.00    +0.000 C 
ATOM      4  C   UNK A   1       2.818   6.956  20.054  0.00  0.00    +0.000 C 
BRANCH   3   5
ATOM      5  C   UNK A   1       2.047   8.284  18.090  0.00  0.00    +0.000 C 
ATOM      6  O   UNK A   1       2.341   8.722  16.969  0.00  0.00    +0.000 OA
ATOM      7  N   PRO A   2       1.365   9.118  18.952  0.00  0.00    +0.000 N 
ATOM      8  CD  PRO A   2       1.009   8.911  20.346  0.00  0.00    +0.000 C 
ATOM      9  CG  PRO A   2      -0.357   9.560  20.443  0.00  0.00    +0.000 C 
ATOM     10  CB  PRO A   2      -0.272  10.764  19.508  0.00  0.00    +0.000 C 
ATOM     11  CA  PRO A   2       0.853  10.432  18.514  0.00  0.00    +0.000 C 
BRANCH  11  12
ATOM     12  C   PRO A   2       1.957  11.511  18.510  0.00  0.00    +0.000 C 
ATOM     13  O   PRO A   2       2.198  12.278  19.438  0.00  0.00    +0.000 OA
BRANCH  12  14
ATOM     14  OXT PRO A   2       2.621  11.596  17.332  0.00  0.00    +0.000 OA
ATOM     15  HXT PRO A   2       3.599  11.676  17.460  0.00  0.00    +0.000 HD
ENDBRANCH  12  14
ENDBRANCH  11  12
ENDBRANCH   3   5
ENDBRANCH   1   3
BRANCH   1  16
ATOM     16  C   UNK A   1       4.320   5.157  18.373  0.00  0.00    +0.000 C 
BRANCH  16  24
ATOM     17  C   UNK A   1       6.085   3.808  15.302  0.00  0.00    +0.000 C 
ATOM     18  C   UNK A   1       6.707   5.119  15.704  0.00  0.00    +0.000 C 
ATOM     19  O   UNK A   1       7.456   5.691  14.908  0.00  0.00    +0.000 OA
ATOM     20  N   UNK A   1       6.416   5.650  16.949  0.00  0.00    +0.000 N 
ATOM     21  C   UNK A   1       7.170   6.813  17.392  0.00  0.00    +0.000 C 
ATOM     22  C   UNK A   1       7.789   6.344  18.690  0.00  0.00    +0.000 C 
ATOM     23  C   UNK A   1       6.690   5.485  19.303  0.00  0.00    +0.000 C 
ATOM     24  C   UNK A   1       5.857   4.926  18.108  0.00  0.00    +0.000 C 
ENDBRANCH  16  24
BRANCH  16  25
ATOM     25  C   UNK A   1       3.618   3.890  17.856  0.00  0.00    +0.000 C 
ATOM     26  O   UNK A   1       2.543   3.900  17.272  0.00  0.00    +0.000 OA
BRANCH  25  27
ATOM     27  O   UNK A   1       4.260   2.739  18.163  0.00  0.00    +0.000 OA
ATOM     28  H   UNK A   1       4.610   2.686  19.074  0.00  0.00    +0.000 HD
ENDBRANCH  25  27
ENDBRANCH  16  25
ENDBRANCH   1  16
TORSDOF 8
ENDMDL
MODEL 5
REMARK VINA RESULT:      -6.8      3.885      7.495
REMARK  Name = 
REMARK  10 active torsions:
REMARK  status: ('A' for Active; 'I' for Inactive)
REMARK    1  A    between atoms: C_1  and  C_2
REMARK    2  A    between atoms: C_8  and  C_9
REMARK    3  A    between atoms: C_9  and  N_10
REMARK    4  A    between atoms: C_9  and  C_23
REMARK    5  A    between atoms: N_10  and  C_11
REMARK    6  A    between atoms: C_11  and  C_12
REMARK    7  A    between atoms: C_11  and  C_13
REMARK    8  A    between atoms: CA_19  and  C_20
REMARK    9  A    between atoms: C_20  and  OXT_22
REMARK   10  A    between atoms: C_23  and  O_25
REMARK                            x       y       z     vdW  Elec       q    Type
REMARK                         _______ _______ _______ _____ _____    ______ ____
ROOT
ATOM      1  N   UNK A   1       2.256   6.271  18.838  0.00  0.00    +0.000 NA
ATOM      2  H   UNK A   1       1.327   6.490  19.208  0.00  0.00    +0.000 HD
ENDROOT
BRANCH   1   3
ATOM      3  C   UNK A   1       2.970   7.569  18.576  0.00  0.00    +0.000 C 
ATOM      4  C   UNK A   1       3.774   7.530  17.272  0.00  0.00    +0.000 C 
BRANCH   3   5
ATOM      5  C   UNK A   1       1.965   8.761  18.470  0.00  0.00    +0.000 C 
ATOM      6  O   UNK A   1       1.809   9.391  17.416  0.00  0.00    +0.000 OA
ATOM      7  N   PRO A   2       1.270   9.180  19.585  0.00  0.00    +0.000 N 
ATOM      8  CD  PRO A   2       1.357   8.710  20.957  0.00  0.00    +0.000 C 
ATOM      9  CG  PRO A   2      -0.083   8.781  21.428  0.00  0.00    +0.000 C 
ATOM     10  CB  PRO A   2      -0.647  10.019  20.735  0.00  0.00    +0.000 C 
ATOM     11  CA  PRO A   2       0.247  10.242  19.503  0.00  0.00    +0.000 C 
BRANCH  11  12
ATOM     12  C   PRO A   2       0.875  11.652  19.493  0.00  0.00    +0.000 C 
ATOM     13  O   PRO A   2       1.177  12.297  20.493  0.00  0.00    +0.000 OA
BRANCH  12  14
ATOM     14  OXT PRO A   2       1.009  12.171  18.250  0.00  0.00    +0.000 OA
ATOM     15  HXT PRO A   2       0.179  12.608  17.936  0.00  0.00    +0.000 HD
ENDBRANCH  12  14
ENDBRANCH  11  12
ENDBRANCH   3   5
ENDBRANCH   1   3
BRANCH   1  16
ATOM     16  C   UNK A   1       2.961   5.401  19.839  0.00  0.00    +0.000 C 
BRANCH  16  24
ATOM     17  C   UNK A   1       1.839   1.863  19.067  0.00  0.00    +0.000 C 
ATOM     18  C   UNK A   1       2.585   2.423  17.885  0.00  0.00    +0.000 C 
ATOM     19  O   UNK A   1       2.512   1.836  16.803  0.00  0.00    +0.000 OA
ATOM     20  N   UNK A   1       3.324   3.583  18.042  0.00  0.00    +0.000 N 
ATOM     21  C   UNK A   1       4.186   4.000  16.946  0.00  0.00    +0.000 C 
ATOM     22  C   UNK A   1       5.553   4.065  17.593  0.00  0.00    +0.000 C 
ATOM     23  C   UNK A   1       5.249   4.611  18.982  0.00  0.00    +0.000 C 
ATOM     24  C   UNK A   1       3.791   4.166  19.316  0.00  0.00    +0.000 C 
ENDBRANCH  16  24
BRANCH  16  25
ATOM     25  C   UNK A   1       1.912   4.814  20.800  0.00  0.00    +0.000 C 
ATOM     26  O   UNK A   1       0.710   5.014  20.695  0.00  0.00    +0.000 OA
BRANCH  25  27
ATOM     27  O   UNK A   1       2.439   4.105  21.825  0.00  0.00    +0.000 OA
ATOM     28  H   UNK A   1       2.304   4.492  22.712  0.00  0.00    +0.000 HD
ENDBRANCH  25  27
ENDBRANCH  16  25
ENDBRANCH   1  16
TORSDOF 8
ENDMDL
MODEL 6
REMARK VINA RESULT:      -6.7      2.512      4.183
REMARK  Name = 
REMARK  10 active torsions:
REMARK  status: ('A' for Active; 'I' for Inactive)
REMARK    1  A    between atoms: C_1  and  C_2
REMARK    2  A    between atoms: C_8  and  C_9
REMARK    3  A    between atoms: C_9  and  N_10
REMARK    4  A    between atoms: C_9  and  C_23
REMARK    5  A    between atoms: N_10  and  C_11
REMARK    6  A    between atoms: C_11  and  C_12
REMARK    7  A    between atoms: C_11  and  C_13
REMARK    8  A    between atoms: CA_19  and  C_20
REMARK    9  A    between atoms: C_20  and  OXT_22
REMARK   10  A    between atoms: C_23  and  O_25
REMARK                            x       y       z     vdW  Elec       q    Type
REMARK                         _______ _______ _______ _____ _____    ______ ____
ROOT
ATOM      1  N   UNK A   1       2.541   4.540  18.082  0.00  0.00    +0.000 NA
ATOM      2  H   UNK A   1       3.102   5.212  17.551  0.00  0.00    +0.000 HD
ENDROOT
BRANCH   1   3
ATOM      3  C   UNK A   1       3.473   3.502  18.647  0.00  0.00    +0.000 C 
ATOM      4  C   UNK A   1       3.332   2.154  17.933  0.00  0.00    +0.000 C 
BRANCH   3   5
ATOM      5  C   UNK A   1       4.965   3.945  18.519  0.00  0.00    +0.000 C 
ATOM      6  O   UNK A   1       5.712   4.017  19.503  0.00  0.00    +0.000 OA
ATOM      7  N   PRO A   2       5.468   4.333  17.294  0.00  0.00    +0.000 N 
ATOM      8  CD  PRO A   2       4.787   4.465  16.017  0.00  0.00    +0.000 C 
ATOM      9  CG  PRO A   2       5.834   3.994  15.027  0.00  0.00    +0.000 C 
ATOM     10  CB  PRO A   2       7.157   4.484  15.612  0.00  0.00    +0.000 C 
ATOM     11  CA  PRO A   2       6.895   4.671  17.116  0.00  0.00    +0.000 C 
BRANCH  11  12
ATOM     12  C   PRO A   2       7.212   6.107  17.584  0.00  0.00    +0.000 C 
ATOM     13  O   PRO A   2       7.222   7.099  16.860  0.00  0.00    +0.000 OA
BRANCH  12  14
ATOM     14  OXT PRO A   2       7.559   6.183  18.891  0.00  0.00    +0.000 OA
ATOM     15  HXT PRO A   2       6.922   6.730  19.415  0.00  0.00    +0.000 HD
ENDBRANCH  12  14
ENDBRANCH  11  12
ENDBRANCH   3   5
ENDBRANCH   1   3
BRANCH   1  16
ATOM     16  C   UNK A   1       1.789   5.296  19.140  0.00  0.00    +0.000 C 
BRANCH  16  24
ATOM     17  C   UNK A   1       3.906   7.834  17.284  0.00  0.00    +0.000 C 
ATOM     18  C   UNK A   1       2.696   8.517  17.864  0.00  0.00    +0.000 C 
ATOM     19  O   UNK A   1       2.408   9.651  17.474  0.00  0.00    +0.000 OA
ATOM     20  N   UNK A   1       1.936   7.852  18.812  0.00  0.00    +0.000 N 
ATOM     21  C   UNK A   1       0.889   8.597  19.496  0.00  0.00    +0.000 C 
ATOM     22  C   UNK A   1       1.268   8.456  20.954  0.00  0.00    +0.000 C 
ATOM     23  C   UNK A   1       1.793   7.028  21.035  0.00  0.00    +0.000 C 
ATOM     24  C   UNK A   1       2.353   6.689  19.619  0.00  0.00    +0.000 C 
ENDBRANCH  16  24
BRANCH  16  25
ATOM     25  C   UNK A   1       1.718   4.424  20.406  0.00  0.00    +0.000 C 
ATOM     26  O   UNK A   1       2.606   4.371  21.244  0.00  0.00    +0.000 OA
BRANCH  25  27
ATOM     27  O   UNK A   1       0.606   3.656  20.484  0.00  0.00    +0.000 OA
ATOM     28  H   UNK A   1       0.767   2.702  20.617  0.00  0.00    +0.000 HD
ENDBRANCH  25  27
ENDBRANCH  16  25
ENDBRANCH   1  16
TORSDOF 8
ENDMDL
MODEL 7
REMARK VINA RESULT:      -6.6      1.124      1.371
REMARK  Name = 
REMARK  10 active torsions:
REMARK  status: ('A' for Active; 'I' for Inactive)
REMARK    1  A    between atoms: C_1  and  C_2
REMARK    2  A    between atoms: C_8  and  C_9
REMARK    3  A    between atoms: C_9  and  N_10
REMARK    4  A    between atoms: C_9  and  C_23
REMARK    5  A    between atoms: N_10  and  C_11
REMARK    6  A    between atoms: C_11  and  C_12
REMARK    7  A    between atoms: C_11  and  C_13
REMARK    8  A    between atoms: CA_19  and  C_20
REMARK    9  A    between atoms: C_20  and  OXT_22
REMARK   10  A    between atoms: C_23  and  O_25
REMARK                            x       y       z     vdW  Elec       q    Type
REMARK                         _______ _______ _______ _____ _____    ______ ____
ROOT
ATOM      1  N   UNK A   1       4.615   4.214  16.766  0.00  0.00    +0.000 NA
ATOM      2  H   UNK A   1       4.282   3.519  16.091  0.00  0.00    +0.000 HD
ENDROOT
BRANCH   1   3
ATOM      3  C   UNK A   1       5.027   5.444  16.004  0.00  0.00    +0.000 C 
ATOM      4  C   UNK A   1       5.286   6.634  16.932  0.00  0.00    +0.000 C 
BRANCH   3   5
ATOM      5  C   UNK A   1       6.333   5.196  15.185  0.00  0.00    +0.000 C 
ATOM      6  O   UNK A   1       7.451   5.479  15.636  0.00  0.00    +0.000 OA
ATOM      7  N   PRO A   2       6.260   4.707  13.897  0.00  0.00    +0.000 N 
ATOM      8  CD  PRO A   2       5.089   4.415  13.087  0.00  0.00    +0.000 C 
ATOM      9  CG  PRO A   2       5.510   3.173  12.325  0.00  0.00    +0.000 C 
ATOM     10  CB  PRO A   2       6.998   3.381  12.053  0.00  0.00    +0.000 C 
ATOM     11  CA  PRO A   2       7.475   4.375  13.126  0.00  0.00    +0.000 C 
BRANCH  11  12
ATOM     12  C   PRO A   2       8.125   5.629  12.502  0.00  0.00    +0.000 C 
ATOM     13  O   PRO A   2       7.826   6.111  11.414  0.00  0.00    +0.000 OA
BRANCH  12  14
ATOM     14  OXT PRO A   2       9.137   6.136  13.246  0.00  0.00    +0.000 OA
ATOM     15  HXT PRO A   2       9.762   6.680  12.705  0.00  0.00    +0.000 HD
ENDBRANCH  12  14
ENDBRANCH  11  12
ENDBRANCH   3   5
ENDBRANCH   1   3
BRANCH   1  16
ATOM     16  C   UNK A   1       3.508   4.471  17.749  0.00  0.00    +0.000 C 
BRANCH  16  24
ATOM     17  C   UNK A   1       1.450   5.400  20.794  0.00  0.00    +0.000 C 
ATOM     18  C   UNK A   1       1.748   3.924  20.820  0.00  0.00    +0.000 C 
ATOM     19  O   UNK A   1       1.118   3.203  21.597  0.00  0.00    +0.000 OA
ATOM     20  N   UNK A   1       2.714   3.416  19.967  0.00  0.00    +0.000 N 
ATOM     21  C   UNK A   1       3.120   2.029  20.141  0.00  0.00    +0.000 C 
ATOM     22  C   UNK A   1       4.611   2.138  20.373  0.00  0.00    +0.000 C 
ATOM     23  C   UNK A   1       5.023   3.264  19.433  0.00  0.00    +0.000 C 
ATOM     24  C   UNK A   1       3.771   4.181  19.276  0.00  0.00    +0.000 C 
ENDBRANCH  16  24
BRANCH  16  25
ATOM     25  C   UNK A   1       2.302   3.596  17.366  0.00  0.00    +0.000 C 
ATOM     26  O   UNK A   1       2.392   2.421  17.041  0.00  0.00    +0.000 OA
BRANCH  25  27
ATOM     27  O   UNK A   1       1.122   4.260  17.349  0.00  0.00    +0.000 OA
ATOM     28  H   UNK A   1       0.428   3.863  16.787  0.00  0.00    +0.000 HD
ENDBRANCH  25  27
ENDBRANCH  16  25
ENDBRANCH   1  16
TORSDOF 8
ENDMDL
MODEL 8
REMARK VINA RESULT:      -6.6      4.514      7.574
REMARK  Name = 
REMARK  10 active torsions:
REMARK  status: ('A' for Active; 'I' for Inactive)
REMARK    1  A    between atoms: C_1  and  C_2
REMARK    2  A    between atoms: C_8  and  C_9
REMARK    3  A    between atoms: C_9  and  N_10
REMARK    4  A    between atoms: C_9  and  C_23
REMARK    5  A    between atoms: N_10  and  C_11
REMARK    6  A    between atoms: C_11  and  C_12
REMARK    7  A    between atoms: C_11  and  C_13
REMARK    8  A    between atoms: CA_19  and  C_20
REMARK    9  A    between atoms: C_20  and  OXT_22
REMARK   10  A    between atoms: C_23  and  O_25
REMARK                            x       y       z     vdW  Elec       q    Type
REMARK                         _______ _______ _______ _____ _____    ______ ____
ROOT
ATOM      1  N   UNK A   1       2.397   7.998  19.676  0.00  0.00    +0.000 NA
ATOM      2  H   UNK A   1       2.496   7.614  20.620  0.00  0.00    +0.000 HD
ENDROOT
BRANCH   1   3
ATOM      3  C   UNK A   1       2.589   6.874  18.695  0.00  0.00    +0.000 C 
ATOM      4  C   UNK A   1       3.430   7.304  17.488  0.00  0.00    +0.000 C 
BRANCH   3   5
ATOM      5  C   UNK A   1       3.308   5.656  19.356  0.00  0.00    +0.000 C 
ATOM      6  O   UNK A   1       4.521   5.670  19.605  0.00  0.00    +0.000 OA
ATOM      7  N   PRO A   2       2.605   4.499  19.622  0.00  0.00    +0.000 N 
ATOM      8  CD  PRO A   2       1.223   4.170  19.319  0.00  0.00    +0.000 C 
ATOM      9  CG  PRO A   2       0.798   3.360  20.529  0.00  0.00    +0.000 C 
ATOM     10  CB  PRO A   2       2.047   2.570  20.913  0.00  0.00    +0.000 C 
ATOM     11  CA  PRO A   2       3.228   3.361  20.328  0.00  0.00    +0.000 C 
BRANCH  11  12
ATOM     12  C   PRO A   2       4.091   2.497  19.385  0.00  0.00    +0.000 C 
ATOM     13  O   PRO A   2       3.679   1.549  18.722  0.00  0.00    +0.000 OA
BRANCH  12  14
ATOM     14  OXT PRO A   2       5.403   2.834  19.396  0.00  0.00    +0.000 OA
ATOM     15  HXT PRO A   2       5.539   3.808  19.294  0.00  0.00    +0.000 HD
ENDBRANCH  12  14
ENDBRANCH  11  12
ENDBRANCH   3   5
ENDBRANCH   1   3
BRANCH   1  16
ATOM     16  C   UNK A   1       1.044   8.643  19.578  0.00  0.00    +0.000 C 
BRANCH  16  24
ATOM     17  C   UNK A   1      -2.129   9.964  17.978  0.00  0.00    +0.000 C 
ATOM     18  C   UNK A   1      -1.372  11.102  18.609  0.00  0.00    +0.000 C 
ATOM     19  O   UNK A   1      -1.946  12.183  18.766  0.00  0.00    +0.000 OA
ATOM     20  N   UNK A   1      -0.059  10.905  19.001  0.00  0.00    +0.000 N 
ATOM     21  C   UNK A   1       0.710  12.064  19.429  0.00  0.00    +0.000 C 
ATOM     22  C   UNK A   1       1.894  12.054  18.487  0.00  0.00    +0.000 C 
ATOM     23  C   UNK A   1       2.195  10.568  18.330  0.00  0.00    +0.000 C 
ATOM     24  C   UNK A   1       0.842   9.824  18.553  0.00  0.00    +0.000 C 
ENDBRANCH  16  24
BRANCH  16  25
ATOM     25  C   UNK A   1       0.681   9.226  20.955  0.00  0.00    +0.000 C 
ATOM     26  O   UNK A   1       1.470   9.836  21.663  0.00  0.00    +0.000 OA
BRANCH  25  27
ATOM     27  O   UNK A   1      -0.581   8.947  21.357  0.00  0.00    +0.000 OA
ATOM     28  H   UNK A   1      -0.931   9.524  22.063  0.00  0.00    +0.000 HD
ENDBRANCH  25  27
ENDBRANCH  16  25
ENDBRANCH   1  16
TORSDOF 8
ENDMDL
MODEL 9
REMARK VINA RESULT:      -6.5      4.050      7.149
REMARK  Name = 
REMARK  10 active torsions:
REMARK  status: ('A' for Active; 'I' for Inactive)
REMARK    1  A    between atoms: C_1  and  C_2
REMARK    2  A    between atoms: C_8  and  C_9
REMARK    3  A    between atoms: C_9  and  N_10
REMARK    4  A    between atoms: C_9  and  C_23
REMARK    5  A    between atoms: N_10  and  C_11
REMARK    6  A    between atoms: C_11  and  C_12
REMARK    7  A    between atoms: C_11  and  C_13
REMARK    8  A    between atoms: CA_19  and  C_20
REMARK    9  A    between atoms: C_20  and  OXT_22
REMARK   10  A    between atoms: C_23  and  O_25
REMARK                            x       y       z     vdW  Elec       q    Type
REMARK                         _______ _______ _______ _____ _____    ______ ____
ROOT
ATOM      1  N   UNK A   1       3.748   6.097  19.613  0.00  0.00    +0.000 NA
ATOM      2  H   UNK A   1       4.608   6.584  19.880  0.00  0.00    +0.000 HD
ENDROOT
BRANCH   1   3
ATOM      3  C   UNK A   1       2.936   7.026  18.751  0.00  0.00    +0.000 C 
ATOM      4  C   UNK A   1       1.978   6.263  17.830  0.00  0.00    +0.000 C 
BRANCH   3   5
ATOM      5  C   UNK A   1       2.076   8.001  19.616  0.00  0.00    +0.000 C 
ATOM      6  O   UNK A   1       1.655   7.683  20.736  0.00  0.00    +0.000 OA
ATOM      7  N   PRO A   2       1.711   9.233  19.113  0.00  0.00    +0.000 N 
ATOM      8  CD  PRO A   2       1.956   9.801  17.798  0.00  0.00    +0.000 C 
ATOM      9  CG  PRO A   2       2.204  11.265  18.107  0.00  0.00    +0.000 C 
ATOM     10  CB  PRO A   2       1.262  11.573  19.267  0.00  0.00    +0.000 C 
ATOM     11  CA  PRO A   2       0.976  10.216  19.934  0.00  0.00    +0.000 C 
BRANCH  11  12
ATOM     12  C   PRO A   2      -0.535   9.908  19.992  0.00  0.00    +0.000 C 
ATOM     13  O   PRO A   2      -1.368  10.306  19.183  0.00  0.00    +0.000 OA
BRANCH  12  14
ATOM     14  OXT PRO A   2      -0.896   9.194  21.085  0.00  0.00    +0.000 OA
ATOM     15  HXT PRO A   2      -0.378   8.356  21.171  0.00  0.00    +0.000 HD
ENDBRANCH  12  14
ENDBRANCH  11  12
ENDBRANCH   3   5
ENDBRANCH   1   3
BRANCH   1  16
ATOM     16  C   UNK A   1       4.132   4.825  18.912  0.00  0.00    +0.000 C 
BRANCH  16  24
ATOM     17  C   UNK A   1       0.768   3.984  20.443  0.00  0.00    +0.000 C 
ATOM     18  C   UNK A   1       1.077   3.007  19.340  0.00  0.00    +0.000 C 
ATOM     19  O   UNK A   1       0.171   2.289  18.911  0.00  0.00    +0.000 OA
ATOM     20  N   UNK A   1       2.364   2.946  18.834  0.00  0.00    +0.000 N 
ATOM     21  C   UNK A   1       2.686   1.870  17.908  0.00  0.00    +0.000 C 
ATOM     22  C   UNK A   1       3.843   1.170  18.588  0.00  0.00    +0.000 C 
ATOM     23  C   UNK A   1       4.626   2.323  19.204  0.00  0.00    +0.000 C 
ATOM     24  C   UNK A   1       3.590   3.457  19.478  0.00  0.00    +0.000 C 
ENDBRANCH  16  24
BRANCH  16  25
ATOM     25  C   UNK A   1       5.665   4.701  18.933  0.00  0.00    +0.000 C 
ATOM     26  O   UNK A   1       6.362   5.058  19.873  0.00  0.00    +0.000 OA
BRANCH  25  27
ATOM     27  O   UNK A   1       6.196   4.223  17.783  0.00  0.00    +0.000 OA
ATOM     28  H   UNK A   1       6.479   3.288  17.812  0.00  0.00    +0.000 HD
ENDBRANCH  25  27
ENDBRANCH  16  25
ENDBRANCH   1  16
TORSDOF 8
ENDMDL
