MODEL 1
REMARK VINA RESULT:      -7.9      0.000      0.000
REMARK  Name = 
REMARK  7 active torsions:
REMARK  status: ('A' for Active; 'I' for Inactive)
REMARK    1  A    between atoms: C_2  and  C_3
REMARK    2  A    between atoms: C_3  and  C_4
REMARK    3  A    between atoms: N_9  and  C_10
REMARK    4  A    between atoms: C_10  and  C_11
REMARK    5  A    between atoms: C_11  and  S_12
REMARK    6  A    between atoms: S_12  and  N_15
REMARK    7  A    between atoms: N_18  and  C_19
REMARK                            x       y       z     vdW  Elec       q    Type
REMARK                         _______ _______ _______ _____ _____    ______ ____
ROOT
ATOM      1  S   UNL     1       6.780   6.097  16.343  0.00  0.00    +0.000 S 
ATOM      2  O   UNL     1       5.529   6.781  16.113  0.00  0.00    +0.000 OA
ATOM      3  O   UNL     1       7.748   5.945  15.271  0.00  0.00    +0.000 OA
ENDROOT
BRANCH   1   4
ATOM      4  N   UNL     1       6.442   4.561  16.961  0.00  0.00    +0.000 NA
ATOM      5  C   UNL     1       6.614   4.368  18.442  0.00  0.00    +0.000 C 
ATOM      6  C   UNL     1       5.372   4.803  19.267  0.00  0.00    +0.000 C 
ATOM      7  N   UNL     1       4.135   4.249  18.684  0.00  0.00    +0.000 N 
ATOM      8  C   UNL     1       3.962   4.498  17.241  0.00  0.00    +0.000 C 
ATOM      9  C   UNL     1       5.173   3.920  16.495  0.00  0.00    +0.000 C 
BRANCH   7  10
ATOM     10  C   UNL     1       3.094   3.781  19.472  0.00  0.00    +0.000 A 
ATOM     11  C   UNL     1       3.364   2.992  20.605  0.00  0.00    +0.000 A 
ATOM     12  C   UNL     1       2.357   2.555  21.473  0.00  0.00    +0.000 A 
ATOM     13  C   UNL     1       1.033   2.900  21.235  0.00  0.00    +0.000 A 
ATOM     14  C   UNL     1       0.722   3.669  20.120  0.00  0.00    +0.000 A 
ATOM     15  C   UNL     1       1.737   4.097  19.258  0.00  0.00    +0.000 A 
ATOM     16  F   UNL     1       1.362   4.817  18.188  0.00  0.00    +0.000 F 
ENDBRANCH   7  10
ENDBRANCH   1   4
BRANCH   1  17
ATOM     17  C   UNL     1       7.613   6.879  17.711  0.00  0.00    +0.000 C 
BRANCH  17  18
ATOM     18  C   UNL     1       7.630   8.389  17.562  0.00  0.00    +0.000 C 
BRANCH  18  21
ATOM     19  O   UNL     1       8.252  11.149  17.653  0.00  0.00    +0.000 OA
ATOM     20  C   UNL     1       8.903  10.373  18.347  0.00  0.00    +0.000 C 
ATOM     21  N   UNL     1       8.666   9.013  18.375  0.00  0.00    +0.000 N 
ATOM     22  H   UNL     1       9.318   8.416  18.870  0.00  0.00    +0.000 HD
BRANCH  20  23
ATOM     23  C   UNL     1      10.033  10.830  19.254  0.00  0.00    +0.000 C 
BRANCH  23  24
ATOM     24  C   UNL     1       9.516  11.793  20.278  0.00  0.00    +0.000 A 
ATOM     25  C   UNL     1       8.914  11.513  21.488  0.00  0.00    +0.000 A 
ATOM     26  C   UNL     1       8.576  12.693  22.213  0.00  0.00    +0.000 A 
ATOM     27  C   UNL     1       8.931  13.835  21.531  0.00  0.00    +0.000 A 
ATOM     28  S   UNL     1       9.667  13.484  20.029  0.00  0.00    +0.000 S 
ENDBRANCH  23  24
ENDBRANCH  20  23
ENDBRANCH  18  21
ENDBRANCH  17  18
ENDBRANCH   1  17
TORSDOF 7
ENDMDL
MODEL 2
REMARK VINA RESULT:      -7.8      1.351      1.685
REMARK  Name = 
REMARK  7 active torsions:
REMARK  status: ('A' for Active; 'I' for Inactive)
REMARK    1  A    between atoms: C_2  and  C_3
REMARK    2  A    between atoms: C_3  and  C_4
REMARK    3  A    between atoms: N_9  and  C_10
REMARK    4  A    between atoms: C_10  and  C_11
REMARK    5  A    between atoms: C_11  and  S_12
REMARK    6  A    between atoms: S_12  and  N_15
REMARK    7  A    between atoms: N_18  and  C_19
REMARK                            x       y       z     vdW  Elec       q    Type
REMARK                         _______ _______ _______ _____ _____    ______ ____
ROOT
ATOM      1  S   UNL     1       7.017   6.049  16.741  0.00  0.00    +0.000 S 
ATOM      2  O   UNL     1       7.716   5.949  15.480  0.00  0.00    +0.000 OA
ATOM      3  O   UNL     1       7.482   5.315  17.904  0.00  0.00    +0.000 OA
ENDROOT
BRANCH   1   4
ATOM      4  N   UNL     1       5.395   5.649  16.485  0.00  0.00    +0.000 NA
ATOM      5  C   UNL     1       5.058   4.186  16.407  0.00  0.00    +0.000 C 
ATOM      6  C   UNL     1       4.839   3.530  17.798  0.00  0.00    +0.000 C 
ATOM      7  N   UNL     1       3.944   4.355  18.632  0.00  0.00    +0.000 N 
ATOM      8  C   UNL     1       4.327   5.775  18.738  0.00  0.00    +0.000 C 
ATOM      9  C   UNL     1       4.391   6.373  17.325  0.00  0.00    +0.000 C 
BRANCH   7  10
ATOM     10  C   UNL     1       2.990   3.794  19.468  0.00  0.00    +0.000 A 
ATOM     11  C   UNL     1       3.379   3.184  20.675  0.00  0.00    +0.000 A 
ATOM     12  C   UNL     1       2.453   2.667  21.588  0.00  0.00    +0.000 A 
ATOM     13  C   UNL     1       1.093   2.746  21.321  0.00  0.00    +0.000 A 
ATOM     14  C   UNL     1       0.667   3.331  20.134  0.00  0.00    +0.000 A 
ATOM     15  C   UNL     1       1.602   3.841  19.228  0.00  0.00    +0.000 A 
ATOM     16  F   UNL     1       1.121   4.371  18.091  0.00  0.00    +0.000 F 
ENDBRANCH   7  10
ENDBRANCH   1   4
BRANCH   1  17
ATOM     17  C   UNL     1       6.915   7.769  17.198  0.00  0.00    +0.000 C 
BRANCH  17  18
ATOM     18  C   UNL     1       8.088   8.185  18.065  0.00  0.00    +0.000 C 
BRANCH  18  21
ATOM     19  O   UNL     1       9.312  10.067  19.790  0.00  0.00    +0.000 OA
ATOM     20  C   UNL     1       9.199  10.342  18.599  0.00  0.00    +0.000 C 
ATOM     21  N   UNL     1       8.625   9.485  17.682  0.00  0.00    +0.000 N 
ATOM     22  H   UNL     1       8.449   9.823  16.743  0.00  0.00    +0.000 HD
BRANCH  20  23
ATOM     23  C   UNL     1       9.686  11.655  18.008  0.00  0.00    +0.000 C 
BRANCH  23  24
ATOM     24  C   UNL     1       9.182  12.807  18.824  0.00  0.00    +0.000 A 
ATOM     25  C   UNL     1       9.548  13.174  20.103  0.00  0.00    +0.000 A 
ATOM     26  C   UNL     1       8.872  14.348  20.546  0.00  0.00    +0.000 A 
ATOM     27  C   UNL     1       8.010  14.837  19.590  0.00  0.00    +0.000 A 
ATOM     28  S   UNL     1       8.020  13.886  18.169  0.00  0.00    +0.000 S 
ENDBRANCH  23  24
ENDBRANCH  20  23
ENDBRANCH  18  21
ENDBRANCH  17  18
ENDBRANCH   1  17
TORSDOF 7
ENDMDL
MODEL 3
REMARK VINA RESULT:      -7.7      1.227      1.465
REMARK  Name = 
REMARK  7 active torsions:
REMARK  status: ('A' for Active; 'I' for Inactive)
REMARK    1  A    between atoms: C_2  and  C_3
REMARK    2  A    between atoms: C_3  and  C_4
REMARK    3  A    between atoms: N_9  and  C_10
REMARK    4  A    between atoms: C_10  and  C_11
REMARK    5  A    between atoms: C_11  and  S_12
REMARK    6  A    between atoms: S_12  and  N_15
REMARK    7  A    between atoms: N_18  and  C_19
REMARK                            x       y       z     vdW  Elec       q    Type
REMARK                         _______ _______ _______ _____ _____    ______ ____
ROOT
ATOM      1  S   UNL     1       6.943   6.349  16.589  0.00  0.00    +0.000 S 
ATOM      2  O   UNL     1       5.717   7.100  16.447  0.00  0.00    +0.000 OA
ATOM      3  O   UNL     1       7.846   6.187  15.462  0.00  0.00    +0.000 OA
ENDROOT
BRANCH   1   4
ATOM      4  N   UNL     1       6.563   4.812  17.178  0.00  0.00    +0.000 NA
ATOM      5  C   UNL     1       6.523   4.644  18.671  0.00  0.00    +0.000 C 
ATOM      6  C   UNL     1       5.162   5.052  19.300  0.00  0.00    +0.000 C 
ATOM      7  N   UNL     1       4.040   4.451  18.552  0.00  0.00    +0.000 N 
ATOM      8  C   UNL     1       4.072   4.676  17.096  0.00  0.00    +0.000 C 
ATOM      9  C   UNL     1       5.395   4.126  16.544  0.00  0.00    +0.000 C 
BRANCH   7  10
ATOM     10  C   UNL     1       2.909   3.962  19.189  0.00  0.00    +0.000 A 
ATOM     11  C   UNL     1       2.704   2.574  19.297  0.00  0.00    +0.000 A 
ATOM     12  C   UNL     1       1.618   2.027  19.991  0.00  0.00    +0.000 A 
ATOM     13  C   UNL     1       0.694   2.860  20.608  0.00  0.00    +0.000 A 
ATOM     14  C   UNL     1       0.854   4.238  20.515  0.00  0.00    +0.000 A 
ATOM     15  C   UNL     1       1.942   4.773  19.817  0.00  0.00    +0.000 A 
ATOM     16  F   UNL     1       2.022   6.112  19.748  0.00  0.00    +0.000 F 
ENDBRANCH   7  10
ENDBRANCH   1   4
BRANCH   1  17
ATOM     17  C   UNL     1       7.884   7.048  17.932  0.00  0.00    +0.000 C 
BRANCH  17  18
ATOM     18  C   UNL     1       8.001   8.555  17.806  0.00  0.00    +0.000 C 
BRANCH  18  21
ATOM     19  O   UNL     1       9.158  11.138  17.839  0.00  0.00    +0.000 OA
ATOM     20  C   UNL     1       9.300  10.414  18.819  0.00  0.00    +0.000 C 
ATOM     21  N   UNL     1       8.765   9.144  18.898  0.00  0.00    +0.000 N 
ATOM     22  H   UNL     1       9.024   8.554  19.680  0.00  0.00    +0.000 HD
BRANCH  20  23
ATOM     23  C   UNL     1      10.075  10.844  20.054  0.00  0.00    +0.000 C 
BRANCH  23  24
ATOM     24  C   UNL     1      10.540  12.260  19.905  0.00  0.00    +0.000 A 
ATOM     25  C   UNL     1      11.744  12.716  19.406  0.00  0.00    +0.000 A 
ATOM     26  C   UNL     1      11.822  14.139  19.392  0.00  0.00    +0.000 A 
ATOM     27  C   UNL     1      10.676  14.723  19.884  0.00  0.00    +0.000 A 
ATOM     28  S   UNL     1       9.515  13.560  20.356  0.00  0.00    +0.000 S 
ENDBRANCH  23  24
ENDBRANCH  20  23
ENDBRANCH  18  21
ENDBRANCH  17  18
ENDBRANCH   1  17
TORSDOF 7
ENDMDL
MODEL 4
REMARK VINA RESULT:      -7.6      1.528      1.763
REMARK  Name = 
REMARK  7 active torsions:
REMARK  status: ('A' for Active; 'I' for Inactive)
REMARK    1  A    between atoms: C_2  and  C_3
REMARK    2  A    between atoms: C_3  and  C_4
REMARK    3  A    between atoms: N_9  and  C_10
REMARK    4  A    between atoms: C_10  and  C_11
REMARK    5  A    between atoms: C_11  and  S_12
REMARK    6  A    between atoms: S_12  and  N_15
REMARK    7  A    between atoms: N_18  and  C_19
REMARK                            x       y       z     vdW  Elec       q    Type
REMARK                         _______ _______ _______ _____ _____    ______ ____
ROOT
ATOM      1  S   UNL     1       7.166   6.826  17.229  0.00  0.00    +0.000 S 
ATOM      2  O   UNL     1       5.902   7.524  17.204  0.00  0.00    +0.000 OA
ATOM      3  O   UNL     1       7.914   6.606  16.004  0.00  0.00    +0.000 OA
ENDROOT
BRANCH   1   4
ATOM      4  N   UNL     1       6.934   5.327  17.975  0.00  0.00    +0.000 NA
ATOM      5  C   UNL     1       6.279   5.333  19.328  0.00  0.00    +0.000 C 
ATOM      6  C   UNL     1       4.727   5.366  19.261  0.00  0.00    +0.000 C 
ATOM      7  N   UNL     1       4.223   4.361  18.304  0.00  0.00    +0.000 N 
ATOM      8  C   UNL     1       4.842   4.411  16.967  0.00  0.00    +0.000 C 
ATOM      9  C   UNL     1       6.360   4.241  17.121  0.00  0.00    +0.000 C 
BRANCH   7  10
ATOM     10  C   UNL     1       3.076   3.621  18.548  0.00  0.00    +0.000 A 
ATOM     11  C   UNL     1       3.154   2.408  19.256  0.00  0.00    +0.000 A 
ATOM     12  C   UNL     1       2.020   1.659  19.592  0.00  0.00    +0.000 A 
ATOM     13  C   UNL     1       0.757   2.108  19.229  0.00  0.00    +0.000 A 
ATOM     14  C   UNL     1       0.637   3.296  18.519  0.00  0.00    +0.000 A 
ATOM     15  C   UNL     1       1.777   4.034  18.186  0.00  0.00    +0.000 A 
ATOM     16  F   UNL     1       1.589   5.161  17.480  0.00  0.00    +0.000 F 
ENDBRANCH   7  10
ENDBRANCH   1   4
BRANCH   1  17
ATOM     17  C   UNL     1       8.250   7.655  18.377  0.00  0.00    +0.000 C 
BRANCH  17  18
ATOM     18  C   UNL     1       8.325   9.143  18.096  0.00  0.00    +0.000 C 
BRANCH  18  21
ATOM     19  O   UNL     1      10.192  11.249  17.797  0.00  0.00    +0.000 OA
ATOM     20  C   UNL     1       9.884  10.889  18.928  0.00  0.00    +0.000 C 
ATOM     21  N   UNL     1       8.976   9.878  19.172  0.00  0.00    +0.000 N 
ATOM     22  H   UNL     1       8.862   9.545  20.123  0.00  0.00    +0.000 HD
BRANCH  20  23
ATOM     23  C   UNL     1      10.466  11.523  20.181  0.00  0.00    +0.000 C 
BRANCH  23  24
ATOM     24  C   UNL     1      10.502  13.014  20.036  0.00  0.00    +0.000 A 
ATOM     25  C   UNL     1      11.600  13.828  19.846  0.00  0.00    +0.000 A 
ATOM     26  C   UNL     1      11.244  15.203  19.724  0.00  0.00    +0.000 A 
ATOM     27  C   UNL     1       9.884  15.392  19.827  0.00  0.00    +0.000 A 
ATOM     28  S   UNL     1       9.046  13.921  20.067  0.00  0.00    +0.000 S 
ENDBRANCH  23  24
ENDBRANCH  20  23
ENDBRANCH  18  21
ENDBRANCH  17  18
ENDBRANCH   1  17
TORSDOF 7
ENDMDL
MODEL 5
REMARK VINA RESULT:      -7.6      5.539      7.093
REMARK  Name = 
REMARK  7 active torsions:
REMARK  status: ('A' for Active; 'I' for Inactive)
REMARK    1  A    between atoms: C_2  and  C_3
REMARK    2  A    between atoms: C_3  and  C_4
REMARK    3  A    between atoms: N_9  and  C_10
REMARK    4  A    between atoms: C_10  and  C_11
REMARK    5  A    between atoms: C_11  and  S_12
REMARK    6  A    between atoms: S_12  and  N_15
REMARK    7  A    between atoms: N_18  and  C_19
REMARK                            x       y       z     vdW  Elec       q    Type
REMARK                         _______ _______ _______ _____ _____    ______ ____
ROOT
ATOM      1  S   UNL     1       1.827   3.066  20.829  0.00  0.00    +0.000 S 
ATOM      2  O   UNL     1       2.043   2.394  22.090  0.00  0.00    +0.000 OA
ATOM      3  O   UNL     1       0.481   3.277  20.325  0.00  0.00    +0.000 OA
ENDROOT
BRANCH   1   4
ATOM      4  N   UNL     1       2.710   2.259  19.636  0.00  0.00    +0.000 NA
ATOM      5  C   UNL     1       2.186   2.337  18.229  0.00  0.00    +0.000 C 
ATOM      6  C   UNL     1       2.635   3.619  17.476  0.00  0.00    +0.000 C 
ATOM      7  N   UNL     1       4.086   3.840  17.638  0.00  0.00    +0.000 N 
ATOM      8  C   UNL     1       4.567   3.813  19.031  0.00  0.00    +0.000 C 
ATOM      9  C   UNL     1       4.192   2.461  19.654  0.00  0.00    +0.000 C 
BRANCH   7  10
ATOM     10  C   UNL     1       4.880   4.311  16.602  0.00  0.00    +0.000 A 
ATOM     11  C   UNL     1       5.586   3.407  15.787  0.00  0.00    +0.000 A 
ATOM     12  C   UNL     1       6.343   3.823  14.686  0.00  0.00    +0.000 A 
ATOM     13  C   UNL     1       6.416   5.171  14.359  0.00  0.00    +0.000 A 
ATOM     14  C   UNL     1       5.742   6.097  15.146  0.00  0.00    +0.000 A 
ATOM     15  C   UNL     1       4.991   5.670  16.246  0.00  0.00    +0.000 A 
ATOM     16  F   UNL     1       4.384   6.621  16.975  0.00  0.00    +0.000 F 
ENDBRANCH   7  10
ENDBRANCH   1   4
BRANCH   1  17
ATOM     17  C   UNL     1       2.633   4.655  20.887  0.00  0.00    +0.000 C 
BRANCH  17  18
ATOM     18  C   UNL     1       1.626   5.790  20.892  0.00  0.00    +0.000 C 
BRANCH  18  21
ATOM     19  O   UNL     1       1.325   8.603  20.972  0.00  0.00    +0.000 OA
ATOM     20  C   UNL     1       1.645   8.072  19.913  0.00  0.00    +0.000 C 
ATOM     21  N   UNL     1       1.824   6.710  19.780  0.00  0.00    +0.000 N 
ATOM     22  H   UNL     1       1.964   6.325  18.853  0.00  0.00    +0.000 HD
BRANCH  20  23
ATOM     23  C   UNL     1       1.885   8.862  18.636  0.00  0.00    +0.000 C 
BRANCH  23  24
ATOM     24  C   UNL     1       0.943  10.025  18.564  0.00  0.00    +0.000 A 
ATOM     25  C   UNL     1      -0.406  10.017  18.272  0.00  0.00    +0.000 A 
ATOM     26  C   UNL     1      -0.982  11.319  18.323  0.00  0.00    +0.000 A 
ATOM     27  C   UNL     1      -0.051  12.281  18.650  0.00  0.00    +0.000 A 
ATOM     28  S   UNL     1       1.503  11.613  18.896  0.00  0.00    +0.000 S 
ENDBRANCH  23  24
ENDBRANCH  20  23
ENDBRANCH  18  21
ENDBRANCH  17  18
ENDBRANCH   1  17
TORSDOF 7
ENDMDL
MODEL 6
REMARK VINA RESULT:      -7.6      1.609      1.971
REMARK  Name = 
REMARK  7 active torsions:
REMARK  status: ('A' for Active; 'I' for Inactive)
REMARK    1  A    between atoms: C_2  and  C_3
REMARK    2  A    between atoms: C_3  and  C_4
REMARK    3  A    between atoms: N_9  and  C_10
REMARK    4  A    between atoms: C_10  and  C_11
REMARK    5  A    between atoms: C_11  and  S_12
REMARK    6  A    between atoms: S_12  and  N_15
REMARK    7  A    between atoms: N_18  and  C_19
REMARK                            x       y       z     vdW  Elec       q    Type
REMARK                         _______ _______ _______ _____ _____    ______ ____
ROOT
ATOM      1  S   UNL     1       7.206   6.863  17.282  0.00  0.00    +0.000 S 
ATOM      2  O   UNL     1       5.943   7.566  17.278  0.00  0.00    +0.000 OA
ATOM      3  O   UNL     1       7.968   6.706  16.056  0.00  0.00    +0.000 OA
ENDROOT
BRANCH   1   4
ATOM      4  N   UNL     1       6.959   5.327  17.943  0.00  0.00    +0.000 NA
ATOM      5  C   UNL     1       6.385   5.266  19.331  0.00  0.00    +0.000 C 
ATOM      6  C   UNL     1       4.834   5.358  19.359  0.00  0.00    +0.000 C 
ATOM      7  N   UNL     1       4.237   4.436  18.372  0.00  0.00    +0.000 N 
ATOM      8  C   UNL     1       4.779   4.553  17.006  0.00  0.00    +0.000 C 
ATOM      9  C   UNL     1       6.295   4.320  17.058  0.00  0.00    +0.000 C 
BRANCH   7  10
ATOM     10  C   UNL     1       3.078   3.722  18.638  0.00  0.00    +0.000 A 
ATOM     11  C   UNL     1       1.852   4.132  18.081  0.00  0.00    +0.000 A 
ATOM     12  C   UNL     1       0.668   3.407  18.258  0.00  0.00    +0.000 A 
ATOM     13  C   UNL     1       0.672   2.236  19.003  0.00  0.00    +0.000 A 
ATOM     14  C   UNL     1       1.860   1.803  19.580  0.00  0.00    +0.000 A 
ATOM     15  C   UNL     1       3.037   2.537  19.399  0.00  0.00    +0.000 A 
ATOM     16  F   UNL     1       4.143   2.072  20.003  0.00  0.00    +0.000 F 
ENDBRANCH   7  10
ENDBRANCH   1   4
BRANCH   1  17
ATOM     17  C   UNL     1       8.277   7.625  18.486  0.00  0.00    +0.000 C 
BRANCH  17  18
ATOM     18  C   UNL     1       8.477   9.101  18.197  0.00  0.00    +0.000 C 
BRANCH  18  21
ATOM     19  O   UNL     1       9.950  11.515  18.076  0.00  0.00    +0.000 OA
ATOM     20  C   UNL     1       9.776  10.983  19.168  0.00  0.00    +0.000 C 
ATOM     21  N   UNL     1       9.064   9.811  19.326  0.00  0.00    +0.000 N 
ATOM     22  H   UNL     1       9.065   9.359  20.234  0.00  0.00    +0.000 HD
BRANCH  20  23
ATOM     23  C   UNL     1      10.321  11.563  20.463  0.00  0.00    +0.000 C 
BRANCH  23  24
ATOM     24  C   UNL     1       9.291  12.437  21.111  0.00  0.00    +0.000 A 
ATOM     25  C   UNL     1       8.919  13.720  20.765  0.00  0.00    +0.000 A 
ATOM     26  C   UNL     1       7.880  14.228  21.598  0.00  0.00    +0.000 A 
ATOM     27  C   UNL     1       7.495  13.315  22.555  0.00  0.00    +0.000 A 
ATOM     28  S   UNL     1       8.381  11.857  22.444  0.00  0.00    +0.000 S 
ENDBRANCH  23  24
ENDBRANCH  20  23
ENDBRANCH  18  21
ENDBRANCH  17  18
ENDBRANCH   1  17
TORSDOF 7
ENDMDL
MODEL 7
REMARK VINA RESULT:      -7.5      1.157      1.188
REMARK  Name = 
REMARK  7 active torsions:
REMARK  status: ('A' for Active; 'I' for Inactive)
REMARK    1  A    between atoms: C_2  and  C_3
REMARK    2  A    between atoms: C_3  and  C_4
REMARK    3  A    between atoms: N_9  and  C_10
REMARK    4  A    between atoms: C_10  and  C_11
REMARK    5  A    between atoms: C_11  and  S_12
REMARK    6  A    between atoms: S_12  and  N_15
REMARK    7  A    between atoms: N_18  and  C_19
REMARK                            x       y       z     vdW  Elec       q    Type
REMARK                         _______ _______ _______ _____ _____    ______ ____
ROOT
ATOM      1  S   UNL     1       6.900   6.047  16.210  0.00  0.00    +0.000 S 
ATOM      2  O   UNL     1       5.639   6.729  16.032  0.00  0.00    +0.000 OA
ATOM      3  O   UNL     1       7.757   5.768  15.071  0.00  0.00    +0.000 OA
ENDROOT
BRANCH   1   4
ATOM      4  N   UNL     1       6.609   4.589  17.013  0.00  0.00    +0.000 NA
ATOM      5  C   UNL     1       6.703   4.607  18.514  0.00  0.00    +0.000 C 
ATOM      6  C   UNL     1       5.391   5.070  19.206  0.00  0.00    +0.000 C 
ATOM      7  N   UNL     1       4.223   4.367  18.640  0.00  0.00    +0.000 N 
ATOM      8  C   UNL     1       4.124   4.411  17.170  0.00  0.00    +0.000 C 
ATOM      9  C   UNL     1       5.408   3.814  16.573  0.00  0.00    +0.000 C 
BRANCH   7  10
ATOM     10  C   UNL     1       3.164   3.945  19.429  0.00  0.00    +0.000 A 
ATOM     11  C   UNL     1       3.237   2.718  20.113  0.00  0.00    +0.000 A 
ATOM     12  C   UNL     1       2.228   2.278  20.978  0.00  0.00    +0.000 A 
ATOM     13  C   UNL     1       1.103   3.063  21.191  0.00  0.00    +0.000 A 
ATOM     14  C   UNL     1       0.986   4.278  20.526  0.00  0.00    +0.000 A 
ATOM     15  C   UNL     1       2.000   4.705  19.662  0.00  0.00    +0.000 A 
ATOM     16  F   UNL     1       1.810   5.878  19.035  0.00  0.00    +0.000 F 
ENDBRANCH   7  10
ENDBRANCH   1   4
BRANCH   1  17
ATOM     17  C   UNL     1       7.870   6.949  17.402  0.00  0.00    +0.000 C 
BRANCH  17  18
ATOM     18  C   UNL     1       7.255   8.300  17.713  0.00  0.00    +0.000 C 
BRANCH  18  21
ATOM     19  O   UNL     1       8.919   9.622  19.583  0.00  0.00    +0.000 OA
ATOM     20  C   UNL     1       8.935   9.991  18.413  0.00  0.00    +0.000 C 
ATOM     21  N   UNL     1       8.165   9.402  17.430  0.00  0.00    +0.000 N 
ATOM     22  H   UNL     1       8.131   9.834  16.514  0.00  0.00    +0.000 HD
BRANCH  20  23
ATOM     23  C   UNL     1       9.810  11.133  17.922  0.00  0.00    +0.000 C 
BRANCH  23  24
ATOM     24  C   UNL     1       9.856  12.225  18.946  0.00  0.00    +0.000 A 
ATOM     25  C   UNL     1       8.951  13.247  19.149  0.00  0.00    +0.000 A 
ATOM     26  C   UNL     1       9.314  14.087  20.241  0.00  0.00    +0.000 A 
ATOM     27  C   UNL     1      10.488  13.679  20.836  0.00  0.00    +0.000 A 
ATOM     28  S   UNL     1      11.142  12.292  20.081  0.00  0.00    +0.000 S 
ENDBRANCH  23  24
ENDBRANCH  20  23
ENDBRANCH  18  21
ENDBRANCH  17  18
ENDBRANCH   1  17
TORSDOF 7
ENDMDL
MODEL 8
REMARK VINA RESULT:      -7.4      1.601      1.777
REMARK  Name = 
REMARK  7 active torsions:
REMARK  status: ('A' for Active; 'I' for Inactive)
REMARK    1  A    between atoms: C_2  and  C_3
REMARK    2  A    between atoms: C_3  and  C_4
REMARK    3  A    between atoms: N_9  and  C_10
REMARK    4  A    between atoms: C_10  and  C_11
REMARK    5  A    between atoms: C_11  and  S_12
REMARK    6  A    between atoms: S_12  and  N_15
REMARK    7  A    between atoms: N_18  and  C_19
REMARK                            x       y       z     vdW  Elec       q    Type
REMARK                         _______ _______ _______ _____ _____    ______ ____
ROOT
ATOM      1  S   UNL     1       6.998   6.531  16.888  0.00  0.00    +0.000 S 
ATOM      2  O   UNL     1       5.752   7.244  16.719  0.00  0.00    +0.000 OA
ATOM      3  O   UNL     1       7.782   6.127  15.734  0.00  0.00    +0.000 OA
ENDROOT
BRANCH   1   4
ATOM      4  N   UNL     1       6.703   5.157  17.826  0.00  0.00    +0.000 NA
ATOM      5  C   UNL     1       6.198   5.380  19.224  0.00  0.00    +0.000 C 
ATOM      6  C   UNL     1       4.658   5.572  19.299  0.00  0.00    +0.000 C 
ATOM      7  N   UNL     1       3.962   4.529  18.521  0.00  0.00    +0.000 N 
ATOM      8  C   UNL     1       4.438   4.366  17.135  0.00  0.00    +0.000 C 
ATOM      9  C   UNL     1       5.941   4.051  17.166  0.00  0.00    +0.000 C 
BRANCH   7  10
ATOM     10  C   UNL     1       2.781   3.947  18.958  0.00  0.00    +0.000 A 
ATOM     11  C   UNL     1       2.125   2.992  18.160  0.00  0.00    +0.000 A 
ATOM     12  C   UNL     1       0.972   2.323  18.585  0.00  0.00    +0.000 A 
ATOM     13  C   UNL     1       0.433   2.589  19.837  0.00  0.00    +0.000 A 
ATOM     14  C   UNL     1       1.044   3.535  20.652  0.00  0.00    +0.000 A 
ATOM     15  C   UNL     1       2.195   4.199  20.215  0.00  0.00    +0.000 A 
ATOM     16  F   UNL     1       2.720   5.116  21.045  0.00  0.00    +0.000 F 
ENDBRANCH   7  10
ENDBRANCH   1   4
BRANCH   1  17
ATOM     17  C   UNL     1       8.062   7.491  17.949  0.00  0.00    +0.000 C 
BRANCH  17  18
ATOM     18  C   UNL     1       7.646   8.949  17.981  0.00  0.00    +0.000 C 
BRANCH  18  21
ATOM     19  O   UNL     1       9.128  10.407  19.902  0.00  0.00    +0.000 OA
ATOM     20  C   UNL     1       9.420  10.525  18.717  0.00  0.00    +0.000 C 
ATOM     21  N   UNL     1       8.760   9.848  17.710  0.00  0.00    +0.000 N 
ATOM     22  H   UNL     1       8.966  10.086  16.747  0.00  0.00    +0.000 HD
BRANCH  20  23
ATOM     23  C   UNL     1      10.544  11.426  18.232  0.00  0.00    +0.000 C 
BRANCH  23  24
ATOM     24  C   UNL     1      10.496  12.742  18.946  0.00  0.00    +0.000 A 
ATOM     25  C   UNL     1      11.278  13.173  19.998  0.00  0.00    +0.000 A 
ATOM     26  C   UNL     1      10.962  14.503  20.402  0.00  0.00    +0.000 A 
ATOM     27  C   UNL     1       9.946  15.042  19.645  0.00  0.00    +0.000 A 
ATOM     28  S   UNL     1       9.382  13.951  18.456  0.00  0.00    +0.000 S 
ENDBRANCH  23  24
ENDBRANCH  20  23
ENDBRANCH  18  21
ENDBRANCH  17  18
ENDBRANCH   1  17
TORSDOF 7
ENDMDL
MODEL 9
REMARK VINA RESULT:      -7.4      1.843      2.254
REMARK  Name = 
REMARK  7 active torsions:
REMARK  status: ('A' for Active; 'I' for Inactive)
REMARK    1  A    between atoms: C_2  and  C_3
REMARK    2  A    between atoms: C_3  and  C_4
REMARK    3  A    between atoms: N_9  and  C_10
REMARK    4  A    between atoms: C_10  and  C_11
REMARK    5  A    between atoms: C_11  and  S_12
REMARK    6  A    between atoms: S_12  and  N_15
REMARK    7  A    between atoms: N_18  and  C_19
REMARK                            x       y       z     vdW  Elec       q    Type
REMARK                         _______ _______ _______ _____ _____    ______ ____
ROOT
ATOM      1  S   UNL     1       7.246   5.611  16.151  0.00  0.00    +0.000 S 
ATOM      2  O   UNL     1       7.828   5.697  14.832  0.00  0.00    +0.000 OA
ATOM      3  O   UNL     1       7.629   4.545  17.060  0.00  0.00    +0.000 OA
ENDROOT
BRANCH   1   4
ATOM      4  N   UNL     1       5.564   5.580  15.992  0.00  0.00    +0.000 NA
ATOM      5  C   UNL     1       4.921   4.235  15.793  0.00  0.00    +0.000 C 
ATOM      6  C   UNL     1       4.654   3.479  17.124  0.00  0.00    +0.000 C 
ATOM      7  N   UNL     1       4.004   4.366  18.109  0.00  0.00    +0.000 N 
ATOM      8  C   UNL     1       4.683   5.657  18.326  0.00  0.00    +0.000 C 
ATOM      9  C   UNL     1       4.787   6.390  16.981  0.00  0.00    +0.000 C 
BRANCH   7  10
ATOM     10  C   UNL     1       3.005   3.916  18.960  0.00  0.00    +0.000 A 
ATOM     11  C   UNL     1       2.949   4.375  20.289  0.00  0.00    +0.000 A 
ATOM     12  C   UNL     1       1.922   4.009  21.167  0.00  0.00    +0.000 A 
ATOM     13  C   UNL     1       0.906   3.166  20.738  0.00  0.00    +0.000 A 
ATOM     14  C   UNL     1       0.931   2.681  19.435  0.00  0.00    +0.000 A 
ATOM     15  C   UNL     1       1.964   3.052  18.568  0.00  0.00    +0.000 A 
ATOM     16  F   UNL     1       1.936   2.528  17.331  0.00  0.00    +0.000 F 
ENDBRANCH   7  10
ENDBRANCH   1   4
BRANCH   1  17
ATOM     17  C   UNL     1       7.518   7.158  16.994  0.00  0.00    +0.000 C 
BRANCH  17  18
ATOM     18  C   UNL     1       7.821   6.944  18.465  0.00  0.00    +0.000 C 
BRANCH  18  21
ATOM     19  O   UNL     1       7.756   9.715  17.892  0.00  0.00    +0.000 OA
ATOM     20  C   UNL     1       8.620   9.289  18.651  0.00  0.00    +0.000 C 
ATOM     21  N   UNL     1       8.725   7.956  18.996  0.00  0.00    +0.000 N 
ATOM     22  H   UNL     1       9.535   7.652  19.524  0.00  0.00    +0.000 HD
BRANCH  20  23
ATOM     23  C   UNL     1       9.664  10.186  19.297  0.00  0.00    +0.000 C 
BRANCH  23  24
ATOM     24  C   UNL     1       9.802  11.460  18.520  0.00  0.00    +0.000 A 
ATOM     25  C   UNL     1       8.876  12.471  18.364  0.00  0.00    +0.000 A 
ATOM     26  C   UNL     1       9.373  13.547  17.572  0.00  0.00    +0.000 A 
ATOM     27  C   UNL     1      10.663  13.319  17.148  0.00  0.00    +0.000 A 
ATOM     28  S   UNL     1      11.267  11.820  17.703  0.00  0.00    +0.000 S 
ENDBRANCH  23  24
ENDBRANCH  20  23
ENDBRANCH  18  21
ENDBRANCH  17  18
ENDBRANCH   1  17
TORSDOF 7
ENDMDL
