MODEL 1
REMARK VINA RESULT:      -8.5      0.000      0.000
REMARK  Name = 
REMARK  7 active torsions:
REMARK  status: ('A' for Active; 'I' for Inactive)
REMARK    1  A    between atoms: C_1  and  O_2
REMARK    2  A    between atoms: O_2  and  C_3
REMARK    3  A    between atoms: C_6  and  C_7
REMARK    4  A    between atoms: C_7  and  C_9
REMARK    5  A    between atoms: P_10  and  C_11
REMARK    6  A    between atoms: P_10  and  C_17
REMARK    7  A    between atoms: P_10  and  C_23
REMARK                            x       y       z     vdW  Elec       q    Type
REMARK                         _______ _______ _______ _____ _____    ______ ____
ROOT
ATOM      1  C   UNL     1       3.764   6.818  18.144  0.00  0.00    +0.000 C 
ATOM      2  P   UNL     1       4.505   6.060  16.896  0.00  0.00    +0.000 P 
ENDROOT
BRANCH   2   3
ATOM      3  C   UNL     1       6.129   6.281  17.823  0.00  0.00    +0.000 A 
ATOM      4  C   UNL     1       6.620   5.401  18.796  0.00  0.00    +0.000 A 
ATOM      5  C   UNL     1       7.811   5.679  19.472  0.00  0.00    +0.000 A 
ATOM      6  C   UNL     1       8.546   6.818  19.154  0.00  0.00    +0.000 A 
ATOM      7  C   UNL     1       8.092   7.680  18.159  0.00  0.00    +0.000 A 
ATOM      8  C   UNL     1       6.889   7.418  17.499  0.00  0.00    +0.000 A 
ENDBRANCH   2   3
BRANCH   2   9
ATOM      9  C   UNL     1       3.535   4.500  17.431  0.00  0.00    +0.000 A 
ATOM     10  C   UNL     1       2.178   4.666  17.764  0.00  0.00    +0.000 A 
ATOM     11  C   UNL     1       1.409   3.578  18.191  0.00  0.00    +0.000 A 
ATOM     12  C   UNL     1       1.986   2.313  18.305  0.00  0.00    +0.000 A 
ATOM     13  C   UNL     1       3.332   2.139  18.014  0.00  0.00    +0.000 A 
ATOM     14  C   UNL     1       4.105   3.225  17.592  0.00  0.00    +0.000 A 
ENDBRANCH   2   9
BRANCH   2  15
ATOM     15  C   UNL     1       5.333   5.213  15.501  0.00  0.00    +0.000 A 
ATOM     16  C   UNL     1       6.720   5.386  15.385  0.00  0.00    +0.000 A 
ATOM     17  C   UNL     1       7.424   4.786  14.339  0.00  0.00    +0.000 A 
ATOM     18  C   UNL     1       6.750   4.010  13.398  0.00  0.00    +0.000 A 
ATOM     19  C   UNL     1       5.373   3.827  13.505  0.00  0.00    +0.000 A 
ATOM     20  C   UNL     1       4.669   4.423  14.552  0.00  0.00    +0.000 A 
ENDBRANCH   2  15
BRANCH   1  21
ATOM     21  C   UNL     1       2.771   7.897  17.907  0.00  0.00    +0.000 C 
ATOM     22  O   UNL     1       2.705   8.335  16.770  0.00  0.00    +0.000 OA
BRANCH  21  26
ATOM     23  C   UNL     1       0.200   9.336  21.030  0.00  0.00    +0.000 A 
ATOM     24  C   UNL     1       0.292  10.004  19.807  0.00  0.00    +0.000 A 
ATOM     25  C   UNL     1       1.129   9.526  18.795  0.00  0.00    +0.000 A 
ATOM     26  C   UNL     1       1.893   8.374  19.005  0.00  0.00    +0.000 A 
ATOM     27  C   UNL     1       1.821   7.717  20.239  0.00  0.00    +0.000 A 
ATOM     28  C   UNL     1       0.973   8.195  21.247  0.00  0.00    +0.000 A 
BRANCH  23  30
ATOM     29  C   UNL     1      -0.300   9.713  23.315  0.00  0.00    +0.000 C 
ATOM     30  O   UNL     1      -0.637   9.911  21.946  0.00  0.00    +0.000 OA
ENDBRANCH  23  30
ENDBRANCH  21  26
ENDBRANCH   1  21
TORSDOF 6
ENDMDL
MODEL 2
REMARK VINA RESULT:      -8.4      0.172      1.254
REMARK  Name = 
REMARK  7 active torsions:
REMARK  status: ('A' for Active; 'I' for Inactive)
REMARK    1  A    between atoms: C_1  and  O_2
REMARK    2  A    between atoms: O_2  and  C_3
REMARK    3  A    between atoms: C_6  and  C_7
REMARK    4  A    between atoms: C_7  and  C_9
REMARK    5  A    between atoms: P_10  and  C_11
REMARK    6  A    between atoms: P_10  and  C_17
REMARK    7  A    between atoms: P_10  and  C_23
REMARK                            x       y       z     vdW  Elec       q    Type
REMARK                         _______ _______ _______ _____ _____    ______ ____
ROOT
ATOM      1  C   UNL     1       3.775   6.874  18.175  0.00  0.00    +0.000 C 
ATOM      2  P   UNL     1       4.504   6.101  16.928  0.00  0.00    +0.000 P 
ENDROOT
BRANCH   2   3
ATOM      3  C   UNL     1       6.135   6.327  17.840  0.00  0.00    +0.000 A 
ATOM      4  C   UNL     1       6.645   5.440  18.798  0.00  0.00    +0.000 A 
ATOM      5  C   UNL     1       7.841   5.721  19.464  0.00  0.00    +0.000 A 
ATOM      6  C   UNL     1       8.562   6.871  19.152  0.00  0.00    +0.000 A 
ATOM      7  C   UNL     1       8.089   7.741  18.173  0.00  0.00    +0.000 A 
ATOM      8  C   UNL     1       6.881   7.475  17.522  0.00  0.00    +0.000 A 
ENDBRANCH   2   3
BRANCH   2   9
ATOM      9  C   UNL     1       3.533   4.550  17.486  0.00  0.00    +0.000 A 
ATOM     10  C   UNL     1       4.241   3.336  17.555  0.00  0.00    +0.000 A 
ATOM     11  C   UNL     1       3.594   2.152  17.928  0.00  0.00    +0.000 A 
ATOM     12  C   UNL     1       2.232   2.161  18.225  0.00  0.00    +0.000 A 
ATOM     13  C   UNL     1       1.511   3.344  18.128  0.00  0.00    +0.000 A 
ATOM     14  C   UNL     1       2.152   4.527  17.750  0.00  0.00    +0.000 A 
ENDBRANCH   2   9
BRANCH   2  15
ATOM     15  C   UNL     1       5.319   5.237  15.535  0.00  0.00    +0.000 A 
ATOM     16  C   UNL     1       6.711   5.374  15.430  0.00  0.00    +0.000 A 
ATOM     17  C   UNL     1       7.406   4.759  14.387  0.00  0.00    +0.000 A 
ATOM     18  C   UNL     1       6.718   4.005  13.438  0.00  0.00    +0.000 A 
ATOM     19  C   UNL     1       5.336   3.859  13.534  0.00  0.00    +0.000 A 
ATOM     20  C   UNL     1       4.640   4.470  14.578  0.00  0.00    +0.000 A 
ENDBRANCH   2  15
BRANCH   1  21
ATOM     21  C   UNL     1       2.783   7.953  17.934  0.00  0.00    +0.000 C 
ATOM     22  O   UNL     1       2.753   8.424  16.808  0.00  0.00    +0.000 OA
BRANCH  21  26
ATOM     23  C   UNL     1       0.155   9.164  21.106  0.00  0.00    +0.000 A 
ATOM     24  C   UNL     1       0.974   8.040  21.238  0.00  0.00    +0.000 A 
ATOM     25  C   UNL     1       1.829   7.656  20.201  0.00  0.00    +0.000 A 
ATOM     26  C   UNL     1       1.864   8.393  19.014  0.00  0.00    +0.000 A 
ATOM     27  C   UNL     1       1.026   9.504  18.870  0.00  0.00    +0.000 A 
ATOM     28  C   UNL     1       0.177   9.891  19.915  0.00  0.00    +0.000 A 
BRANCH  23  30
ATOM     29  C   UNL     1       0.006   9.581  23.433  0.00  0.00    +0.000 C 
ATOM     30  O   UNL     1      -0.651   9.427  22.180  0.00  0.00    +0.000 OA
ENDBRANCH  23  30
ENDBRANCH  21  26
ENDBRANCH   1  21
TORSDOF 6
ENDMDL
MODEL 3
REMARK VINA RESULT:      -8.3      0.330      1.286
REMARK  Name = 
REMARK  7 active torsions:
REMARK  status: ('A' for Active; 'I' for Inactive)
REMARK    1  A    between atoms: C_1  and  O_2
REMARK    2  A    between atoms: O_2  and  C_3
REMARK    3  A    between atoms: C_6  and  C_7
REMARK    4  A    between atoms: C_7  and  C_9
REMARK    5  A    between atoms: P_10  and  C_11
REMARK    6  A    between atoms: P_10  and  C_17
REMARK    7  A    between atoms: P_10  and  C_23
REMARK                            x       y       z     vdW  Elec       q    Type
REMARK                         _______ _______ _______ _____ _____    ______ ____
ROOT
ATOM      1  C   UNL     1       3.807   6.792  18.163  0.00  0.00    +0.000 C 
ATOM      2  P   UNL     1       4.570   6.071  16.906  0.00  0.00    +0.000 P 
ENDROOT
BRANCH   2   3
ATOM      3  C   UNL     1       6.184   6.309  17.847  0.00  0.00    +0.000 A 
ATOM      4  C   UNL     1       6.681   5.427  18.815  0.00  0.00    +0.000 A 
ATOM      5  C   UNL     1       7.863   5.716  19.502  0.00  0.00    +0.000 A 
ATOM      6  C   UNL     1       8.583   6.869  19.201  0.00  0.00    +0.000 A 
ATOM      7  C   UNL     1       8.123   7.734  18.211  0.00  0.00    +0.000 A 
ATOM      8  C   UNL     1       6.929   7.461  17.540  0.00  0.00    +0.000 A 
ENDBRANCH   2   3
BRANCH   2   9
ATOM      9  C   UNL     1       3.629   4.483  17.407  0.00  0.00    +0.000 A 
ATOM     10  C   UNL     1       2.266   4.615  17.727  0.00  0.00    +0.000 A 
ATOM     11  C   UNL     1       1.516   3.504  18.130  0.00  0.00    +0.000 A 
ATOM     12  C   UNL     1       2.119   2.250  18.231  0.00  0.00    +0.000 A 
ATOM     13  C   UNL     1       3.472   2.110  17.953  0.00  0.00    +0.000 A 
ATOM     14  C   UNL     1       4.225   3.218  17.556  0.00  0.00    +0.000 A 
ENDBRANCH   2   9
BRANCH   2  15
ATOM     15  C   UNL     1       5.423   5.266  15.501  0.00  0.00    +0.000 A 
ATOM     16  C   UNL     1       4.630   4.516  14.620  0.00  0.00    +0.000 A 
ATOM     17  C   UNL     1       5.207   3.858  13.533  0.00  0.00    +0.000 A 
ATOM     18  C   UNL     1       6.582   3.940  13.316  0.00  0.00    +0.000 A 
ATOM     19  C   UNL     1       7.379   4.686  14.181  0.00  0.00    +0.000 A 
ATOM     20  C   UNL     1       6.803   5.347  15.266  0.00  0.00    +0.000 A 
ENDBRANCH   2  15
BRANCH   1  21
ATOM     21  C   UNL     1       2.794   7.855  17.939  0.00  0.00    +0.000 C 
ATOM     22  O   UNL     1       2.690   8.276  16.798  0.00  0.00    +0.000 OA
BRANCH  21  26
ATOM     23  C   UNL     1       0.353   9.184  21.211  0.00  0.00    +0.000 A 
ATOM     24  C   UNL     1       1.085   7.997  21.294  0.00  0.00    +0.000 A 
ATOM     25  C   UNL     1       1.879   7.575  20.225  0.00  0.00    +0.000 A 
ATOM     26  C   UNL     1       1.940   8.336  19.054  0.00  0.00    +0.000 A 
ATOM     27  C   UNL     1       1.188   9.513  18.960  0.00  0.00    +0.000 A 
ATOM     28  C   UNL     1       0.400   9.937  20.038  0.00  0.00    +0.000 A 
BRANCH  23  30
ATOM     29  C   UNL     1      -0.837  10.831  22.431  0.00  0.00    +0.000 C 
ATOM     30  O   UNL     1      -0.401   9.481  22.314  0.00  0.00    +0.000 OA
ENDBRANCH  23  30
ENDBRANCH  21  26
ENDBRANCH   1  21
TORSDOF 6
ENDMDL
MODEL 4
REMARK VINA RESULT:      -8.2      0.360      1.291
REMARK  Name = 
REMARK  7 active torsions:
REMARK  status: ('A' for Active; 'I' for Inactive)
REMARK    1  A    between atoms: C_1  and  O_2
REMARK    2  A    between atoms: O_2  and  C_3
REMARK    3  A    between atoms: C_6  and  C_7
REMARK    4  A    between atoms: C_7  and  C_9
REMARK    5  A    between atoms: P_10  and  C_11
REMARK    6  A    between atoms: P_10  and  C_17
REMARK    7  A    between atoms: P_10  and  C_23
REMARK                            x       y       z     vdW  Elec       q    Type
REMARK                         _______ _______ _______ _____ _____    ______ ____
ROOT
ATOM      1  C   UNL     1       3.708   6.802  18.236  0.00  0.00    +0.000 C 
ATOM      2  P   UNL     1       4.462   6.074  16.977  0.00  0.00    +0.000 P 
ENDROOT
BRANCH   2   3
ATOM      3  C   UNL     1       6.081   6.306  17.910  0.00  0.00    +0.000 A 
ATOM      4  C   UNL     1       7.010   7.324  17.658  0.00  0.00    +0.000 A 
ATOM      5  C   UNL     1       8.213   7.383  18.366  0.00  0.00    +0.000 A 
ATOM      6  C   UNL     1       8.484   6.448  19.362  0.00  0.00    +0.000 A 
ATOM      7  C   UNL     1       7.552   5.456  19.653  0.00  0.00    +0.000 A 
ATOM      8  C   UNL     1       6.359   5.380  18.930  0.00  0.00    +0.000 A 
ENDBRANCH   2   3
BRANCH   2   9
ATOM      9  C   UNL     1       3.514   4.492  17.487  0.00  0.00    +0.000 A 
ATOM     10  C   UNL     1       2.155   4.633  17.818  0.00  0.00    +0.000 A 
ATOM     11  C   UNL     1       1.401   3.527  18.228  0.00  0.00    +0.000 A 
ATOM     12  C   UNL     1       1.997   2.270  18.324  0.00  0.00    +0.000 A 
ATOM     13  C   UNL     1       3.347   2.120  18.036  0.00  0.00    +0.000 A 
ATOM     14  C   UNL     1       4.104   3.224  17.632  0.00  0.00    +0.000 A 
ENDBRANCH   2   9
BRANCH   2  15
ATOM     15  C   UNL     1       5.304   5.261  15.571  0.00  0.00    +0.000 A 
ATOM     16  C   UNL     1       6.692   5.440  15.471  0.00  0.00    +0.000 A 
ATOM     17  C   UNL     1       7.406   4.866  14.418  0.00  0.00    +0.000 A 
ATOM     18  C   UNL     1       6.742   4.110  13.453  0.00  0.00    +0.000 A 
ATOM     19  C   UNL     1       5.365   3.922  13.544  0.00  0.00    +0.000 A 
ATOM     20  C   UNL     1       4.650   4.492  14.598  0.00  0.00    +0.000 A 
ENDBRANCH   2  15
BRANCH   1  21
ATOM     21  C   UNL     1       2.700   7.870  18.015  0.00  0.00    +0.000 C 
ATOM     22  O   UNL     1       2.584   8.280  16.870  0.00  0.00    +0.000 OA
BRANCH  21  26
ATOM     23  C   UNL     1       0.309   9.248  21.303  0.00  0.00    +0.000 A 
ATOM     24  C   UNL     1       1.021   8.049  21.383  0.00  0.00    +0.000 A 
ATOM     25  C   UNL     1       1.800   7.611  20.308  0.00  0.00    +0.000 A 
ATOM     26  C   UNL     1       1.864   8.368  19.135  0.00  0.00    +0.000 A 
ATOM     27  C   UNL     1       1.131   9.557  19.044  0.00  0.00    +0.000 A 
ATOM     28  C   UNL     1       0.359   9.997  20.128  0.00  0.00    +0.000 A 
BRANCH  23  30
ATOM     29  C   UNL     1      -0.866  10.912  22.514  0.00  0.00    +0.000 C 
ATOM     30  O   UNL     1      -0.431   9.560  22.411  0.00  0.00    +0.000 OA
ENDBRANCH  23  30
ENDBRANCH  21  26
ENDBRANCH   1  21
TORSDOF 6
ENDMDL
MODEL 5
REMARK VINA RESULT:      -8.1      0.437      1.315
REMARK  Name = 
REMARK  7 active torsions:
REMARK  status: ('A' for Active; 'I' for Inactive)
REMARK    1  A    between atoms: C_1  and  O_2
REMARK    2  A    between atoms: O_2  and  C_3
REMARK    3  A    between atoms: C_6  and  C_7
REMARK    4  A    between atoms: C_7  and  C_9
REMARK    5  A    between atoms: P_10  and  C_11
REMARK    6  A    between atoms: P_10  and  C_17
REMARK    7  A    between atoms: P_10  and  C_23
REMARK                            x       y       z     vdW  Elec       q    Type
REMARK                         _______ _______ _______ _____ _____    ______ ____
ROOT
ATOM      1  C   UNL     1       3.751   6.801  18.198  0.00  0.00    +0.000 C 
ATOM      2  P   UNL     1       4.530   6.082  16.950  0.00  0.00    +0.000 P 
ENDROOT
BRANCH   2   3
ATOM      3  C   UNL     1       6.131   6.315  17.913  0.00  0.00    +0.000 A 
ATOM      4  C   UNL     1       7.055   7.344  17.690  0.00  0.00    +0.000 A 
ATOM      5  C   UNL     1       8.245   7.404  18.419  0.00  0.00    +0.000 A 
ATOM      6  C   UNL     1       8.507   6.460  19.408  0.00  0.00    +0.000 A 
ATOM      7  C   UNL     1       7.579   5.456  19.671  0.00  0.00    +0.000 A 
ATOM      8  C   UNL     1       6.399   5.379  18.927  0.00  0.00    +0.000 A 
ENDBRANCH   2   3
BRANCH   2   9
ATOM      9  C   UNL     1       3.580   4.494  17.435  0.00  0.00    +0.000 A 
ATOM     10  C   UNL     1       2.216   4.629  17.752  0.00  0.00    +0.000 A 
ATOM     11  C   UNL     1       1.460   3.518  18.144  0.00  0.00    +0.000 A 
ATOM     12  C   UNL     1       2.057   2.262  18.236  0.00  0.00    +0.000 A 
ATOM     13  C   UNL     1       3.410   2.117  17.961  0.00  0.00    +0.000 A 
ATOM     14  C   UNL     1       4.170   3.225  17.575  0.00  0.00    +0.000 A 
ENDBRANCH   2   9
BRANCH   2  15
ATOM     15  C   UNL     1       5.401   5.278  15.555  0.00  0.00    +0.000 A 
ATOM     16  C   UNL     1       4.622   4.515  14.674  0.00  0.00    +0.000 A 
ATOM     17  C   UNL     1       5.213   3.857  13.594  0.00  0.00    +0.000 A 
ATOM     18  C   UNL     1       6.588   3.953  13.385  0.00  0.00    +0.000 A 
ATOM     19  C   UNL     1       7.372   4.712  14.251  0.00  0.00    +0.000 A 
ATOM     20  C   UNL     1       6.782   5.373  15.329  0.00  0.00    +0.000 A 
ENDBRANCH   2  15
BRANCH   1  21
ATOM     21  C   UNL     1       2.742   7.866  17.963  0.00  0.00    +0.000 C 
ATOM     22  O   UNL     1       2.640   8.275  16.817  0.00  0.00    +0.000 OA
BRANCH  21  26
ATOM     23  C   UNL     1       0.249   9.363  21.121  0.00  0.00    +0.000 A 
ATOM     24  C   UNL     1       0.362  10.045  19.907  0.00  0.00    +0.000 A 
ATOM     25  C   UNL     1       1.174   9.548  18.884  0.00  0.00    +0.000 A 
ATOM     26  C   UNL     1       1.890   8.362  19.072  0.00  0.00    +0.000 A 
ATOM     27  C   UNL     1       1.798   7.691  20.297  0.00  0.00    +0.000 A 
ATOM     28  C   UNL     1       0.977   8.189  21.317  0.00  0.00    +0.000 A 
BRANCH  23  30
ATOM     29  C   UNL     1      -0.714  11.369  21.933  0.00  0.00    +0.000 C 
ATOM     30  O   UNL     1      -0.558   9.959  22.051  0.00  0.00    +0.000 OA
ENDBRANCH  23  30
ENDBRANCH  21  26
ENDBRANCH   1  21
TORSDOF 6
ENDMDL
MODEL 6
REMARK VINA RESULT:      -7.9      4.722      9.034
REMARK  Name = 
REMARK  7 active torsions:
REMARK  status: ('A' for Active; 'I' for Inactive)
REMARK    1  A    between atoms: C_1  and  O_2
REMARK    2  A    between atoms: O_2  and  C_3
REMARK    3  A    between atoms: C_6  and  C_7
REMARK    4  A    between atoms: C_7  and  C_9
REMARK    5  A    between atoms: P_10  and  C_11
REMARK    6  A    between atoms: P_10  and  C_17
REMARK    7  A    between atoms: P_10  and  C_23
REMARK                            x       y       z     vdW  Elec       q    Type
REMARK                         _______ _______ _______ _____ _____    ______ ____
ROOT
ATOM      1  C   UNL     1      -1.213  12.249  20.668  0.00  0.00    +0.000 C 
ATOM      2  P   UNL     1      -0.210  11.119  20.035  0.00  0.00    +0.000 P 
ENDROOT
BRANCH   2   3
ATOM      3  C   UNL     1      -1.484  10.859  18.673  0.00  0.00    +0.000 A 
ATOM      4  C   UNL     1      -1.385   9.897  17.660  0.00  0.00    +0.000 A 
ATOM      5  C   UNL     1      -2.355   9.816  16.657  0.00  0.00    +0.000 A 
ATOM      6  C   UNL     1      -3.456  10.668  16.679  0.00  0.00    +0.000 A 
ATOM      7  C   UNL     1      -3.589  11.602  17.704  0.00  0.00    +0.000 A 
ATOM      8  C   UNL     1      -2.609  11.702  18.693  0.00  0.00    +0.000 A 
ENDBRANCH   2   3
BRANCH   2   9
ATOM      9  C   UNL     1       0.992  12.565  19.681  0.00  0.00    +0.000 A 
ATOM     10  C   UNL     1       1.934  12.880  20.677  0.00  0.00    +0.000 A 
ATOM     11  C   UNL     1       2.829  13.942  20.504  0.00  0.00    +0.000 A 
ATOM     12  C   UNL     1       2.788  14.710  19.341  0.00  0.00    +0.000 A 
ATOM     13  C   UNL     1       1.842  14.435  18.363  0.00  0.00    +0.000 A 
ATOM     14  C   UNL     1       0.943  13.378  18.535  0.00  0.00    +0.000 A 
ENDBRANCH   2   9
BRANCH   2  15
ATOM     15  C   UNL     1       0.910   9.856  19.328  0.00  0.00    +0.000 A 
ATOM     16  C   UNL     1       1.143   8.709  20.101  0.00  0.00    +0.000 A 
ATOM     17  C   UNL     1       1.997   7.706  19.640  0.00  0.00    +0.000 A 
ATOM     18  C   UNL     1       2.629   7.839  18.405  0.00  0.00    +0.000 A 
ATOM     19  C   UNL     1       2.402   8.972  17.626  0.00  0.00    +0.000 A 
ATOM     20  C   UNL     1       1.546   9.974  18.085  0.00  0.00    +0.000 A 
ENDBRANCH   2  15
BRANCH   1  21
ATOM     21  C   UNL     1      -1.521  12.276  22.120  0.00  0.00    +0.000 C 
ATOM     22  O   UNL     1      -0.579  12.108  22.880  0.00  0.00    +0.000 OA
BRANCH  21  26
ATOM     23  C   UNL     1      -5.496  12.989  23.578  0.00  0.00    +0.000 A 
ATOM     24  C   UNL     1      -4.540  12.353  24.373  0.00  0.00    +0.000 A 
ATOM     25  C   UNL     1      -3.247  12.128  23.891  0.00  0.00    +0.000 A 
ATOM     26  C   UNL     1      -2.903  12.533  22.598  0.00  0.00    +0.000 A 
ATOM     27  C   UNL     1      -3.866  13.148  21.790  0.00  0.00    +0.000 A 
ATOM     28  C   UNL     1      -5.158  13.379  22.281  0.00  0.00    +0.000 A 
BRANCH  23  30
ATOM     29  C   UNL     1      -7.809  12.485  23.491  0.00  0.00    +0.000 C 
ATOM     30  O   UNL     1      -6.728  13.134  24.153  0.00  0.00    +0.000 OA
ENDBRANCH  23  30
ENDBRANCH  21  26
ENDBRANCH   1  21
TORSDOF 6
ENDMDL
MODEL 7
REMARK VINA RESULT:      -7.9      4.767      9.010
REMARK  Name = 
REMARK  7 active torsions:
REMARK  status: ('A' for Active; 'I' for Inactive)
REMARK    1  A    between atoms: C_1  and  O_2
REMARK    2  A    between atoms: O_2  and  C_3
REMARK    3  A    between atoms: C_6  and  C_7
REMARK    4  A    between atoms: C_7  and  C_9
REMARK    5  A    between atoms: P_10  and  C_11
REMARK    6  A    between atoms: P_10  and  C_17
REMARK    7  A    between atoms: P_10  and  C_23
REMARK                            x       y       z     vdW  Elec       q    Type
REMARK                         _______ _______ _______ _____ _____    ______ ____
ROOT
ATOM      1  C   UNL     1      -1.249  12.233  20.798  0.00  0.00    +0.000 C 
ATOM      2  P   UNL     1      -0.261  11.084  20.176  0.00  0.00    +0.000 P 
ENDROOT
BRANCH   2   3
ATOM      3  C   UNL     1      -1.520  10.858  18.794  0.00  0.00    +0.000 A 
ATOM      4  C   UNL     1      -1.380   9.963  17.725  0.00  0.00    +0.000 A 
ATOM      5  C   UNL     1      -2.343   9.904  16.714  0.00  0.00    +0.000 A 
ATOM      6  C   UNL     1      -3.476  10.710  16.780  0.00  0.00    +0.000 A 
ATOM      7  C   UNL     1      -3.649  11.575  17.859  0.00  0.00    +0.000 A 
ATOM      8  C   UNL     1      -2.677  11.653  18.858  0.00  0.00    +0.000 A 
ENDBRANCH   2   3
BRANCH   2   9
ATOM      9  C   UNL     1       0.977  12.505  19.846  0.00  0.00    +0.000 A 
ATOM     10  C   UNL     1       0.879  13.174  18.613  0.00  0.00    +0.000 A 
ATOM     11  C   UNL     1       1.767  14.205  18.287  0.00  0.00    +0.000 A 
ATOM     12  C   UNL     1       2.772  14.574  19.181  0.00  0.00    +0.000 A 
ATOM     13  C   UNL     1       2.905  13.901  20.387  0.00  0.00    +0.000 A 
ATOM     14  C   UNL     1       2.023  12.866  20.714  0.00  0.00    +0.000 A 
ENDBRANCH   2   9
BRANCH   2  15
ATOM     15  C   UNL     1       0.842   9.800  19.480  0.00  0.00    +0.000 A 
ATOM     16  C   UNL     1       1.128   8.697  20.297  0.00  0.00    +0.000 A 
ATOM     17  C   UNL     1       1.974   7.682  19.846  0.00  0.00    +0.000 A 
ATOM     18  C   UNL     1       2.544   7.760  18.577  0.00  0.00    +0.000 A 
ATOM     19  C   UNL     1       2.264   8.848  17.754  0.00  0.00    +0.000 A 
ATOM     20  C   UNL     1       1.416   9.862  18.202  0.00  0.00    +0.000 A 
ENDBRANCH   2  15
BRANCH   1  21
ATOM     21  C   UNL     1      -1.578  12.260  22.246  0.00  0.00    +0.000 C 
ATOM     22  O   UNL     1      -0.645  12.109  23.019  0.00  0.00    +0.000 OA
BRANCH  21  26
ATOM     23  C   UNL     1      -5.628  12.959  23.488  0.00  0.00    +0.000 A 
ATOM     24  C   UNL     1      -5.240  13.145  22.159  0.00  0.00    +0.000 A 
ATOM     25  C   UNL     1      -3.920  12.912  21.764  0.00  0.00    +0.000 A 
ATOM     26  C   UNL     1      -2.971  12.497  22.703  0.00  0.00    +0.000 A 
ATOM     27  C   UNL     1      -3.352  12.334  24.040  0.00  0.00    +0.000 A 
ATOM     28  C   UNL     1      -4.679  12.561  24.430  0.00  0.00    +0.000 A 
BRANCH  23  30
ATOM     29  C   UNL     1      -7.858  13.016  22.690  0.00  0.00    +0.000 C 
ATOM     30  O   UNL     1      -6.940  13.238  23.755  0.00  0.00    +0.000 OA
ENDBRANCH  23  30
ENDBRANCH  21  26
ENDBRANCH   1  21
TORSDOF 6
ENDMDL
MODEL 8
REMARK VINA RESULT:      -7.8      4.807      9.070
REMARK  Name = 
REMARK  7 active torsions:
REMARK  status: ('A' for Active; 'I' for Inactive)
REMARK    1  A    between atoms: C_1  and  O_2
REMARK    2  A    between atoms: O_2  and  C_3
REMARK    3  A    between atoms: C_6  and  C_7
REMARK    4  A    between atoms: C_7  and  C_9
REMARK    5  A    between atoms: P_10  and  C_11
REMARK    6  A    between atoms: P_10  and  C_17
REMARK    7  A    between atoms: P_10  and  C_23
REMARK                            x       y       z     vdW  Elec       q    Type
REMARK                         _______ _______ _______ _____ _____    ______ ____
ROOT
ATOM      1  C   UNL     1      -1.251  12.309  20.812  0.00  0.00    +0.000 C 
ATOM      2  P   UNL     1      -0.271  11.156  20.186  0.00  0.00    +0.000 P 
ENDROOT
BRANCH   2   3
ATOM      3  C   UNL     1      -1.522  10.956  18.792  0.00  0.00    +0.000 A 
ATOM      4  C   UNL     1      -2.690  11.717  18.652  0.00  0.00    +0.000 A 
ATOM      5  C   UNL     1      -3.588  11.458  17.613  0.00  0.00    +0.000 A 
ATOM      6  C   UNL     1      -3.310  10.463  16.680  0.00  0.00    +0.000 A 
ATOM      7  C   UNL     1      -2.132   9.727  16.782  0.00  0.00    +0.000 A 
ATOM      8  C   UNL     1      -1.245   9.966  17.833  0.00  0.00    +0.000 A 
ENDBRANCH   2   3
BRANCH   2   9
ATOM      9  C   UNL     1       0.985  12.565  19.879  0.00  0.00    +0.000 A 
ATOM     10  C   UNL     1       0.853  13.299  18.687  0.00  0.00    +0.000 A 
ATOM     11  C   UNL     1       1.750  14.328  18.377  0.00  0.00    +0.000 A 
ATOM     12  C   UNL     1       2.798  14.629  19.247  0.00  0.00    +0.000 A 
ATOM     13  C   UNL     1       2.964  13.891  20.411  0.00  0.00    +0.000 A 
ATOM     14  C   UNL     1       2.072  12.859  20.720  0.00  0.00    +0.000 A 
ENDBRANCH   2   9
BRANCH   2  15
ATOM     15  C   UNL     1       0.823   9.866  19.486  0.00  0.00    +0.000 A 
ATOM     16  C   UNL     1       1.070   8.740  20.285  0.00  0.00    +0.000 A 
ATOM     17  C   UNL     1       1.906   7.719  19.830  0.00  0.00    +0.000 A 
ATOM     18  C   UNL     1       2.506   7.813  18.576  0.00  0.00    +0.000 A 
ATOM     19  C   UNL     1       2.264   8.924  17.771  0.00  0.00    +0.000 A 
ATOM     20  C   UNL     1       1.426   9.944  18.223  0.00  0.00    +0.000 A 
ENDBRANCH   2  15
BRANCH   1  21
ATOM     21  C   UNL     1      -1.591  12.327  22.257  0.00  0.00    +0.000 C 
ATOM     22  O   UNL     1      -0.668  12.147  23.036  0.00  0.00    +0.000 OA
BRANCH  21  26
ATOM     23  C   UNL     1      -5.592  13.057  23.634  0.00  0.00    +0.000 A 
ATOM     24  C   UNL     1      -4.634  12.483  24.474  0.00  0.00    +0.000 A 
ATOM     25  C   UNL     1      -3.333  12.253  24.017  0.00  0.00    +0.000 A 
ATOM     26  C   UNL     1      -2.982  12.587  22.706  0.00  0.00    +0.000 A 
ATOM     27  C   UNL     1      -3.947  13.139  21.856  0.00  0.00    +0.000 A 
ATOM     28  C   UNL     1      -5.247  13.376  22.320  0.00  0.00    +0.000 A 
BRANCH  23  30
ATOM     29  C   UNL     1      -7.916  12.628  23.475  0.00  0.00    +0.000 C 
ATOM     30  O   UNL     1      -6.832  13.214  24.188  0.00  0.00    +0.000 OA
ENDBRANCH  23  30
ENDBRANCH  21  26
ENDBRANCH   1  21
TORSDOF 6
ENDMDL
MODEL 9
REMARK VINA RESULT:      -7.7      3.349      9.147
REMARK  Name = 
REMARK  7 active torsions:
REMARK  status: ('A' for Active; 'I' for Inactive)
REMARK    1  A    between atoms: C_1  and  O_2
REMARK    2  A    between atoms: O_2  and  C_3
REMARK    3  A    between atoms: C_6  and  C_7
REMARK    4  A    between atoms: C_7  and  C_9
REMARK    5  A    between atoms: P_10  and  C_11
REMARK    6  A    between atoms: P_10  and  C_17
REMARK    7  A    between atoms: P_10  and  C_23
REMARK                            x       y       z     vdW  Elec       q    Type
REMARK                         _______ _______ _______ _____ _____    ______ ____
ROOT
ATOM      1  C   UNL     1       0.487   9.642  18.719  0.00  0.00    +0.000 C 
ATOM      2  P   UNL     1       0.181  11.194  19.143  0.00  0.00    +0.000 P 
ENDROOT
BRANCH   2   3
ATOM      3  C   UNL     1      -1.474  11.030  18.258  0.00  0.00    +0.000 A 
ATOM      4  C   UNL     1      -2.630  11.750  18.587  0.00  0.00    +0.000 A 
ATOM      5  C   UNL     1      -3.830  11.519  17.908  0.00  0.00    +0.000 A 
ATOM      6  C   UNL     1      -3.877  10.597  16.865  0.00  0.00    +0.000 A 
ATOM      7  C   UNL     1      -2.725   9.905  16.500  0.00  0.00    +0.000 A 
ATOM      8  C   UNL     1      -1.531  10.115  17.192  0.00  0.00    +0.000 A 
ENDBRANCH   2   3
BRANCH   2   9
ATOM      9  C   UNL     1       0.139  10.562  20.948  0.00  0.00    +0.000 A 
ATOM     10  C   UNL     1       1.256   9.840  21.405  0.00  0.00    +0.000 A 
ATOM     11  C   UNL     1       1.288   9.321  22.704  0.00  0.00    +0.000 A 
ATOM     12  C   UNL     1       0.203   9.504  23.560  0.00  0.00    +0.000 A 
ATOM     13  C   UNL     1      -0.922  10.184  23.113  0.00  0.00    +0.000 A 
ATOM     14  C   UNL     1      -0.961  10.699  21.814  0.00  0.00    +0.000 A 
ENDBRANCH   2   9
BRANCH   2  15
ATOM     15  C   UNL     1      -0.162  12.929  19.615  0.00  0.00    +0.000 A 
ATOM     16  C   UNL     1      -0.094  13.890  18.597  0.00  0.00    +0.000 A 
ATOM     17  C   UNL     1      -0.326  15.238  18.878  0.00  0.00    +0.000 A 
ATOM     18  C   UNL     1      -0.626  15.638  20.179  0.00  0.00    +0.000 A 
ATOM     19  C   UNL     1      -0.701  14.692  21.198  0.00  0.00    +0.000 A 
ATOM     20  C   UNL     1      -0.472  13.344  20.918  0.00  0.00    +0.000 A 
ENDBRANCH   2  15
BRANCH   1  21
ATOM     21  C   UNL     1       1.797   9.247  18.142  0.00  0.00    +0.000 C 
ATOM     22  O   UNL     1       2.360  10.081  17.450  0.00  0.00    +0.000 OA
BRANCH  21  26
ATOM     23  C   UNL     1       3.448   5.392  19.060  0.00  0.00    +0.000 A 
ATOM     24  C   UNL     1       2.468   5.968  19.872  0.00  0.00    +0.000 A 
ATOM     25  C   UNL     1       1.934   7.222  19.563  0.00  0.00    +0.000 A 
ATOM     26  C   UNL     1       2.387   7.917  18.438  0.00  0.00    +0.000 A 
ATOM     27  C   UNL     1       3.386   7.353  17.637  0.00  0.00    +0.000 A 
ATOM     28  C   UNL     1       3.912   6.092  17.946  0.00  0.00    +0.000 A 
BRANCH  23  30
ATOM     29  C   UNL     1       2.997   3.390  20.245  0.00  0.00    +0.000 C 
ATOM     30  O   UNL     1       3.906   4.172  19.477  0.00  0.00    +0.000 OA
ENDBRANCH  23  30
ENDBRANCH  21  26
ENDBRANCH   1  21
TORSDOF 6
ENDMDL
