MODEL 1
REMARK VINA RESULT:      -6.8      0.000      0.000
REMARK  Name = 
REMARK  11 active torsions:
REMARK  status: ('A' for Active; 'I' for Inactive)
REMARK    1  A    between atoms: C_2  and  C_3
REMARK    2  A    between atoms: C_3  and  N_4
REMARK    3  A    between atoms: N_4  and  C_5
REMARK    4  A    between atoms: N_4  and  C_8
REMARK    5  A    between atoms: C_5  and  C_6
REMARK    6  A    between atoms: C_8  and  C_9
REMARK    7  A    between atoms: C_9  and  C_10
REMARK    8  A    between atoms: C_10  and  C_11
REMARK    9  A    between atoms: C_11  and  N_12
REMARK   10  A    between atoms: C_16  and  O_17
REMARK   11  A    between atoms: N_20  and  C_21
REMARK                            x       y       z     vdW  Elec       q    Type
REMARK                         _______ _______ _______ _____ _____    ______ ____
ROOT
ATOM      1  N   UNL     1       5.058   5.812  17.738  0.00  0.00    +0.000 N 
ATOM      2  C   UNL     1       5.096   4.595  18.371  0.00  0.00    +0.000 A 
ATOM      3  N   UNL     1       6.215   4.424  19.047  0.00  0.00    +0.000 NA
ATOM      4  C   UNL     1       6.923   5.579  18.825  0.00  0.00    +0.000 A 
ATOM      5  C   UNL     1       8.160   6.021  19.263  0.00  0.00    +0.000 A 
ATOM      6  N   UNL     1       8.606   7.234  18.906  0.00  0.00    +0.000 NA
ATOM      7  C   UNL     1       7.833   8.023  18.130  0.00  0.00    +0.000 A 
ATOM      8  N   UNL     1       8.268   9.317  17.826  0.00  0.00    +0.000 N 
ATOM      9  N   UNL     1       6.633   7.677  17.614  0.00  0.00    +0.000 NA
ATOM     10  C   UNL     1       6.233   6.457  18.010  0.00  0.00    +0.000 A 
ATOM     11  H   UNL     1       7.612   9.763  17.201  0.00  0.00    +0.000 HD
ENDROOT
BRANCH   8  12
ATOM     12  C   UNL     1       9.095  10.183  18.560  0.00  0.00    +0.000 A 
ATOM     13  C   UNL     1       8.973  10.372  19.942  0.00  0.00    +0.000 A 
ATOM     14  C   UNL     1       9.847  11.199  20.650  0.00  0.00    +0.000 A 
ATOM     15  C   UNL     1      10.878  11.851  19.985  0.00  0.00    +0.000 A 
ATOM     16  C   UNL     1      11.033  11.665  18.614  0.00  0.00    +0.000 A 
ATOM     17  C   UNL     1      10.153  10.837  17.908  0.00  0.00    +0.000 A 
ENDBRANCH   8  12
BRANCH   5  18
ATOM     18  O   UNL     1       8.956   5.284  20.103  0.00  0.00    +0.000 OA
ATOM     19  H   UNL     1       9.836   5.305  19.682  0.00  0.00    +0.000 HD
ENDBRANCH   5  18
BRANCH   1  20
ATOM     20  C   UNL     1       3.959   6.331  16.954  0.00  0.00    +0.000 C 
BRANCH  20  21
ATOM     21  C   UNL     1       2.934   7.121  17.768  0.00  0.00    +0.000 C 
BRANCH  21  22
ATOM     22  C   UNL     1       2.730   6.553  19.177  0.00  0.00    +0.000 C 
BRANCH  22  23
ATOM     23  C   UNL     1       1.480   5.663  19.277  0.00  0.00    +0.000 C 
BRANCH  23  24
ATOM     24  N   UNL     1       1.748   4.206  19.347  0.00  0.00    +0.000 NA
BRANCH  24  25
ATOM     25  C   UNL     1       0.753   3.554  20.222  0.00  0.00    +0.000 C 
BRANCH  25  27
ATOM     26  C   UNL     1       2.654   2.752  21.651  0.00  0.00    +0.000 C 
ATOM     27  C   UNL     1       1.342   2.802  21.381  0.00  0.00    +0.000 C 
ENDBRANCH  25  27
ENDBRANCH  24  25
BRANCH  24  28
ATOM     28  C   UNL     1       1.696   3.618  17.991  0.00  0.00    +0.000 C 
BRANCH  28  29
ATOM     29  C   UNL     1       2.078   2.162  17.963  0.00  0.00    +0.000 C 
ATOM     30  C   UNL     1       3.332   1.706  18.096  0.00  0.00    +0.000 C 
ENDBRANCH  28  29
ENDBRANCH  24  28
ENDBRANCH  23  24
ENDBRANCH  22  23
ENDBRANCH  21  22
ENDBRANCH  20  21
ENDBRANCH   1  20
TORSDOF 11
ENDMDL
MODEL 2
REMARK VINA RESULT:      -6.8      4.922      7.621
REMARK  Name = 
REMARK  11 active torsions:
REMARK  status: ('A' for Active; 'I' for Inactive)
REMARK    1  A    between atoms: C_2  and  C_3
REMARK    2  A    between atoms: C_3  and  N_4
REMARK    3  A    between atoms: N_4  and  C_5
REMARK    4  A    between atoms: N_4  and  C_8
REMARK    5  A    between atoms: C_5  and  C_6
REMARK    6  A    between atoms: C_8  and  C_9
REMARK    7  A    between atoms: C_9  and  C_10
REMARK    8  A    between atoms: C_10  and  C_11
REMARK    9  A    between atoms: C_11  and  N_12
REMARK   10  A    between atoms: C_16  and  O_17
REMARK   11  A    between atoms: N_20  and  C_21
REMARK                            x       y       z     vdW  Elec       q    Type
REMARK                         _______ _______ _______ _____ _____    ______ ____
ROOT
ATOM      1  N   UNL     1       4.426   3.770  17.675  0.00  0.00    +0.000 N 
ATOM      2  C   UNL     1       4.068   2.517  18.108  0.00  0.00    +0.000 A 
ATOM      3  N   UNL     1       3.115   2.563  19.017  0.00  0.00    +0.000 NA
ATOM      4  C   UNL     1       2.864   3.903  19.176  0.00  0.00    +0.000 A 
ATOM      5  C   UNL     1       1.971   4.605  19.970  0.00  0.00    +0.000 A 
ATOM      6  N   UNL     1       1.918   5.942  19.902  0.00  0.00    +0.000 NA
ATOM      7  C   UNL     1       2.731   6.596  19.045  0.00  0.00    +0.000 A 
ATOM      8  N   UNL     1       2.617   7.984  18.921  0.00  0.00    +0.000 N 
ATOM      9  N   UNL     1       3.664   6.018  18.258  0.00  0.00    +0.000 NA
ATOM     10  C   UNL     1       3.668   4.677  18.360  0.00  0.00    +0.000 A 
ATOM     11  H   UNL     1       3.319   8.333  18.286  0.00  0.00    +0.000 HD
ENDROOT
BRANCH   8  12
ATOM     12  C   UNL     1       1.499   8.815  19.109  0.00  0.00    +0.000 A 
ATOM     13  C   UNL     1       0.820   9.437  18.053  0.00  0.00    +0.000 A 
ATOM     14  C   UNL     1      -0.320  10.212  18.269  0.00  0.00    +0.000 A 
ATOM     15  C   UNL     1      -0.816  10.373  19.556  0.00  0.00    +0.000 A 
ATOM     16  C   UNL     1      -0.172   9.750  20.622  0.00  0.00    +0.000 A 
ATOM     17  C   UNL     1       0.973   8.975  20.400  0.00  0.00    +0.000 A 
ENDBRANCH   8  12
BRANCH   5  18
ATOM     18  O   UNL     1       1.082   3.984  20.811  0.00  0.00    +0.000 OA
ATOM     19  H   UNL     1       0.488   4.700  21.104  0.00  0.00    +0.000 HD
ENDBRANCH   5  18
BRANCH   1  20
ATOM     20  C   UNL     1       5.406   4.070  16.653  0.00  0.00    +0.000 C 
BRANCH  20  21
ATOM     21  C   UNL     1       4.797   4.474  15.309  0.00  0.00    +0.000 C 
BRANCH  21  22
ATOM     22  C   UNL     1       5.857   4.747  14.237  0.00  0.00    +0.000 C 
BRANCH  22  23
ATOM     23  C   UNL     1       6.364   3.458  13.569  0.00  0.00    +0.000 C 
BRANCH  23  24
ATOM     24  N   UNL     1       6.053   3.333  12.124  0.00  0.00    +0.000 NA
BRANCH  24  25
ATOM     25  C   UNL     1       6.816   2.212  11.541  0.00  0.00    +0.000 C 
BRANCH  25  27
ATOM     26  C   UNL     1       6.246  -0.224  11.341  0.00  0.00    +0.000 C 
ATOM     27  C   UNL     1       5.972   1.061  11.073  0.00  0.00    +0.000 C 
ENDBRANCH  25  27
ENDBRANCH  24  25
BRANCH  24  28
ATOM     28  C   UNL     1       4.602   3.113  11.938  0.00  0.00    +0.000 C 
BRANCH  28  29
ATOM     29  C   UNL     1       4.009   3.966  10.849  0.00  0.00    +0.000 C 
ATOM     30  C   UNL     1       3.047   3.560  10.009  0.00  0.00    +0.000 C 
ENDBRANCH  28  29
ENDBRANCH  24  28
ENDBRANCH  23  24
ENDBRANCH  22  23
ENDBRANCH  21  22
ENDBRANCH  20  21
ENDBRANCH   1  20
TORSDOF 11
ENDMDL
MODEL 3
REMARK VINA RESULT:      -6.7      5.484      7.795
REMARK  Name = 
REMARK  11 active torsions:
REMARK  status: ('A' for Active; 'I' for Inactive)
REMARK    1  A    between atoms: C_2  and  C_3
REMARK    2  A    between atoms: C_3  and  N_4
REMARK    3  A    between atoms: N_4  and  C_5
REMARK    4  A    between atoms: N_4  and  C_8
REMARK    5  A    between atoms: C_5  and  C_6
REMARK    6  A    between atoms: C_8  and  C_9
REMARK    7  A    between atoms: C_9  and  C_10
REMARK    8  A    between atoms: C_10  and  C_11
REMARK    9  A    between atoms: C_11  and  N_12
REMARK   10  A    between atoms: C_16  and  O_17
REMARK   11  A    between atoms: N_20  and  C_21
REMARK                            x       y       z     vdW  Elec       q    Type
REMARK                         _______ _______ _______ _____ _____    ______ ____
ROOT
ATOM      1  N   UNL     1       0.998   9.776  19.752  0.00  0.00    +0.000 N 
ATOM      2  C   UNL     1       0.479   9.513  20.996  0.00  0.00    +0.000 A 
ATOM      3  N   UNL     1       0.805   8.310  21.424  0.00  0.00    +0.000 NA
ATOM      4  C   UNL     1       1.553   7.780  20.402  0.00  0.00    +0.000 A 
ATOM      5  C   UNL     1       2.195   6.564  20.240  0.00  0.00    +0.000 A 
ATOM      6  N   UNL     1       2.896   6.315  19.126  0.00  0.00    +0.000 NA
ATOM      7  C   UNL     1       2.983   7.266  18.171  0.00  0.00    +0.000 A 
ATOM      8  N   UNL     1       3.780   7.033  17.046  0.00  0.00    +0.000 N 
ATOM      9  N   UNL     1       2.366   8.467  18.206  0.00  0.00    +0.000 NA
ATOM     10  C   UNL     1       1.684   8.665  19.348  0.00  0.00    +0.000 A 
ATOM     11  H   UNL     1       3.705   7.807  16.403  0.00  0.00    +0.000 HD
ENDROOT
BRANCH   8  12
ATOM     12  C   UNL     1       4.929   6.236  16.908  0.00  0.00    +0.000 A 
ATOM     13  C   UNL     1       4.951   5.041  16.178  0.00  0.00    +0.000 A 
ATOM     14  C   UNL     1       6.124   4.302  16.014  0.00  0.00    +0.000 A 
ATOM     15  C   UNL     1       7.312   4.754  16.574  0.00  0.00    +0.000 A 
ATOM     16  C   UNL     1       7.323   5.948  17.288  0.00  0.00    +0.000 A 
ATOM     17  C   UNL     1       6.144   6.685  17.451  0.00  0.00    +0.000 A 
ENDBRANCH   8  12
BRANCH   5  18
ATOM     18  O   UNL     1       2.189   5.589  21.207  0.00  0.00    +0.000 OA
ATOM     19  H   UNL     1       1.264   5.283  21.235  0.00  0.00    +0.000 HD
ENDBRANCH   5  18
BRANCH   1  20
ATOM     20  C   UNL     1       0.867  11.016  19.019  0.00  0.00    +0.000 C 
BRANCH  20  21
ATOM     21  C   UNL     1      -0.462  11.736  19.250  0.00  0.00    +0.000 C 
BRANCH  21  22
ATOM     22  C   UNL     1      -1.329  11.800  17.988  0.00  0.00    +0.000 C 
BRANCH  22  23
ATOM     23  C   UNL     1      -2.821  11.579  18.288  0.00  0.00    +0.000 C 
BRANCH  23  24
ATOM     24  N   UNL     1      -3.567  10.825  17.251  0.00  0.00    +0.000 NA
BRANCH  24  25
ATOM     25  C   UNL     1      -4.868  11.474  16.996  0.00  0.00    +0.000 C 
BRANCH  25  27
ATOM     26  C   UNL     1      -6.996  11.451  18.326  0.00  0.00    +0.000 C 
ATOM     27  C   UNL     1      -5.688  11.729  18.229  0.00  0.00    +0.000 C 
ENDBRANCH  25  27
ENDBRANCH  24  25
BRANCH  24  28
ATOM     28  C   UNL     1      -2.774  10.767  16.003  0.00  0.00    +0.000 C 
BRANCH  28  29
ATOM     29  C   UNL     1      -3.552  10.225  14.833  0.00  0.00    +0.000 C 
ATOM     30  C   UNL     1      -3.005   9.852  13.668  0.00  0.00    +0.000 C 
ENDBRANCH  28  29
ENDBRANCH  24  28
ENDBRANCH  23  24
ENDBRANCH  22  23
ENDBRANCH  21  22
ENDBRANCH  20  21
ENDBRANCH   1  20
TORSDOF 11
ENDMDL
MODEL 4
REMARK VINA RESULT:      -6.7      5.315      7.669
REMARK  Name = 
REMARK  11 active torsions:
REMARK  status: ('A' for Active; 'I' for Inactive)
REMARK    1  A    between atoms: C_2  and  C_3
REMARK    2  A    between atoms: C_3  and  N_4
REMARK    3  A    between atoms: N_4  and  C_5
REMARK    4  A    between atoms: N_4  and  C_8
REMARK    5  A    between atoms: C_5  and  C_6
REMARK    6  A    between atoms: C_8  and  C_9
REMARK    7  A    between atoms: C_9  and  C_10
REMARK    8  A    between atoms: C_10  and  C_11
REMARK    9  A    between atoms: C_11  and  N_12
REMARK   10  A    between atoms: C_16  and  O_17
REMARK   11  A    between atoms: N_20  and  C_21
REMARK                            x       y       z     vdW  Elec       q    Type
REMARK                         _______ _______ _______ _____ _____    ______ ____
ROOT
ATOM      1  N   UNL     1       0.898   9.670  19.775  0.00  0.00    +0.000 N 
ATOM      2  C   UNL     1       0.428   9.407  21.038  0.00  0.00    +0.000 A 
ATOM      3  N   UNL     1       0.831   8.233  21.481  0.00  0.00    +0.000 NA
ATOM      4  C   UNL     1       1.581   7.723  20.450  0.00  0.00    +0.000 A 
ATOM      5  C   UNL     1       2.285   6.540  20.296  0.00  0.00    +0.000 A 
ATOM      6  N   UNL     1       2.969   6.306  19.168  0.00  0.00    +0.000 NA
ATOM      7  C   UNL     1       2.978   7.239  18.191  0.00  0.00    +0.000 A 
ATOM      8  N   UNL     1       3.756   7.025  17.050  0.00  0.00    +0.000 N 
ATOM      9  N   UNL     1       2.296   8.405  18.219  0.00  0.00    +0.000 NA
ATOM     10  C   UNL     1       1.635   8.590  19.375  0.00  0.00    +0.000 A 
ATOM     11  H   UNL     1       3.622   7.780  16.394  0.00  0.00    +0.000 HD
ENDROOT
BRANCH   8  12
ATOM     12  C   UNL     1       4.944   6.290  16.897  0.00  0.00    +0.000 A 
ATOM     13  C   UNL     1       6.194   6.754  17.326  0.00  0.00    +0.000 A 
ATOM     14  C   UNL     1       7.347   5.975  17.208  0.00  0.00    +0.000 A 
ATOM     15  C   UNL     1       7.269   4.700  16.663  0.00  0.00    +0.000 A 
ATOM     16  C   UNL     1       6.036   4.207  16.246  0.00  0.00    +0.000 A 
ATOM     17  C   UNL     1       4.884   4.992  16.365  0.00  0.00    +0.000 A 
ENDBRANCH   8  12
BRANCH   5  18
ATOM     18  O   UNL     1       2.359   5.588  21.282  0.00  0.00    +0.000 OA
ATOM     19  H   UNL     1       2.294   4.740  20.804  0.00  0.00    +0.000 HD
ENDBRANCH   5  18
BRANCH   1  20
ATOM     20  C   UNL     1       0.679  10.885  19.020  0.00  0.00    +0.000 C 
BRANCH  20  21
ATOM     21  C   UNL     1      -0.787  11.143  18.671  0.00  0.00    +0.000 C 
BRANCH  21  22
ATOM     22  C   UNL     1      -1.369  10.079  17.733  0.00  0.00    +0.000 C 
BRANCH  22  23
ATOM     23  C   UNL     1      -2.903  10.008  17.806  0.00  0.00    +0.000 C 
BRANCH  23  24
ATOM     24  N   UNL     1      -3.611  10.384  16.558  0.00  0.00    +0.000 NA
BRANCH  24  25
ATOM     25  C   UNL     1      -4.401  11.612  16.780  0.00  0.00    +0.000 C 
BRANCH  25  27
ATOM     26  C   UNL     1      -6.353  10.960  18.215  0.00  0.00    +0.000 C 
ATOM     27  C   UNL     1      -5.197  11.619  18.053  0.00  0.00    +0.000 C 
ENDBRANCH  25  27
ENDBRANCH  24  25
BRANCH  24  28
ATOM     28  C   UNL     1      -2.633  10.598  15.469  0.00  0.00    +0.000 C 
BRANCH  28  29
ATOM     29  C   UNL     1      -3.181  10.259  14.108  0.00  0.00    +0.000 C 
ATOM     30  C   UNL     1      -4.310   9.568  13.898  0.00  0.00    +0.000 C 
ENDBRANCH  28  29
ENDBRANCH  24  28
ENDBRANCH  23  24
ENDBRANCH  22  23
ENDBRANCH  21  22
ENDBRANCH  20  21
ENDBRANCH   1  20
TORSDOF 11
ENDMDL
MODEL 5
REMARK VINA RESULT:      -6.7      5.434      7.897
REMARK  Name = 
REMARK  11 active torsions:
REMARK  status: ('A' for Active; 'I' for Inactive)
REMARK    1  A    between atoms: C_2  and  C_3
REMARK    2  A    between atoms: C_3  and  N_4
REMARK    3  A    between atoms: N_4  and  C_5
REMARK    4  A    between atoms: N_4  and  C_8
REMARK    5  A    between atoms: C_5  and  C_6
REMARK    6  A    between atoms: C_8  and  C_9
REMARK    7  A    between atoms: C_9  and  C_10
REMARK    8  A    between atoms: C_10  and  C_11
REMARK    9  A    between atoms: C_11  and  N_12
REMARK   10  A    between atoms: C_16  and  O_17
REMARK   11  A    between atoms: N_20  and  C_21
REMARK                            x       y       z     vdW  Elec       q    Type
REMARK                         _______ _______ _______ _____ _____    ______ ____
ROOT
ATOM      1  N   UNL     1       0.881   9.718  19.519  0.00  0.00    +0.000 N 
ATOM      2  C   UNL     1       0.342   9.465  20.756  0.00  0.00    +0.000 A 
ATOM      3  N   UNL     1       0.718   8.294  21.228  0.00  0.00    +0.000 NA
ATOM      4  C   UNL     1       1.523   7.775  20.243  0.00  0.00    +0.000 A 
ATOM      5  C   UNL     1       2.232   6.591  20.136  0.00  0.00    +0.000 A 
ATOM      6  N   UNL     1       2.977   6.348  19.049  0.00  0.00    +0.000 NA
ATOM      7  C   UNL     1       3.041   7.274  18.068  0.00  0.00    +0.000 A 
ATOM      8  N   UNL     1       3.880   7.052  16.973  0.00  0.00    +0.000 N 
ATOM      9  N   UNL     1       2.360   8.441  18.050  0.00  0.00    +0.000 NA
ATOM     10  C   UNL     1       1.637   8.635  19.167  0.00  0.00    +0.000 A 
ATOM     11  H   UNL     1       3.783   7.803  16.305  0.00  0.00    +0.000 HD
ENDROOT
BRANCH   8  12
ATOM     12  C   UNL     1       5.074   6.315  16.890  0.00  0.00    +0.000 A 
ATOM     13  C   UNL     1       6.263   6.708  17.516  0.00  0.00    +0.000 A 
ATOM     14  C   UNL     1       7.417   5.924  17.459  0.00  0.00    +0.000 A 
ATOM     15  C   UNL     1       7.400   4.714  16.777  0.00  0.00    +0.000 A 
ATOM     16  C   UNL     1       6.226   4.290  16.162  0.00  0.00    +0.000 A 
ATOM     17  C   UNL     1       5.072   5.081  16.221  0.00  0.00    +0.000 A 
ENDBRANCH   8  12
BRANCH   5  18
ATOM     18  O   UNL     1       2.250   5.645  21.131  0.00  0.00    +0.000 OA
ATOM     19  H   UNL     1       2.410   4.805  20.662  0.00  0.00    +0.000 HD
ENDBRANCH   5  18
BRANCH   1  20
ATOM     20  C   UNL     1       0.706  10.928  18.745  0.00  0.00    +0.000 C 
BRANCH  20  21
ATOM     21  C   UNL     1      -0.164  11.983  19.431  0.00  0.00    +0.000 C 
BRANCH  21  22
ATOM     22  C   UNL     1      -1.655  11.813  19.122  0.00  0.00    +0.000 C 
BRANCH  22  23
ATOM     23  C   UNL     1      -1.924  11.590  17.625  0.00  0.00    +0.000 C 
BRANCH  23  24
ATOM     24  N   UNL     1      -3.356  11.558  17.239  0.00  0.00    +0.000 NA
BRANCH  24  25
ATOM     25  C   UNL     1      -3.653  10.306  16.514  0.00  0.00    +0.000 C 
BRANCH  25  27
ATOM     26  C   UNL     1      -3.306  10.069  14.040  0.00  0.00    +0.000 C 
ATOM     27  C   UNL     1      -2.815  10.083  15.288  0.00  0.00    +0.000 C 
ENDBRANCH  25  27
ENDBRANCH  24  25
BRANCH  24  28
ATOM     28  C   UNL     1      -4.205  11.661  18.446  0.00  0.00    +0.000 C 
BRANCH  28  29
ATOM     29  C   UNL     1      -5.583  12.192  18.156  0.00  0.00    +0.000 C 
ATOM     30  C   UNL     1      -6.693  11.440  18.126  0.00  0.00    +0.000 C 
ENDBRANCH  28  29
ENDBRANCH  24  28
ENDBRANCH  23  24
ENDBRANCH  22  23
ENDBRANCH  21  22
ENDBRANCH  20  21
ENDBRANCH   1  20
TORSDOF 11
ENDMDL
MODEL 6
REMARK VINA RESULT:      -6.6      6.989     10.005
REMARK  Name = 
REMARK  11 active torsions:
REMARK  status: ('A' for Active; 'I' for Inactive)
REMARK    1  A    between atoms: C_2  and  C_3
REMARK    2  A    between atoms: C_3  and  N_4
REMARK    3  A    between atoms: N_4  and  C_5
REMARK    4  A    between atoms: N_4  and  C_8
REMARK    5  A    between atoms: C_5  and  C_6
REMARK    6  A    between atoms: C_8  and  C_9
REMARK    7  A    between atoms: C_9  and  C_10
REMARK    8  A    between atoms: C_10  and  C_11
REMARK    9  A    between atoms: C_11  and  N_12
REMARK   10  A    between atoms: C_16  and  O_17
REMARK   11  A    between atoms: N_20  and  C_21
REMARK                            x       y       z     vdW  Elec       q    Type
REMARK                         _______ _______ _______ _____ _____    ______ ____
ROOT
ATOM      1  N   UNL     1       0.020  10.593  21.205  0.00  0.00    +0.000 N 
ATOM      2  C   UNL     1      -0.054  11.544  20.218  0.00  0.00    +0.000 A 
ATOM      3  N   UNL     1       0.545  11.155  19.111  0.00  0.00    +0.000 NA
ATOM      4  C   UNL     1       1.031   9.906  19.411  0.00  0.00    +0.000 A 
ATOM      5  C   UNL     1       1.739   8.971  18.674  0.00  0.00    +0.000 A 
ATOM      6  N   UNL     1       2.068   7.793  19.221  0.00  0.00    +0.000 NA
ATOM      7  C   UNL     1       1.691   7.521  20.489  0.00  0.00    +0.000 A 
ATOM      8  N   UNL     1       1.968   6.261  21.027  0.00  0.00    +0.000 N 
ATOM      9  N   UNL     1       1.037   8.373  21.309  0.00  0.00    +0.000 NA
ATOM     10  C   UNL     1       0.726   9.534  20.707  0.00  0.00    +0.000 A 
ATOM     11  H   UNL     1       1.673   6.226  21.992  0.00  0.00    +0.000 HD
ENDROOT
BRANCH   8  12
ATOM     12  C   UNL     1       2.101   5.018  20.386  0.00  0.00    +0.000 A 
ATOM     13  C   UNL     1       3.302   4.570  19.822  0.00  0.00    +0.000 A 
ATOM     14  C   UNL     1       3.414   3.306  19.240  0.00  0.00    +0.000 A 
ATOM     15  C   UNL     1       2.319   2.452  19.221  0.00  0.00    +0.000 A 
ATOM     16  C   UNL     1       1.117   2.865  19.791  0.00  0.00    +0.000 A 
ATOM     17  C   UNL     1       1.010   4.134  20.372  0.00  0.00    +0.000 A 
ENDBRANCH   8  12
BRANCH   5  18
ATOM     18  O   UNL     1       2.092   9.174  17.363  0.00  0.00    +0.000 OA
ATOM     19  H   UNL     1       1.931  10.124  17.214  0.00  0.00    +0.000 HD
ENDBRANCH   5  18
BRANCH   1  20
ATOM     20  C   UNL     1      -0.572  10.684  22.522  0.00  0.00    +0.000 C 
BRANCH  20  21
ATOM     21  C   UNL     1      -1.091  12.079  22.874  0.00  0.00    +0.000 C 
BRANCH  21  22
ATOM     22  C   UNL     1      -2.575  12.080  23.255  0.00  0.00    +0.000 C 
BRANCH  22  23
ATOM     23  C   UNL     1      -3.434  12.886  22.267  0.00  0.00    +0.000 C 
BRANCH  23  24
ATOM     24  N   UNL     1      -4.834  12.417  22.120  0.00  0.00    +0.000 NA
BRANCH  24  25
ATOM     25  C   UNL     1      -5.698  13.099  23.104  0.00  0.00    +0.000 C 
BRANCH  25  27
ATOM     26  C   UNL     1      -6.442  15.404  23.763  0.00  0.00    +0.000 C 
ATOM     27  C   UNL     1      -5.809  14.585  22.911  0.00  0.00    +0.000 C 
ENDBRANCH  25  27
ENDBRANCH  24  25
BRANCH  24  28
ATOM     28  C   UNL     1      -5.314  12.686  20.747  0.00  0.00    +0.000 C 
BRANCH  28  29
ATOM     29  C   UNL     1      -4.341  12.251  19.685  0.00  0.00    +0.000 C 
ATOM     30  C   UNL     1      -4.689  11.900  18.439  0.00  0.00    +0.000 C 
ENDBRANCH  28  29
ENDBRANCH  24  28
ENDBRANCH  23  24
ENDBRANCH  22  23
ENDBRANCH  21  22
ENDBRANCH  20  21
ENDBRANCH   1  20
TORSDOF 11
ENDMDL
MODEL 7
REMARK VINA RESULT:      -6.6      5.815      8.672
REMARK  Name = 
REMARK  11 active torsions:
REMARK  status: ('A' for Active; 'I' for Inactive)
REMARK    1  A    between atoms: C_2  and  C_3
REMARK    2  A    between atoms: C_3  and  N_4
REMARK    3  A    between atoms: N_4  and  C_5
REMARK    4  A    between atoms: N_4  and  C_8
REMARK    5  A    between atoms: C_5  and  C_6
REMARK    6  A    between atoms: C_8  and  C_9
REMARK    7  A    between atoms: C_9  and  C_10
REMARK    8  A    between atoms: C_10  and  C_11
REMARK    9  A    between atoms: C_11  and  N_12
REMARK   10  A    between atoms: C_16  and  O_17
REMARK   11  A    between atoms: N_20  and  C_21
REMARK                            x       y       z     vdW  Elec       q    Type
REMARK                         _______ _______ _______ _____ _____    ______ ____
ROOT
ATOM      1  N   UNL     1       1.833   8.364  19.308  0.00  0.00    +0.000 N 
ATOM      2  C   UNL     1       2.348   8.714  18.084  0.00  0.00    +0.000 A 
ATOM      3  N   UNL     1       1.855   9.855  17.647  0.00  0.00    +0.000 NA
ATOM      4  C   UNL     1       0.980  10.243  18.632  0.00  0.00    +0.000 A 
ATOM      5  C   UNL     1       0.162  11.351  18.780  0.00  0.00    +0.000 A 
ATOM      6  N   UNL     1      -0.585  11.494  19.883  0.00  0.00    +0.000 NA
ATOM      7  C   UNL     1      -0.523  10.556  20.853  0.00  0.00    +0.000 A 
ATOM      8  N   UNL     1      -1.244  10.749  22.035  0.00  0.00    +0.000 N 
ATOM      9  N   UNL     1       0.206   9.420  20.795  0.00  0.00    +0.000 NA
ATOM     10  C   UNL     1       0.941   9.333  19.673  0.00  0.00    +0.000 A 
ATOM     11  H   UNL     1      -1.138   9.946  22.638  0.00  0.00    +0.000 HD
ENDROOT
BRANCH   8  12
ATOM     12  C   UNL     1      -1.627  11.942  22.671  0.00  0.00    +0.000 A 
ATOM     13  C   UNL     1      -2.865  12.111  23.302  0.00  0.00    +0.000 A 
ATOM     14  C   UNL     1      -3.193  13.291  23.972  0.00  0.00    +0.000 A 
ATOM     15  C   UNL     1      -2.274  14.331  24.035  0.00  0.00    +0.000 A 
ATOM     16  C   UNL     1      -1.028  14.182  23.432  0.00  0.00    +0.000 A 
ATOM     17  C   UNL     1      -0.706  12.997  22.759  0.00  0.00    +0.000 A 
ENDBRANCH   8  12
BRANCH   5  18
ATOM     18  O   UNL     1       0.109  12.361  17.852  0.00  0.00    +0.000 OA
ATOM     19  H   UNL     1       0.083  13.177  18.386  0.00  0.00    +0.000 HD
ENDBRANCH   5  18
BRANCH   1  20
ATOM     20  C   UNL     1       2.196   7.198  20.084  0.00  0.00    +0.000 C 
BRANCH  20  21
ATOM     21  C   UNL     1       2.367   5.927  19.251  0.00  0.00    +0.000 C 
BRANCH  21  22
ATOM     22  C   UNL     1       3.748   5.286  19.424  0.00  0.00    +0.000 C 
BRANCH  22  23
ATOM     23  C   UNL     1       4.612   5.402  18.157  0.00  0.00    +0.000 C 
BRANCH  23  24
ATOM     24  N   UNL     1       5.978   4.835  18.272  0.00  0.00    +0.000 NA
BRANCH  24  25
ATOM     25  C   UNL     1       6.484   4.469  16.935  0.00  0.00    +0.000 C 
BRANCH  25  27
ATOM     26  C   UNL     1       5.532   4.425  14.614  0.00  0.00    +0.000 C 
ATOM     27  C   UNL     1       5.414   4.169  15.924  0.00  0.00    +0.000 C 
ENDBRANCH  25  27
ENDBRANCH  24  25
BRANCH  24  28
ATOM     28  C   UNL     1       6.881   5.821  18.906  0.00  0.00    +0.000 C 
BRANCH  28  29
ATOM     29  C   UNL     1       7.725   6.573  17.912  0.00  0.00    +0.000 C 
ATOM     30  C   UNL     1       7.700   7.903  17.751  0.00  0.00    +0.000 C 
ENDBRANCH  28  29
ENDBRANCH  24  28
ENDBRANCH  23  24
ENDBRANCH  22  23
ENDBRANCH  21  22
ENDBRANCH  20  21
ENDBRANCH   1  20
TORSDOF 11
ENDMDL
MODEL 8
REMARK VINA RESULT:      -6.5      4.892      7.576
REMARK  Name = 
REMARK  11 active torsions:
REMARK  status: ('A' for Active; 'I' for Inactive)
REMARK    1  A    between atoms: C_2  and  C_3
REMARK    2  A    between atoms: C_3  and  N_4
REMARK    3  A    between atoms: N_4  and  C_5
REMARK    4  A    between atoms: N_4  and  C_8
REMARK    5  A    between atoms: C_5  and  C_6
REMARK    6  A    between atoms: C_8  and  C_9
REMARK    7  A    between atoms: C_9  and  C_10
REMARK    8  A    between atoms: C_10  and  C_11
REMARK    9  A    between atoms: C_11  and  N_12
REMARK   10  A    between atoms: C_16  and  O_17
REMARK   11  A    between atoms: N_20  and  C_21
REMARK                            x       y       z     vdW  Elec       q    Type
REMARK                         _______ _______ _______ _____ _____    ______ ____
ROOT
ATOM      1  N   UNL     1       3.669   3.589  17.492  0.00  0.00    +0.000 N 
ATOM      2  C   UNL     1       3.323   2.299  17.809  0.00  0.00    +0.000 A 
ATOM      3  N   UNL     1       2.590   2.238  18.902  0.00  0.00    +0.000 NA
ATOM      4  C   UNL     1       2.475   3.546  19.304  0.00  0.00    +0.000 A 
ATOM      5  C   UNL     1       1.823   4.149  20.367  0.00  0.00    +0.000 A 
ATOM      6  N   UNL     1       1.852   5.481  20.507  0.00  0.00    +0.000 NA
ATOM      7  C   UNL     1       2.509   6.230  19.595  0.00  0.00    +0.000 A 
ATOM      8  N   UNL     1       2.471   7.623  19.700  0.00  0.00    +0.000 N 
ATOM      9  N   UNL     1       3.211   5.746  18.546  0.00  0.00    +0.000 NA
ATOM     10  C   UNL     1       3.140   4.406  18.451  0.00  0.00    +0.000 A 
ATOM     11  H   UNL     1       3.046   8.040  18.982  0.00  0.00    +0.000 HD
ENDROOT
BRANCH   8  12
ATOM     12  C   UNL     1       1.481   8.457  20.247  0.00  0.00    +0.000 A 
ATOM     13  C   UNL     1       0.798   9.427  19.503  0.00  0.00    +0.000 A 
ATOM     14  C   UNL     1      -0.219  10.201  20.063  0.00  0.00    +0.000 A 
ATOM     15  C   UNL     1      -0.586  10.011  21.389  0.00  0.00    +0.000 A 
ATOM     16  C   UNL     1       0.063   9.040  22.147  0.00  0.00    +0.000 A 
ATOM     17  C   UNL     1       1.084   8.267  21.580  0.00  0.00    +0.000 A 
ENDBRANCH   8  12
BRANCH   5  18
ATOM     18  O   UNL     1       1.090   3.439  21.285  0.00  0.00    +0.000 OA
ATOM     19  H   UNL     1       1.207   2.508  21.020  0.00  0.00    +0.000 HD
ENDBRANCH   5  18
BRANCH   1  20
ATOM     20  C   UNL     1       4.429   4.007  16.333  0.00  0.00    +0.000 C 
BRANCH  20  21
ATOM     21  C   UNL     1       5.895   4.320  16.633  0.00  0.00    +0.000 C 
BRANCH  21  22
ATOM     22  C   UNL     1       6.836   3.891  15.502  0.00  0.00    +0.000 C 
BRANCH  22  23
ATOM     23  C   UNL     1       6.414   4.463  14.138  0.00  0.00    +0.000 C 
BRANCH  23  24
ATOM     24  N   UNL     1       5.987   3.455  13.137  0.00  0.00    +0.000 NA
BRANCH  24  25
ATOM     25  C   UNL     1       4.571   3.673  12.779  0.00  0.00    +0.000 C 
BRANCH  25  27
ATOM     26  C   UNL     1       3.349   2.999  10.694  0.00  0.00    +0.000 C 
ATOM     27  C   UNL     1       4.302   3.719  11.302  0.00  0.00    +0.000 C 
ENDBRANCH  25  27
ENDBRANCH  24  25
BRANCH  24  28
ATOM     28  C   UNL     1       6.838   3.551  11.931  0.00  0.00    +0.000 C 
BRANCH  28  29
ATOM     29  C   UNL     1       7.456   2.236  11.538  0.00  0.00    +0.000 C 
ATOM     30  C   UNL     1       6.799   1.246  10.918  0.00  0.00    +0.000 C 
ENDBRANCH  28  29
ENDBRANCH  24  28
ENDBRANCH  23  24
ENDBRANCH  22  23
ENDBRANCH  21  22
ENDBRANCH  20  21
ENDBRANCH   1  20
TORSDOF 11
ENDMDL
MODEL 9
REMARK VINA RESULT:      -6.5      4.876      7.670
REMARK  Name = 
REMARK  11 active torsions:
REMARK  status: ('A' for Active; 'I' for Inactive)
REMARK    1  A    between atoms: C_2  and  C_3
REMARK    2  A    between atoms: C_3  and  N_4
REMARK    3  A    between atoms: N_4  and  C_5
REMARK    4  A    between atoms: N_4  and  C_8
REMARK    5  A    between atoms: C_5  and  C_6
REMARK    6  A    between atoms: C_8  and  C_9
REMARK    7  A    between atoms: C_9  and  C_10
REMARK    8  A    between atoms: C_10  and  C_11
REMARK    9  A    between atoms: C_11  and  N_12
REMARK   10  A    between atoms: C_16  and  O_17
REMARK   11  A    between atoms: N_20  and  C_21
REMARK                            x       y       z     vdW  Elec       q    Type
REMARK                         _______ _______ _______ _____ _____    ______ ____
ROOT
ATOM      1  N   UNL     1       3.527   3.604  17.484  0.00  0.00    +0.000 N 
ATOM      2  C   UNL     1       3.090   2.320  17.694  0.00  0.00    +0.000 A 
ATOM      3  N   UNL     1       2.297   2.234  18.743  0.00  0.00    +0.000 NA
ATOM      4  C   UNL     1       2.236   3.517  19.227  0.00  0.00    +0.000 A 
ATOM      5  C   UNL     1       1.564   4.088  20.295  0.00  0.00    +0.000 A 
ATOM      6  N   UNL     1       1.663   5.404  20.526  0.00  0.00    +0.000 NA
ATOM      7  C   UNL     1       2.411   6.169  19.702  0.00  0.00    +0.000 A 
ATOM      8  N   UNL     1       2.448   7.552  19.900  0.00  0.00    +0.000 N 
ATOM      9  N   UNL     1       3.139   5.712  18.659  0.00  0.00    +0.000 NA
ATOM     10  C   UNL     1       2.996   4.389  18.469  0.00  0.00    +0.000 A 
ATOM     11  H   UNL     1       3.084   7.978  19.242  0.00  0.00    +0.000 HD
ENDROOT
BRANCH   8  12
ATOM     12  C   UNL     1       1.479   8.407  20.453  0.00  0.00    +0.000 A 
ATOM     13  C   UNL     1       0.699   9.280  19.684  0.00  0.00    +0.000 A 
ATOM     14  C   UNL     1      -0.293  10.077  20.257  0.00  0.00    +0.000 A 
ATOM     15  C   UNL     1      -0.534  10.009  21.624  0.00  0.00    +0.000 A 
ATOM     16  C   UNL     1       0.215   9.136  22.409  0.00  0.00    +0.000 A 
ATOM     17  C   UNL     1       1.210   8.340  21.829  0.00  0.00    +0.000 A 
ENDBRANCH   8  12
BRANCH   5  18
ATOM     18  O   UNL     1       0.743   3.366  21.124  0.00  0.00    +0.000 OA
ATOM     19  H   UNL     1       0.914   3.732  22.012  0.00  0.00    +0.000 HD
ENDBRANCH   5  18
BRANCH   1  20
ATOM     20  C   UNL     1       4.372   4.050  16.396  0.00  0.00    +0.000 C 
BRANCH  20  21
ATOM     21  C   UNL     1       5.833   4.262  16.793  0.00  0.00    +0.000 C 
BRANCH  21  22
ATOM     22  C   UNL     1       6.754   4.451  15.582  0.00  0.00    +0.000 C 
BRANCH  22  23
ATOM     23  C   UNL     1       5.973   4.573  14.263  0.00  0.00    +0.000 C 
BRANCH  23  24
ATOM     24  N   UNL     1       6.260   3.516  13.262  0.00  0.00    +0.000 NA
BRANCH  24  25
ATOM     25  C   UNL     1       4.995   2.928  12.778  0.00  0.00    +0.000 C 
BRANCH  25  27
ATOM     26  C   UNL     1       3.461   3.357  10.839  0.00  0.00    +0.000 C 
ATOM     27  C   UNL     1       4.698   3.196  11.330  0.00  0.00    +0.000 C 
ENDBRANCH  25  27
ENDBRANCH  24  25
BRANCH  24  28
ATOM     28  C   UNL     1       7.022   4.088  12.131  0.00  0.00    +0.000 C 
BRANCH  28  29
ATOM     29  C   UNL     1       7.805   5.317  12.507  0.00  0.00    +0.000 C 
ATOM     30  C   UNL     1       8.061   6.335  11.673  0.00  0.00    +0.000 C 
ENDBRANCH  28  29
ENDBRANCH  24  28
ENDBRANCH  23  24
ENDBRANCH  22  23
ENDBRANCH  21  22
ENDBRANCH  20  21
ENDBRANCH   1  20
TORSDOF 11
ENDMDL
