MODEL 1
REMARK VINA RESULT:      -6.6      0.000      0.000
REMARK  Name = 
REMARK  8 active torsions:
REMARK  status: ('A' for Active; 'I' for Inactive)
REMARK    1  A    between atoms: C_1  and  N_2
REMARK    2  A    between atoms: C_3  and  C_5
REMARK    3  A    between atoms: C_5  and  C_6
REMARK    4  A    between atoms: C_5  and  C_7
REMARK    5  A    between atoms: C_5  and  C_8
REMARK    6  A    between atoms: C_8  and  N_9
REMARK    7  A    between atoms: N_12  and  C_13
REMARK    8  A    between atoms: C_16  and  C_17
REMARK                            x       y       z     vdW  Elec       q    Type
REMARK                         _______ _______ _______ _____ _____    ______ ____
ROOT
ATOM      1  N   UNL     1       3.116   5.678  19.832  0.00  0.00    +0.000 N 
ATOM      2  C   UNL     1       2.111   6.392  20.438  0.00  0.00    +0.000 C 
ATOM      3  O   UNL     1       1.125   5.818  20.897  0.00  0.00    +0.000 OA
ATOM      4  N   UNL     1       2.309   7.745  20.387  0.00  0.00    +0.000 N 
ATOM      5  H   UNL     1       4.036   6.089  19.788  0.00  0.00    +0.000 HD
ATOM      6  H   UNL     1       2.983   8.088  19.718  0.00  0.00    +0.000 HD
ENDROOT
BRANCH   4   7
ATOM      7  C   UNL     1       1.405   8.680  20.922  0.00  0.00    +0.000 A 
ATOM      8  N   UNL     1       1.212   8.707  22.258  0.00  0.00    +0.000 NA
ATOM      9  C   UNL     1       0.293   9.547  22.769  0.00  0.00    +0.000 A 
ATOM     10  C   UNL     1      -0.459  10.420  22.002  0.00  0.00    +0.000 A 
ATOM     11  C   UNL     1      -1.478  11.317  22.625  0.00  0.00    +0.000 C 
ATOM     12  C   UNL     1      -0.232  10.420  20.624  0.00  0.00    +0.000 A 
ATOM     13  C   UNL     1       0.711   9.545  20.076  0.00  0.00    +0.000 A 
ATOM     14 BR   UNL     1       0.974   9.556  18.197  0.00  0.00    +0.000 Br
ENDBRANCH   4   7
BRANCH   1  15
ATOM     15  C   UNL     1       3.009   4.235  19.665  0.00  0.00    +0.000 C 
BRANCH  15  16
ATOM     16  C   UNL     1       2.870   3.758  18.192  0.00  0.00    +0.000 C 
ATOM     17  C   UNL     1       1.489   4.120  17.617  0.00  0.00    +0.000 C 
ATOM     18  C   UNL     1       3.036   2.224  18.166  0.00  0.00    +0.000 C 
BRANCH  16  21
ATOM     19  C   UNL     1       6.007   3.978  16.014  0.00  0.00    +0.000 C 
ATOM     20  N   UNL     1       4.926   3.513  16.845  0.00  0.00    +0.000 N 
ATOM     21  C   UNL     1       3.981   4.392  17.336  0.00  0.00    +0.000 C 
ATOM     22  O   UNL     1       4.050   5.599  17.109  0.00  0.00    +0.000 OA
ATOM     23  H   UNL     1       4.862   2.525  17.049  0.00  0.00    +0.000 HD
ENDBRANCH  16  21
ENDBRANCH  15  16
ENDBRANCH   1  15
TORSDOF 4
ENDMDL
MODEL 2
REMARK VINA RESULT:      -6.6      3.248      6.252
REMARK  Name = 
REMARK  8 active torsions:
REMARK  status: ('A' for Active; 'I' for Inactive)
REMARK    1  A    between atoms: C_1  and  N_2
REMARK    2  A    between atoms: C_3  and  C_5
REMARK    3  A    between atoms: C_5  and  C_6
REMARK    4  A    between atoms: C_5  and  C_7
REMARK    5  A    between atoms: C_5  and  C_8
REMARK    6  A    between atoms: C_8  and  N_9
REMARK    7  A    between atoms: N_12  and  C_13
REMARK    8  A    between atoms: C_16  and  C_17
REMARK                            x       y       z     vdW  Elec       q    Type
REMARK                         _______ _______ _______ _____ _____    ______ ____
ROOT
ATOM      1  N   UNL     1       4.213   2.647  18.302  0.00  0.00    +0.000 N 
ATOM      2  C   UNL     1       4.875   3.791  18.679  0.00  0.00    +0.000 C 
ATOM      3  O   UNL     1       4.563   4.384  19.710  0.00  0.00    +0.000 OA
ATOM      4  N   UNL     1       5.809   4.195  17.764  0.00  0.00    +0.000 N 
ATOM      5  H   UNL     1       4.685   2.000  17.690  0.00  0.00    +0.000 HD
ATOM      6  H   UNL     1       5.744   3.806  16.835  0.00  0.00    +0.000 HD
ENDROOT
BRANCH   4   7
ATOM      7  C   UNL     1       6.597   5.349  17.921  0.00  0.00    +0.000 A 
ATOM      8  N   UNL     1       7.520   5.378  18.906  0.00  0.00    +0.000 NA
ATOM      9  C   UNL     1       8.224   6.506  19.109  0.00  0.00    +0.000 A 
ATOM     10  C   UNL     1       8.080   7.649  18.342  0.00  0.00    +0.000 A 
ATOM     11  C   UNL     1       8.879   8.879  18.627  0.00  0.00    +0.000 C 
ATOM     12  C   UNL     1       7.154   7.607  17.297  0.00  0.00    +0.000 A 
ATOM     13  C   UNL     1       6.406   6.445  17.080  0.00  0.00    +0.000 A 
ATOM     14 BR   UNL     1       5.138   6.434  15.668  0.00  0.00    +0.000 Br
ENDBRANCH   4   7
BRANCH   1  15
ATOM     15  C   UNL     1       3.089   2.146  19.082  0.00  0.00    +0.000 C 
BRANCH  15  16
ATOM     16  C   UNL     1       1.749   2.900  18.851  0.00  0.00    +0.000 C 
ATOM     17  C   UNL     1       0.572   1.917  18.724  0.00  0.00    +0.000 C 
ATOM     18  C   UNL     1       1.871   3.706  17.539  0.00  0.00    +0.000 C 
BRANCH  16  21
ATOM     19  C   UNL     1       1.616   6.213  20.757  0.00  0.00    +0.000 C 
ATOM     20  N   UNL     1       1.822   5.196  19.758  0.00  0.00    +0.000 N 
ATOM     21  C   UNL     1       1.498   3.878  20.012  0.00  0.00    +0.000 C 
ATOM     22  O   UNL     1       1.058   3.526  21.105  0.00  0.00    +0.000 OA
ATOM     23  H   UNL     1       2.194   5.468  18.858  0.00  0.00    +0.000 HD
ENDBRANCH  16  21
ENDBRANCH  15  16
ENDBRANCH   1  15
TORSDOF 4
ENDMDL
MODEL 3
REMARK VINA RESULT:      -6.5      1.043      1.256
REMARK  Name = 
REMARK  8 active torsions:
REMARK  status: ('A' for Active; 'I' for Inactive)
REMARK    1  A    between atoms: C_1  and  N_2
REMARK    2  A    between atoms: C_3  and  C_5
REMARK    3  A    between atoms: C_5  and  C_6
REMARK    4  A    between atoms: C_5  and  C_7
REMARK    5  A    between atoms: C_5  and  C_8
REMARK    6  A    between atoms: C_8  and  N_9
REMARK    7  A    between atoms: N_12  and  C_13
REMARK    8  A    between atoms: C_16  and  C_17
REMARK                            x       y       z     vdW  Elec       q    Type
REMARK                         _______ _______ _______ _____ _____    ______ ____
ROOT
ATOM      1  N   UNL     1       2.816   5.274  19.373  0.00  0.00    +0.000 N 
ATOM      2  C   UNL     1       1.946   6.059  20.090  0.00  0.00    +0.000 C 
ATOM      3  O   UNL     1       0.972   5.561  20.653  0.00  0.00    +0.000 OA
ATOM      4  N   UNL     1       2.247   7.392  20.022  0.00  0.00    +0.000 N 
ATOM      5  H   UNL     1       3.757   5.609  19.229  0.00  0.00    +0.000 HD
ATOM      6  H   UNL     1       2.870   7.689  19.285  0.00  0.00    +0.000 HD
ENDROOT
BRANCH   4   7
ATOM      7  C   UNL     1       1.488   8.391  20.659  0.00  0.00    +0.000 A 
ATOM      8  N   UNL     1       1.293   8.310  21.992  0.00  0.00    +0.000 NA
ATOM      9  C   UNL     1       0.505   9.219  22.594  0.00  0.00    +0.000 A 
ATOM     10  C   UNL     1      -0.106  10.267  21.927  0.00  0.00    +0.000 A 
ATOM     11  C   UNL     1      -0.986  11.236  22.647  0.00  0.00    +0.000 C 
ATOM     12  C   UNL     1       0.127  10.375  20.553  0.00  0.00    +0.000 A 
ATOM     13  C   UNL     1       0.935   9.431  19.911  0.00  0.00    +0.000 A 
ATOM     14 BR   UNL     1       1.208   9.595  18.041  0.00  0.00    +0.000 Br
ENDBRANCH   4   7
BRANCH   1  15
ATOM     15  C   UNL     1       2.573   3.847  19.213  0.00  0.00    +0.000 C 
BRANCH  15  16
ATOM     16  C   UNL     1       3.822   3.015  18.806  0.00  0.00    +0.000 C 
ATOM     17  C   UNL     1       3.424   1.786  17.971  0.00  0.00    +0.000 C 
ATOM     18  C   UNL     1       4.523   2.538  20.096  0.00  0.00    +0.000 C 
BRANCH  16  21
ATOM     19  C   UNL     1       7.122   4.649  17.771  0.00  0.00    +0.000 C 
ATOM     20  N   UNL     1       6.108   3.878  18.443  0.00  0.00    +0.000 N 
ATOM     21  C   UNL     1       4.797   3.901  18.011  0.00  0.00    +0.000 C 
ATOM     22  O   UNL     1       4.448   4.604  17.064  0.00  0.00    +0.000 OA
ATOM     23  H   UNL     1       6.377   3.304  19.231  0.00  0.00    +0.000 HD
ENDBRANCH  16  21
ENDBRANCH  15  16
ENDBRANCH   1  15
TORSDOF 4
ENDMDL
MODEL 4
REMARK VINA RESULT:      -6.4      3.928      5.995
REMARK  Name = 
REMARK  8 active torsions:
REMARK  status: ('A' for Active; 'I' for Inactive)
REMARK    1  A    between atoms: C_1  and  N_2
REMARK    2  A    between atoms: C_3  and  C_5
REMARK    3  A    between atoms: C_5  and  C_6
REMARK    4  A    between atoms: C_5  and  C_7
REMARK    5  A    between atoms: C_5  and  C_8
REMARK    6  A    between atoms: C_8  and  N_9
REMARK    7  A    between atoms: N_12  and  C_13
REMARK    8  A    between atoms: C_16  and  C_17
REMARK                            x       y       z     vdW  Elec       q    Type
REMARK                         _______ _______ _______ _____ _____    ______ ____
ROOT
ATOM      1  N   UNL     1       4.426   2.800  18.819  0.00  0.00    +0.000 N 
ATOM      2  C   UNL     1       5.067   3.992  19.058  0.00  0.00    +0.000 C 
ATOM      3  O   UNL     1       4.800   4.658  20.057  0.00  0.00    +0.000 OA
ATOM      4  N   UNL     1       5.923   4.350  18.053  0.00  0.00    +0.000 N 
ATOM      5  H   UNL     1       4.882   2.120  18.230  0.00  0.00    +0.000 HD
ATOM      6  H   UNL     1       5.813   3.884  17.163  0.00  0.00    +0.000 HD
ENDROOT
BRANCH   4   7
ATOM      7  C   UNL     1       6.676   5.539  18.063  0.00  0.00    +0.000 A 
ATOM      8  N   UNL     1       7.598   5.716  19.032  0.00  0.00    +0.000 NA
ATOM      9  C   UNL     1       8.267   6.882  19.092  0.00  0.00    +0.000 A 
ATOM     10  C   UNL     1       8.087   7.917  18.191  0.00  0.00    +0.000 A 
ATOM     11  C   UNL     1       8.847   9.197  18.320  0.00  0.00    +0.000 C 
ATOM     12  C   UNL     1       7.161   7.719  17.164  0.00  0.00    +0.000 A 
ATOM     13  C   UNL     1       6.449   6.517  17.094  0.00  0.00    +0.000 A 
ATOM     14 BR   UNL     1       5.182   6.293  15.701  0.00  0.00    +0.000 Br
ENDBRANCH   4   7
BRANCH   1  15
ATOM     15  C   UNL     1       3.375   2.328  19.711  0.00  0.00    +0.000 C 
BRANCH  15  16
ATOM     16  C   UNL     1       1.964   2.914  19.421  0.00  0.00    +0.000 C 
ATOM     17  C   UNL     1       1.301   3.434  20.708  0.00  0.00    +0.000 C 
ATOM     18  C   UNL     1       1.090   1.788  18.828  0.00  0.00    +0.000 C 
BRANCH  16  21
ATOM     19  C   UNL     1       2.280   6.473  18.054  0.00  0.00    +0.000 C 
ATOM     20  N   UNL     1       2.152   5.324  18.914  0.00  0.00    +0.000 N 
ATOM     21  C   UNL     1       2.078   4.049  18.389  0.00  0.00    +0.000 C 
ATOM     22  O   UNL     1       2.084   3.857  17.174  0.00  0.00    +0.000 OA
ATOM     23  H   UNL     1       2.133   5.467  19.916  0.00  0.00    +0.000 HD
ENDBRANCH  16  21
ENDBRANCH  15  16
ENDBRANCH   1  15
TORSDOF 4
ENDMDL
MODEL 5
REMARK VINA RESULT:      -6.4      7.417      8.343
REMARK  Name = 
REMARK  8 active torsions:
REMARK  status: ('A' for Active; 'I' for Inactive)
REMARK    1  A    between atoms: C_1  and  N_2
REMARK    2  A    between atoms: C_3  and  C_5
REMARK    3  A    between atoms: C_5  and  C_6
REMARK    4  A    between atoms: C_5  and  C_7
REMARK    5  A    between atoms: C_5  and  C_8
REMARK    6  A    between atoms: C_8  and  N_9
REMARK    7  A    between atoms: N_12  and  C_13
REMARK    8  A    between atoms: C_16  and  C_17
REMARK                            x       y       z     vdW  Elec       q    Type
REMARK                         _______ _______ _______ _____ _____    ______ ____
ROOT
ATOM      1  N   UNL     1       8.357   8.290  18.557  0.00  0.00    +0.000 N 
ATOM      2  C   UNL     1       8.696   9.620  18.494  0.00  0.00    +0.000 C 
ATOM      3  O   UNL     1       8.232  10.343  17.613  0.00  0.00    +0.000 OA
ATOM      4  N   UNL     1       9.623   9.981  19.433  0.00  0.00    +0.000 N 
ATOM      5  H   UNL     1       8.443   7.815  19.443  0.00  0.00    +0.000 HD
ATOM      6  H   UNL     1      10.144   9.240  19.878  0.00  0.00    +0.000 HD
ENDROOT
BRANCH   4   7
ATOM      7  C   UNL     1      10.138  11.285  19.550  0.00  0.00    +0.000 A 
ATOM      8  N   UNL     1      10.988  11.736  18.603  0.00  0.00    +0.000 NA
ATOM      9  C   UNL     1      11.543  12.953  18.749  0.00  0.00    +0.000 A 
ATOM     10  C   UNL     1      11.273  13.797  19.811  0.00  0.00    +0.000 A 
ATOM     11  C   UNL     1      11.935  15.132  19.928  0.00  0.00    +0.000 C 
ATOM     12  C   UNL     1      10.363  13.348  20.771  0.00  0.00    +0.000 A 
ATOM     13  C   UNL     1       9.785  12.081  20.640  0.00  0.00    +0.000 A 
ATOM     14 BR   UNL     1       8.575  11.494  21.977  0.00  0.00    +0.000 Br
ENDBRANCH   4   7
BRANCH   1  15
ATOM     15  C   UNL     1       7.491   7.693  17.549  0.00  0.00    +0.000 C 
BRANCH  15  16
ATOM     16  C   UNL     1       6.971   6.270  17.897  0.00  0.00    +0.000 C 
ATOM     17  C   UNL     1       5.458   6.284  18.177  0.00  0.00    +0.000 C 
ATOM     18  C   UNL     1       7.709   5.785  19.164  0.00  0.00    +0.000 C 
BRANCH  16  21
ATOM     19  C   UNL     1       6.906   4.791  14.371  0.00  0.00    +0.000 C 
ATOM     20  N   UNL     1       6.677   5.605  15.537  0.00  0.00    +0.000 N 
ATOM     21  C   UNL     1       7.286   5.307  16.740  0.00  0.00    +0.000 C 
ATOM     22  O   UNL     1       8.012   4.321  16.863  0.00  0.00    +0.000 OA
ATOM     23  H   UNL     1       6.073   6.412  15.455  0.00  0.00    +0.000 HD
ENDBRANCH  16  21
ENDBRANCH  15  16
ENDBRANCH   1  15
TORSDOF 4
ENDMDL
MODEL 6
REMARK VINA RESULT:      -6.3      1.437      1.555
REMARK  Name = 
REMARK  8 active torsions:
REMARK  status: ('A' for Active; 'I' for Inactive)
REMARK    1  A    between atoms: C_1  and  N_2
REMARK    2  A    between atoms: C_3  and  C_5
REMARK    3  A    between atoms: C_5  and  C_6
REMARK    4  A    between atoms: C_5  and  C_7
REMARK    5  A    between atoms: C_5  and  C_8
REMARK    6  A    between atoms: C_8  and  N_9
REMARK    7  A    between atoms: N_12  and  C_13
REMARK    8  A    between atoms: C_16  and  C_17
REMARK                            x       y       z     vdW  Elec       q    Type
REMARK                         _______ _______ _______ _____ _____    ______ ____
ROOT
ATOM      1  N   UNL     1       3.022   4.618  20.428  0.00  0.00    +0.000 N 
ATOM      2  C   UNL     1       2.026   5.553  20.281  0.00  0.00    +0.000 C 
ATOM      3  O   UNL     1       0.907   5.221  19.893  0.00  0.00    +0.000 OA
ATOM      4  N   UNL     1       2.449   6.830  20.531  0.00  0.00    +0.000 N 
ATOM      5  H   UNL     1       3.782   4.822  21.059  0.00  0.00    +0.000 HD
ATOM      6  H   UNL     1       3.446   6.995  20.531  0.00  0.00    +0.000 HD
ENDROOT
BRANCH   4   7
ATOM      7  C   UNL     1       1.614   7.957  20.426  0.00  0.00    +0.000 A 
ATOM      8  N   UNL     1       0.846   8.298  21.482  0.00  0.00    +0.000 NA
ATOM      9  C   UNL     1      -0.010   9.330  21.361  0.00  0.00    +0.000 A 
ATOM     10  C   UNL     1      -0.135  10.093  20.214  0.00  0.00    +0.000 A 
ATOM     11  C   UNL     1      -1.117  11.216  20.134  0.00  0.00    +0.000 C 
ATOM     12  C   UNL     1       0.688   9.765  19.133  0.00  0.00    +0.000 A 
ATOM     13  C   UNL     1       1.576   8.689  19.239  0.00  0.00    +0.000 A 
ATOM     14 BR   UNL     1       2.659   8.258  17.743  0.00  0.00    +0.000 Br
ENDBRANCH   4   7
BRANCH   1  15
ATOM     15  C   UNL     1       2.794   3.225  20.069  0.00  0.00    +0.000 C 
BRANCH  15  16
ATOM     16  C   UNL     1       3.315   2.822  18.661  0.00  0.00    +0.000 C 
ATOM     17  C   UNL     1       2.200   2.921  17.605  0.00  0.00    +0.000 C 
ATOM     18  C   UNL     1       3.808   1.360  18.732  0.00  0.00    +0.000 C 
BRANCH  16  21
ATOM     19  C   UNL     1       5.393   5.278  16.592  0.00  0.00    +0.000 C 
ATOM     20  N   UNL     1       4.364   4.386  17.064  0.00  0.00    +0.000 N 
ATOM     21  C   UNL     1       4.497   3.725  18.269  0.00  0.00    +0.000 C 
ATOM     22  O   UNL     1       5.508   3.850  18.959  0.00  0.00    +0.000 OA
ATOM     23  H   UNL     1       3.532   4.265  16.502  0.00  0.00    +0.000 HD
ENDBRANCH  16  21
ENDBRANCH  15  16
ENDBRANCH   1  15
TORSDOF 4
ENDMDL
MODEL 7
REMARK VINA RESULT:      -6.2      7.140      7.895
REMARK  Name = 
REMARK  8 active torsions:
REMARK  status: ('A' for Active; 'I' for Inactive)
REMARK    1  A    between atoms: C_1  and  N_2
REMARK    2  A    between atoms: C_3  and  C_5
REMARK    3  A    between atoms: C_5  and  C_6
REMARK    4  A    between atoms: C_5  and  C_7
REMARK    5  A    between atoms: C_5  and  C_8
REMARK    6  A    between atoms: C_8  and  N_9
REMARK    7  A    between atoms: N_12  and  C_13
REMARK    8  A    between atoms: C_16  and  C_17
REMARK                            x       y       z     vdW  Elec       q    Type
REMARK                         _______ _______ _______ _____ _____    ______ ____
ROOT
ATOM      1  N   UNL     1       8.508   8.247  18.387  0.00  0.00    +0.000 N 
ATOM      2  C   UNL     1       8.561   9.585  18.696  0.00  0.00    +0.000 C 
ATOM      3  O   UNL     1       7.903  10.402  18.055  0.00  0.00    +0.000 OA
ATOM      4  N   UNL     1       9.452   9.869  19.695  0.00  0.00    +0.000 N 
ATOM      5  H   UNL     1       8.747   7.580  19.104  0.00  0.00    +0.000 HD
ATOM      6  H   UNL     1      10.143   9.165  19.912  0.00  0.00    +0.000 HD
ENDROOT
BRANCH   4   7
ATOM      7  C   UNL     1       9.695  11.171  20.168  0.00  0.00    +0.000 A 
ATOM      8  N   UNL     1       9.067  11.583  21.290  0.00  0.00    +0.000 NA
ATOM      9  C   UNL     1       9.236  12.852  21.705  0.00  0.00    +0.000 A 
ATOM     10  C   UNL     1      10.048  13.768  21.062  0.00  0.00    +0.000 A 
ATOM     11  C   UNL     1      10.183  15.170  21.561  0.00  0.00    +0.000 C 
ATOM     12  C   UNL     1      10.730  13.331  19.923  0.00  0.00    +0.000 A 
ATOM     13  C   UNL     1      10.557  12.019  19.472  0.00  0.00    +0.000 A 
ATOM     14 BR   UNL     1      11.478  11.469  17.907  0.00  0.00    +0.000 Br
ENDBRANCH   4   7
BRANCH   1  15
ATOM     15  C   UNL     1       7.720   7.774  17.257  0.00  0.00    +0.000 C 
BRANCH  15  16
ATOM     16  C   UNL     1       6.903   6.480  17.529  0.00  0.00    +0.000 C 
ATOM     17  C   UNL     1       5.392   6.772  17.558  0.00  0.00    +0.000 C 
ATOM     18  C   UNL     1       7.331   5.921  18.903  0.00  0.00    +0.000 C 
BRANCH  16  21
ATOM     19  C   UNL     1       6.841   4.741  14.122  0.00  0.00    +0.000 C 
ATOM     20  N   UNL     1       6.612   5.641  15.224  0.00  0.00    +0.000 N 
ATOM     21  C   UNL     1       7.218   5.433  16.447  0.00  0.00    +0.000 C 
ATOM     22  O   UNL     1       7.943   4.458  16.644  0.00  0.00    +0.000 OA
ATOM     23  H   UNL     1       6.009   6.440  15.081  0.00  0.00    +0.000 HD
ENDBRANCH  16  21
ENDBRANCH  15  16
ENDBRANCH   1  15
TORSDOF 4
ENDMDL
MODEL 8
REMARK VINA RESULT:      -6.2      3.765      7.393
REMARK  Name = 
REMARK  8 active torsions:
REMARK  status: ('A' for Active; 'I' for Inactive)
REMARK    1  A    between atoms: C_1  and  N_2
REMARK    2  A    between atoms: C_3  and  C_5
REMARK    3  A    between atoms: C_5  and  C_6
REMARK    4  A    between atoms: C_5  and  C_7
REMARK    5  A    between atoms: C_5  and  C_8
REMARK    6  A    between atoms: C_8  and  N_9
REMARK    7  A    between atoms: N_12  and  C_13
REMARK    8  A    between atoms: C_16  and  C_17
REMARK                            x       y       z     vdW  Elec       q    Type
REMARK                         _______ _______ _______ _____ _____    ______ ____
ROOT
ATOM      1  N   UNL     1       4.281   3.069  19.368  0.00  0.00    +0.000 N 
ATOM      2  C   UNL     1       4.494   3.328  18.035  0.00  0.00    +0.000 C 
ATOM      3  O   UNL     1       3.686   2.950  17.187  0.00  0.00    +0.000 OA
ATOM      4  N   UNL     1       5.689   3.948  17.794  0.00  0.00    +0.000 N 
ATOM      5  H   UNL     1       4.729   3.663  20.049  0.00  0.00    +0.000 HD
ATOM      6  H   UNL     1       6.383   3.916  18.527  0.00  0.00    +0.000 HD
ENDROOT
BRANCH   4   7
ATOM      7  C   UNL     1       6.135   4.295  16.506  0.00  0.00    +0.000 A 
ATOM      8  N   UNL     1       5.834   3.481  15.472  0.00  0.00    +0.000 NA
ATOM      9  C   UNL     1       6.322   3.767  14.251  0.00  0.00    +0.000 A 
ATOM     10  C   UNL     1       7.102   4.877  13.977  0.00  0.00    +0.000 A 
ATOM     11  C   UNL     1       7.630   5.133  12.603  0.00  0.00    +0.000 C 
ATOM     12  C   UNL     1       7.381   5.742  15.039  0.00  0.00    +0.000 A 
ATOM     13  C   UNL     1       6.891   5.453  16.316  0.00  0.00    +0.000 A 
ATOM     14 BR   UNL     1       7.312   6.635  17.738  0.00  0.00    +0.000 Br
ENDBRANCH   4   7
BRANCH   1  15
ATOM     15  C   UNL     1       3.129   2.290  19.801  0.00  0.00    +0.000 C 
BRANCH  15  16
ATOM     16  C   UNL     1       1.862   3.130  20.129  0.00  0.00    +0.000 C 
ATOM     17  C   UNL     1       1.343   2.823  21.545  0.00  0.00    +0.000 C 
ATOM     18  C   UNL     1       0.766   2.766  19.105  0.00  0.00    +0.000 C 
BRANCH  16  21
ATOM     19  C   UNL     1       2.243   6.567  18.495  0.00  0.00    +0.000 C 
ATOM     20  N   UNL     1       1.994   5.170  18.744  0.00  0.00    +0.000 N 
ATOM     21  C   UNL     1       2.186   4.628  19.999  0.00  0.00    +0.000 C 
ATOM     22  O   UNL     1       2.607   5.310  20.932  0.00  0.00    +0.000 OA
ATOM     23  H   UNL     1       1.658   4.594  17.983  0.00  0.00    +0.000 HD
ENDBRANCH  16  21
ENDBRANCH  15  16
ENDBRANCH   1  15
TORSDOF 4
ENDMDL
MODEL 9
REMARK VINA RESULT:      -6.1      2.575      7.832
REMARK  Name = 
REMARK  8 active torsions:
REMARK  status: ('A' for Active; 'I' for Inactive)
REMARK    1  A    between atoms: C_1  and  N_2
REMARK    2  A    between atoms: C_3  and  C_5
REMARK    3  A    between atoms: C_5  and  C_6
REMARK    4  A    between atoms: C_5  and  C_7
REMARK    5  A    between atoms: C_5  and  C_8
REMARK    6  A    between atoms: C_8  and  N_9
REMARK    7  A    between atoms: N_12  and  C_13
REMARK    8  A    between atoms: C_16  and  C_17
REMARK                            x       y       z     vdW  Elec       q    Type
REMARK                         _______ _______ _______ _____ _____    ______ ____
ROOT
ATOM      1  N   UNL     1       1.264   9.152  19.194  0.00  0.00    +0.000 N 
ATOM      2  C   UNL     1       2.041   8.490  18.274  0.00  0.00    +0.000 C 
ATOM      3  O   UNL     1       2.097   8.877  17.108  0.00  0.00    +0.000 OA
ATOM      4  N   UNL     1       2.637   7.369  18.785  0.00  0.00    +0.000 N 
ATOM      5  H   UNL     1       1.494   9.059  20.171  0.00  0.00    +0.000 HD
ATOM      6  H   UNL     1       2.263   6.999  19.647  0.00  0.00    +0.000 HD
ENDROOT
BRANCH   4   7
ATOM      7  C   UNL     1       3.463   6.519  18.028  0.00  0.00    +0.000 A 
ATOM      8  N   UNL     1       4.521   7.049  17.379  0.00  0.00    +0.000 NA
ATOM      9  C   UNL     1       5.271   6.254  16.592  0.00  0.00    +0.000 A 
ATOM     10  C   UNL     1       5.039   4.900  16.426  0.00  0.00    +0.000 A 
ATOM     11  C   UNL     1       5.895   4.072  15.524  0.00  0.00    +0.000 C 
ATOM     12  C   UNL     1       3.967   4.343  17.128  0.00  0.00    +0.000 A 
ATOM     13  C   UNL     1       3.172   5.157  17.942  0.00  0.00    +0.000 A 
ATOM     14 BR   UNL     1       1.710   4.371  18.859  0.00  0.00    +0.000 Br
ENDBRANCH   4   7
BRANCH   1  15
ATOM     15  C   UNL     1       0.442  10.287  18.795  0.00  0.00    +0.000 C 
BRANCH  15  16
ATOM     16  C   UNL     1       0.386  11.445  19.830  0.00  0.00    +0.000 C 
ATOM     17  C   UNL     1      -0.859  12.324  19.615  0.00  0.00    +0.000 C 
ATOM     18  C   UNL     1       1.649  12.314  19.648  0.00  0.00    +0.000 C 
BRANCH  16  21
ATOM     19  C   UNL     1      -0.974  10.362  23.238  0.00  0.00    +0.000 C 
ATOM     20  N   UNL     1      -0.834  10.891  21.905  0.00  0.00    +0.000 N 
ATOM     21  C   UNL     1       0.384  10.866  21.256  0.00  0.00    +0.000 C 
ATOM     22  O   UNL     1       1.392  10.423  21.804  0.00  0.00    +0.000 OA
ATOM     23  H   UNL     1      -1.652  11.270  21.446  0.00  0.00    +0.000 HD
ENDBRANCH  16  21
ENDBRANCH  15  16
ENDBRANCH   1  15
TORSDOF 4
ENDMDL
