MODEL 1
REMARK VINA RESULT:      -5.6      0.000      0.000
REMARK  Name = 
REMARK  10 active torsions:
REMARK  status: ('A' for Active; 'I' for Inactive)
REMARK    1  A    between atoms: C_1  and  O_2
REMARK    2  A    between atoms: O_2  and  C_3
REMARK    3  A    between atoms: C_6  and  O_7
REMARK    4  A    between atoms: O_7  and  C_8
REMARK    5  A    between atoms: C_9  and  O_10
REMARK    6  A    between atoms: O_10  and  C_11
REMARK    7  A    between atoms: C_12  and  C_13
REMARK    8  A    between atoms: C_13  and  C_14
REMARK    9  A    between atoms: C_14  and  C_15
REMARK   10  A    between atoms: C_14  and  N_16
REMARK                            x       y       z     vdW  Elec       q    Type
REMARK                         _______ _______ _______ _____ _____    ______ ____
ROOT
ATOM      1  C   UNL     1       3.110   6.403  18.514  0.00  0.00    +0.000 A 
ATOM      2  C   UNL     1       2.288   6.503  19.638  0.00  0.00    +0.000 A 
ATOM      3  C   UNL     1       2.143   5.428  20.503  0.00  0.00    +0.000 A 
ATOM      4  C   UNL     1       2.817   4.228  20.257  0.00  0.00    +0.000 A 
ATOM      5  C   UNL     1       3.573   4.083  19.069  0.00  0.00    +0.000 A 
ATOM      6  C   UNL     1       3.697   5.169  18.161  0.00  0.00    +0.000 A 
ENDROOT
BRANCH   1   8
ATOM      7  C   UNL     1       2.370   8.529  17.807  0.00  0.00    +0.000 C 
ATOM      8  O   UNL     1       3.356   7.494  17.724  0.00  0.00    +0.000 OA
ENDBRANCH   1   8
BRANCH   4   9
ATOM      9  O   UNL     1       2.688   3.168  21.120  0.00  0.00    +0.000 OA
ATOM     10  C   UNL     1       1.344   2.741  21.351  0.00  0.00    +0.000 C 
ENDBRANCH   4   9
BRANCH   5  11
ATOM     11  O   UNL     1       4.230   2.938  18.686  0.00  0.00    +0.000 OA
ATOM     12  C   UNL     1       3.462   1.872  18.143  0.00  0.00    +0.000 C 
ENDBRANCH   5  11
BRANCH   6  13
ATOM     13  C   UNL     1       4.533   5.054  16.883  0.00  0.00    +0.000 C 
BRANCH  13  14
ATOM     14  C   UNL     1       6.028   5.455  16.958  0.00  0.00    +0.000 C 
ATOM     15  C   UNL     1       6.939   4.555  16.123  0.00  0.00    +0.000 C 
BRANCH  14  16
ATOM     16  N   UNL     1       6.189   6.847  16.489  0.00  0.00    +0.000 NA
ATOM     17  H   UNL     1       5.411   7.088  15.875  0.00  0.00    +0.000 HD
ATOM     18  H   UNL     1       7.027   6.907  15.912  0.00  0.00    +0.000 HD
ENDBRANCH  14  16
ENDBRANCH  13  14
ENDBRANCH   6  13
TORSDOF 6
ENDMDL
MODEL 2
REMARK VINA RESULT:      -5.5      2.058      4.293
REMARK  Name = 
REMARK  10 active torsions:
REMARK  status: ('A' for Active; 'I' for Inactive)
REMARK    1  A    between atoms: C_1  and  O_2
REMARK    2  A    between atoms: O_2  and  C_3
REMARK    3  A    between atoms: C_6  and  O_7
REMARK    4  A    between atoms: O_7  and  C_8
REMARK    5  A    between atoms: C_9  and  O_10
REMARK    6  A    between atoms: O_10  and  C_11
REMARK    7  A    between atoms: C_12  and  C_13
REMARK    8  A    between atoms: C_13  and  C_14
REMARK    9  A    between atoms: C_14  and  C_15
REMARK   10  A    between atoms: C_14  and  N_16
REMARK                            x       y       z     vdW  Elec       q    Type
REMARK                         _______ _______ _______ _____ _____    ______ ____
ROOT
ATOM      1  C   UNL     1       3.106   6.354  18.011  0.00  0.00    +0.000 A 
ATOM      2  C   UNL     1       4.320   6.727  17.434  0.00  0.00    +0.000 A 
ATOM      3  C   UNL     1       5.110   5.789  16.785  0.00  0.00    +0.000 A 
ATOM      4  C   UNL     1       4.699   4.454  16.704  0.00  0.00    +0.000 A 
ATOM      5  C   UNL     1       3.519   4.047  17.371  0.00  0.00    +0.000 A 
ATOM      6  C   UNL     1       2.723   4.997  18.067  0.00  0.00    +0.000 A 
ENDROOT
BRANCH   1   8
ATOM      7  C   UNL     1       2.223   8.535  17.833  0.00  0.00    +0.000 C 
ATOM      8  O   UNL     1       2.263   7.293  18.544  0.00  0.00    +0.000 OA
ENDBRANCH   1   8
BRANCH   4   9
ATOM      9  O   UNL     1       5.470   3.527  16.049  0.00  0.00    +0.000 OA
ATOM     10  C   UNL     1       6.185   4.031  14.919  0.00  0.00    +0.000 C 
ENDBRANCH   4   9
BRANCH   5  11
ATOM     11  O   UNL     1       3.043   2.758  17.416  0.00  0.00    +0.000 OA
ATOM     12  C   UNL     1       3.633   1.856  18.343  0.00  0.00    +0.000 C 
ENDBRANCH   5  11
BRANCH   6  13
ATOM     13  C   UNL     1       1.426   4.592  18.772  0.00  0.00    +0.000 C 
BRANCH  13  14
ATOM     14  C   UNL     1       1.437   4.519  20.320  0.00  0.00    +0.000 C 
ATOM     15  C   UNL     1       1.260   3.100  20.860  0.00  0.00    +0.000 C 
BRANCH  14  16
ATOM     16  N   UNL     1       2.715   5.057  20.830  0.00  0.00    +0.000 NA
ATOM     17  H   UNL     1       3.298   5.343  20.043  0.00  0.00    +0.000 HD
ATOM     18  H   UNL     1       3.227   4.310  21.298  0.00  0.00    +0.000 HD
ENDBRANCH  14  16
ENDBRANCH  13  14
ENDBRANCH   6  13
TORSDOF 6
ENDMDL
MODEL 3
REMARK VINA RESULT:      -5.5      1.675      2.502
REMARK  Name = 
REMARK  10 active torsions:
REMARK  status: ('A' for Active; 'I' for Inactive)
REMARK    1  A    between atoms: C_1  and  O_2
REMARK    2  A    between atoms: O_2  and  C_3
REMARK    3  A    between atoms: C_6  and  O_7
REMARK    4  A    between atoms: O_7  and  C_8
REMARK    5  A    between atoms: C_9  and  O_10
REMARK    6  A    between atoms: O_10  and  C_11
REMARK    7  A    between atoms: C_12  and  C_13
REMARK    8  A    between atoms: C_13  and  C_14
REMARK    9  A    between atoms: C_14  and  C_15
REMARK   10  A    between atoms: C_14  and  N_16
REMARK                            x       y       z     vdW  Elec       q    Type
REMARK                         _______ _______ _______ _____ _____    ______ ____
ROOT
ATOM      1  C   UNL     1       5.206   6.606  17.134  0.00  0.00    +0.000 A 
ATOM      2  C   UNL     1       4.056   7.325  17.462  0.00  0.00    +0.000 A 
ATOM      3  C   UNL     1       3.016   6.716  18.150  0.00  0.00    +0.000 A 
ATOM      4  C   UNL     1       3.107   5.370  18.521  0.00  0.00    +0.000 A 
ATOM      5  C   UNL     1       4.224   4.607  18.107  0.00  0.00    +0.000 A 
ATOM      6  C   UNL     1       5.277   5.216  17.373  0.00  0.00    +0.000 A 
ENDROOT
BRANCH   1   8
ATOM      7  C   UNL     1       7.228   7.765  17.502  0.00  0.00    +0.000 C 
ATOM      8  O   UNL     1       6.286   7.228  16.567  0.00  0.00    +0.000 OA
ENDBRANCH   1   8
BRANCH   4   9
ATOM      9  O   UNL     1       2.086   4.769  19.216  0.00  0.00    +0.000 OA
ATOM     10  C   UNL     1       2.113   4.984  20.628  0.00  0.00    +0.000 C 
ENDBRANCH   4   9
BRANCH   5  11
ATOM     11  O   UNL     1       4.400   3.267  18.356  0.00  0.00    +0.000 OA
ATOM     12  C   UNL     1       3.515   2.345  17.734  0.00  0.00    +0.000 C 
ENDBRANCH   5  11
BRANCH   6  13
ATOM     13  C   UNL     1       6.513   4.425  16.937  0.00  0.00    +0.000 C 
BRANCH  13  14
ATOM     14  C   UNL     1       6.726   4.194  15.420  0.00  0.00    +0.000 C 
ATOM     15  C   UNL     1       5.424   4.200  14.618  0.00  0.00    +0.000 C 
BRANCH  14  16
ATOM     16  N   UNL     1       7.612   5.247  14.880  0.00  0.00    +0.000 NA
ATOM     17  H   UNL     1       7.611   5.198  13.861  0.00  0.00    +0.000 HD
ATOM     18  H   UNL     1       8.571   5.054  15.167  0.00  0.00    +0.000 HD
ENDBRANCH  14  16
ENDBRANCH  13  14
ENDBRANCH   6  13
TORSDOF 6
ENDMDL
MODEL 4
REMARK VINA RESULT:      -5.4      2.144      4.283
REMARK  Name = 
REMARK  10 active torsions:
REMARK  status: ('A' for Active; 'I' for Inactive)
REMARK    1  A    between atoms: C_1  and  O_2
REMARK    2  A    between atoms: O_2  and  C_3
REMARK    3  A    between atoms: C_6  and  O_7
REMARK    4  A    between atoms: O_7  and  C_8
REMARK    5  A    between atoms: C_9  and  O_10
REMARK    6  A    between atoms: O_10  and  C_11
REMARK    7  A    between atoms: C_12  and  C_13
REMARK    8  A    between atoms: C_13  and  C_14
REMARK    9  A    between atoms: C_14  and  C_15
REMARK   10  A    between atoms: C_14  and  N_16
REMARK                            x       y       z     vdW  Elec       q    Type
REMARK                         _______ _______ _______ _____ _____    ______ ____
ROOT
ATOM      1  C   UNL     1       4.740   4.883  17.592  0.00  0.00    +0.000 A 
ATOM      2  C   UNL     1       4.477   6.137  17.039  0.00  0.00    +0.000 A 
ATOM      3  C   UNL     1       3.633   7.029  17.685  0.00  0.00    +0.000 A 
ATOM      4  C   UNL     1       3.033   6.681  18.899  0.00  0.00    +0.000 A 
ATOM      5  C   UNL     1       3.214   5.376  19.418  0.00  0.00    +0.000 A 
ATOM      6  C   UNL     1       4.049   4.446  18.742  0.00  0.00    +0.000 A 
ENDROOT
BRANCH   1   8
ATOM      7  C   UNL     1       6.906   4.670  16.681  0.00  0.00    +0.000 C 
ATOM      8  O   UNL     1       5.665   4.046  17.027  0.00  0.00    +0.000 OA
ENDBRANCH   1   8
BRANCH   4   9
ATOM      9  O   UNL     1       2.210   7.568  19.549  0.00  0.00    +0.000 OA
ATOM     10  C   UNL     1       1.789   8.683  18.762  0.00  0.00    +0.000 C 
ENDBRANCH   4   9
BRANCH   5  11
ATOM     11  O   UNL     1       2.631   4.895  20.566  0.00  0.00    +0.000 OA
ATOM     12  C   UNL     1       1.256   4.539  20.523  0.00  0.00    +0.000 C 
ENDBRANCH   5  11
BRANCH   6  13
ATOM     13  C   UNL     1       4.289   3.037  19.294  0.00  0.00    +0.000 C 
BRANCH  13  14
ATOM     14  C   UNL     1       3.337   1.907  18.828  0.00  0.00    +0.000 C 
ATOM     15  C   UNL     1       2.405   2.330  17.692  0.00  0.00    +0.000 C 
BRANCH  14  16
ATOM     16  N   UNL     1       4.133   0.748  18.372  0.00  0.00    +0.000 NA
ATOM     17  H   UNL     1       3.872   0.517  17.414  0.00  0.00    +0.000 HD
ATOM     18  H   UNL     1       3.883  -0.066  18.932  0.00  0.00    +0.000 HD
ENDBRANCH  14  16
ENDBRANCH  13  14
ENDBRANCH   6  13
TORSDOF 6
ENDMDL
MODEL 5
REMARK VINA RESULT:      -5.4      1.989      4.315
REMARK  Name = 
REMARK  10 active torsions:
REMARK  status: ('A' for Active; 'I' for Inactive)
REMARK    1  A    between atoms: C_1  and  O_2
REMARK    2  A    between atoms: O_2  and  C_3
REMARK    3  A    between atoms: C_6  and  O_7
REMARK    4  A    between atoms: O_7  and  C_8
REMARK    5  A    between atoms: C_9  and  O_10
REMARK    6  A    between atoms: O_10  and  C_11
REMARK    7  A    between atoms: C_12  and  C_13
REMARK    8  A    between atoms: C_13  and  C_14
REMARK    9  A    between atoms: C_14  and  C_15
REMARK   10  A    between atoms: C_14  and  N_16
REMARK                            x       y       z     vdW  Elec       q    Type
REMARK                         _______ _______ _______ _____ _____    ______ ____
ROOT
ATOM      1  C   UNL     1       4.132   4.043  17.458  0.00  0.00    +0.000 A 
ATOM      2  C   UNL     1       2.966   4.578  18.007  0.00  0.00    +0.000 A 
ATOM      3  C   UNL     1       2.770   5.951  18.043  0.00  0.00    +0.000 A 
ATOM      4  C   UNL     1       3.741   6.817  17.531  0.00  0.00    +0.000 A 
ATOM      5  C   UNL     1       4.968   6.290  17.063  0.00  0.00    +0.000 A 
ATOM      6  C   UNL     1       5.190   4.887  17.056  0.00  0.00    +0.000 A 
ENDROOT
BRANCH   1   8
ATOM      7  C   UNL     1       3.351   1.897  18.050  0.00  0.00    +0.000 C 
ATOM      8  O   UNL     1       4.281   2.690  17.305  0.00  0.00    +0.000 OA
ENDBRANCH   1   8
BRANCH   4   9
ATOM      9  O   UNL     1       3.542   8.176  17.551  0.00  0.00    +0.000 OA
ATOM     10  C   UNL     1       2.226   8.584  17.928  0.00  0.00    +0.000 C 
ENDBRANCH   4   9
BRANCH   5  11
ATOM     11  O   UNL     1       6.021   7.039  16.594  0.00  0.00    +0.000 OA
ATOM     12  C   UNL     1       6.997   7.485  17.526  0.00  0.00    +0.000 C 
ENDBRANCH   5  11
BRANCH   6  13
ATOM     13  C   UNL     1       6.495   4.284  16.527  0.00  0.00    +0.000 C 
BRANCH  13  14
ATOM     14  C   UNL     1       6.700   4.239  14.992  0.00  0.00    +0.000 C 
ATOM     15  C   UNL     1       5.390   4.278  14.205  0.00  0.00    +0.000 C 
BRANCH  14  16
ATOM     16  N   UNL     1       7.532   5.385  14.571  0.00  0.00    +0.000 NA
ATOM     17  H   UNL     1       7.208   6.228  15.046  0.00  0.00    +0.000 HD
ATOM     18  H   UNL     1       7.386   5.553  13.576  0.00  0.00    +0.000 HD
ENDBRANCH  14  16
ENDBRANCH  13  14
ENDBRANCH   6  13
TORSDOF 6
ENDMDL
MODEL 6
REMARK VINA RESULT:      -5.4      2.576      4.530
REMARK  Name = 
REMARK  10 active torsions:
REMARK  status: ('A' for Active; 'I' for Inactive)
REMARK    1  A    between atoms: C_1  and  O_2
REMARK    2  A    between atoms: O_2  and  C_3
REMARK    3  A    between atoms: C_6  and  O_7
REMARK    4  A    between atoms: O_7  and  C_8
REMARK    5  A    between atoms: C_9  and  O_10
REMARK    6  A    between atoms: O_10  and  C_11
REMARK    7  A    between atoms: C_12  and  C_13
REMARK    8  A    between atoms: C_13  and  C_14
REMARK    9  A    between atoms: C_14  and  C_15
REMARK   10  A    between atoms: C_14  and  N_16
REMARK                            x       y       z     vdW  Elec       q    Type
REMARK                         _______ _______ _______ _____ _____    ______ ____
ROOT
ATOM      1  C   UNL     1       2.619   5.021  18.121  0.00  0.00    +0.000 A 
ATOM      2  C   UNL     1       2.847   6.376  18.372  0.00  0.00    +0.000 A 
ATOM      3  C   UNL     1       3.964   7.011  17.850  0.00  0.00    +0.000 A 
ATOM      4  C   UNL     1       4.879   6.300  17.067  0.00  0.00    +0.000 A 
ATOM      5  C   UNL     1       4.710   4.906  16.888  0.00  0.00    +0.000 A 
ATOM      6  C   UNL     1       3.586   4.242  17.450  0.00  0.00    +0.000 A 
ENDROOT
BRANCH   1   8
ATOM      7  C   UNL     1       1.183   4.528  19.927  0.00  0.00    +0.000 C 
ATOM      8  O   UNL     1       1.459   4.417  18.527  0.00  0.00    +0.000 OA
ENDBRANCH   1   8
BRANCH   4   9
ATOM      9  O   UNL     1       5.978   6.930  16.536  0.00  0.00    +0.000 OA
ATOM     10  C   UNL     1       7.077   7.082  17.436  0.00  0.00    +0.000 C 
ENDBRANCH   4   9
BRANCH   5  11
ATOM     11  O   UNL     1       5.569   4.089  16.193  0.00  0.00    +0.000 OA
ATOM     12  C   UNL     1       5.688   4.277  14.790  0.00  0.00    +0.000 C 
ENDBRANCH   5  11
BRANCH   6  13
ATOM     13  C   UNL     1       3.358   2.742  17.249  0.00  0.00    +0.000 C 
BRANCH  13  14
ATOM     14  C   UNL     1       3.525   1.815  18.479  0.00  0.00    +0.000 C 
ATOM     15  C   UNL     1       4.261   2.480  19.643  0.00  0.00    +0.000 C 
BRANCH  14  16
ATOM     16  N   UNL     1       2.194   1.382  18.955  0.00  0.00    +0.000 NA
ATOM     17  H   UNL     1       1.482   2.005  18.575  0.00  0.00    +0.000 HD
ATOM     18  H   UNL     1       2.151   1.495  19.967  0.00  0.00    +0.000 HD
ENDBRANCH  14  16
ENDBRANCH  13  14
ENDBRANCH   6  13
TORSDOF 6
ENDMDL
MODEL 7
REMARK VINA RESULT:      -5.3      2.046      5.323
REMARK  Name = 
REMARK  10 active torsions:
REMARK  status: ('A' for Active; 'I' for Inactive)
REMARK    1  A    between atoms: C_1  and  O_2
REMARK    2  A    between atoms: O_2  and  C_3
REMARK    3  A    between atoms: C_6  and  O_7
REMARK    4  A    between atoms: O_7  and  C_8
REMARK    5  A    between atoms: C_9  and  O_10
REMARK    6  A    between atoms: O_10  and  C_11
REMARK    7  A    between atoms: C_12  and  C_13
REMARK    8  A    between atoms: C_13  and  C_14
REMARK    9  A    between atoms: C_14  and  C_15
REMARK   10  A    between atoms: C_14  and  N_16
REMARK                            x       y       z     vdW  Elec       q    Type
REMARK                         _______ _______ _______ _____ _____    ______ ____
ROOT
ATOM      1  C   UNL     1       3.493   3.669  17.428  0.00  0.00    +0.000 A 
ATOM      2  C   UNL     1       4.708   3.724  16.744  0.00  0.00    +0.000 A 
ATOM      3  C   UNL     1       5.439   4.903  16.699  0.00  0.00    +0.000 A 
ATOM      4  C   UNL     1       4.965   6.052  17.339  0.00  0.00    +0.000 A 
ATOM      5  C   UNL     1       3.689   6.034  17.951  0.00  0.00    +0.000 A 
ATOM      6  C   UNL     1       2.920   4.839  17.970  0.00  0.00    +0.000 A 
ENDROOT
BRANCH   1   8
ATOM      7  C   UNL     1       3.500   1.518  18.399  0.00  0.00    +0.000 C 
ATOM      8  O   UNL     1       2.827   2.482  17.582  0.00  0.00    +0.000 OA
ENDBRANCH   1   8
BRANCH   4   9
ATOM      9  O   UNL     1       5.694   7.216  17.310  0.00  0.00    +0.000 OA
ATOM     10  C   UNL     1       7.109   7.040  17.410  0.00  0.00    +0.000 C 
ENDBRANCH   4   9
BRANCH   5  11
ATOM     11  O   UNL     1       3.089   7.112  18.558  0.00  0.00    +0.000 OA
ATOM     12  C   UNL     1       2.526   8.121  17.730  0.00  0.00    +0.000 C 
ENDBRANCH   5  11
BRANCH   6  13
ATOM     13  C   UNL     1       1.549   4.779  18.651  0.00  0.00    +0.000 C 
BRANCH  13  14
ATOM     14  C   UNL     1       1.515   4.615  20.191  0.00  0.00    +0.000 C 
ATOM     15  C   UNL     1       1.143   3.202  20.641  0.00  0.00    +0.000 C 
BRANCH  14  16
ATOM     16  N   UNL     1       2.839   4.951  20.753  0.00  0.00    +0.000 NA
ATOM     17  H   UNL     1       3.556   4.401  20.278  0.00  0.00    +0.000 HD
ATOM     18  H   UNL     1       2.869   4.661  21.730  0.00  0.00    +0.000 HD
ENDBRANCH  14  16
ENDBRANCH  13  14
ENDBRANCH   6  13
TORSDOF 6
ENDMDL
MODEL 8
REMARK VINA RESULT:      -5.3      2.503      3.178
REMARK  Name = 
REMARK  10 active torsions:
REMARK  status: ('A' for Active; 'I' for Inactive)
REMARK    1  A    between atoms: C_1  and  O_2
REMARK    2  A    between atoms: O_2  and  C_3
REMARK    3  A    between atoms: C_6  and  O_7
REMARK    4  A    between atoms: O_7  and  C_8
REMARK    5  A    between atoms: C_9  and  O_10
REMARK    6  A    between atoms: O_10  and  C_11
REMARK    7  A    between atoms: C_12  and  C_13
REMARK    8  A    between atoms: C_13  and  C_14
REMARK    9  A    between atoms: C_14  and  C_15
REMARK   10  A    between atoms: C_14  and  N_16
REMARK                            x       y       z     vdW  Elec       q    Type
REMARK                         _______ _______ _______ _____ _____    ______ ____
ROOT
ATOM      1  C   UNL     1       6.528   5.938  17.465  0.00  0.00    +0.000 A 
ATOM      2  C   UNL     1       6.574   5.924  18.860  0.00  0.00    +0.000 A 
ATOM      3  C   UNL     1       5.843   4.990  19.580  0.00  0.00    +0.000 A 
ATOM      4  C   UNL     1       5.047   4.052  18.916  0.00  0.00    +0.000 A 
ATOM      5  C   UNL     1       4.915   4.121  17.508  0.00  0.00    +0.000 A 
ATOM      6  C   UNL     1       5.634   5.097  16.768  0.00  0.00    +0.000 A 
ENDROOT
BRANCH   1   8
ATOM      7  C   UNL     1       7.744   7.960  17.435  0.00  0.00    +0.000 C 
ATOM      8  O   UNL     1       7.339   6.773  16.744  0.00  0.00    +0.000 OA
ENDBRANCH   1   8
BRANCH   4   9
ATOM      9  O   UNL     1       4.335   3.116  19.625  0.00  0.00    +0.000 OA
ATOM     10  C   UNL     1       3.246   3.642  20.388  0.00  0.00    +0.000 C 
ENDBRANCH   4   9
BRANCH   5  11
ATOM     11  O   UNL     1       4.119   3.297  16.749  0.00  0.00    +0.000 OA
ATOM     12  C   UNL     1       2.709   3.419  16.878  0.00  0.00    +0.000 C 
ENDBRANCH   5  11
BRANCH   6  13
ATOM     13  C   UNL     1       5.537   5.178  15.241  0.00  0.00    +0.000 C 
BRANCH  13  14
ATOM     14  C   UNL     1       6.612   4.435  14.409  0.00  0.00    +0.000 C 
ATOM     15  C   UNL     1       6.051   3.766  13.154  0.00  0.00    +0.000 C 
BRANCH  14  16
ATOM     16  N   UNL     1       7.665   5.388  13.999  0.00  0.00    +0.000 NA
ATOM     17  H   UNL     1       8.022   5.870  14.824  0.00  0.00    +0.000 HD
ATOM     18  H   UNL     1       7.248   6.110  13.413  0.00  0.00    +0.000 HD
ENDBRANCH  14  16
ENDBRANCH  13  14
ENDBRANCH   6  13
TORSDOF 6
ENDMDL
MODEL 9
REMARK VINA RESULT:      -5.3      2.031      4.162
REMARK  Name = 
REMARK  10 active torsions:
REMARK  status: ('A' for Active; 'I' for Inactive)
REMARK    1  A    between atoms: C_1  and  O_2
REMARK    2  A    between atoms: O_2  and  C_3
REMARK    3  A    between atoms: C_6  and  O_7
REMARK    4  A    between atoms: O_7  and  C_8
REMARK    5  A    between atoms: C_9  and  O_10
REMARK    6  A    between atoms: O_10  and  C_11
REMARK    7  A    between atoms: C_12  and  C_13
REMARK    8  A    between atoms: C_13  and  C_14
REMARK    9  A    between atoms: C_14  and  C_15
REMARK   10  A    between atoms: C_14  and  N_16
REMARK                            x       y       z     vdW  Elec       q    Type
REMARK                         _______ _______ _______ _____ _____    ______ ____
ROOT
ATOM      1  C   UNL     1       3.011   6.534  17.927  0.00  0.00    +0.000 A 
ATOM      2  C   UNL     1       4.195   7.125  17.482  0.00  0.00    +0.000 A 
ATOM      3  C   UNL     1       5.315   6.349  17.223  0.00  0.00    +0.000 A 
ATOM      4  C   UNL     1       5.273   4.963  17.407  0.00  0.00    +0.000 A 
ATOM      5  C   UNL     1       4.110   4.367  17.951  0.00  0.00    +0.000 A 
ATOM      6  C   UNL     1       2.971   5.162  18.252  0.00  0.00    +0.000 A 
ENDROOT
BRANCH   1   8
ATOM      7  C   UNL     1       2.047   8.688  17.940  0.00  0.00    +0.000 C 
ATOM      8  O   UNL     1       1.866   7.273  18.067  0.00  0.00    +0.000 OA
ENDBRANCH   1   8
BRANCH   4   9
ATOM      9  O   UNL     1       6.376   4.191  17.136  0.00  0.00    +0.000 OA
ATOM     10  C   UNL     1       7.590   4.646  17.737  0.00  0.00    +0.000 C 
ENDBRANCH   4   9
BRANCH   5  11
ATOM     11  O   UNL     1       3.968   3.030  18.235  0.00  0.00    +0.000 OA
ATOM     12  C   UNL     1       4.499   2.542  19.459  0.00  0.00    +0.000 C 
ENDBRANCH   5  11
BRANCH   6  13
ATOM     13  C   UNL     1       1.688   4.542  18.813  0.00  0.00    +0.000 C 
BRANCH  13  14
ATOM     14  C   UNL     1       1.422   4.683  20.333  0.00  0.00    +0.000 C 
ATOM     15  C   UNL     1       1.393   3.343  21.069  0.00  0.00    +0.000 C 
BRANCH  14  16
ATOM     16  N   UNL     1       2.472   5.527  20.941  0.00  0.00    +0.000 NA
ATOM     17  H   UNL     1       2.542   6.402  20.423  0.00  0.00    +0.000 HD
ATOM     18  H   UNL     1       3.374   5.065  20.831  0.00  0.00    +0.000 HD
ENDBRANCH  14  16
ENDBRANCH  13  14
ENDBRANCH   6  13
TORSDOF 6
ENDMDL
