MODEL 1
REMARK VINA RESULT:      -7.0      0.000      0.000
REMARK  Name = 
REMARK  2 active torsions:
REMARK  status: ('A' for Active; 'I' for Inactive)
REMARK    1  A    between atoms: C_2  and  C_3
REMARK    2  A    between atoms: C_3  and  N_4
REMARK                            x       y       z     vdW  Elec       q    Type
REMARK                         _______ _______ _______ _____ _____    ______ ____
ROOT
ATOM      1  O   UNL     1       4.122   3.302  16.571  0.00  0.00    +0.000 OA
ATOM      2  C   UNL     1       3.960   4.433  17.042  0.00  0.00    +0.000 C 
ATOM      3  N   UNL     1       3.101   4.637  18.137  0.00  0.00    +0.000 N 
ATOM      4  C   UNL     1       2.640   3.449  18.865  0.00  0.00    +0.000 C 
ATOM      5  C   UNL     1       2.924   3.586  20.350  0.00  0.00    +0.000 C 
ATOM      6  C   UNL     1       2.191   4.792  20.910  0.00  0.00    +0.000 C 
ATOM      7  C   UNL     1       2.226   5.989  19.990  0.00  0.00    +0.000 A 
ATOM      8  C   UNL     1       1.810   7.228  20.511  0.00  0.00    +0.000 A 
ATOM      9  C   UNL     1       1.760   8.360  19.702  0.00  0.00    +0.000 A 
ATOM     10  C   UNL     1       2.072   8.251  18.355  0.00  0.00    +0.000 A 
ATOM     11  C   UNL     1       2.466   7.019  17.827  0.00  0.00    +0.000 A 
ATOM     12  C   UNL     1       2.615   5.888  18.638  0.00  0.00    +0.000 A 
ENDROOT
BRANCH   2  13
ATOM     13  C   UNL     1       4.735   5.646  16.473  0.00  0.00    +0.000 C 
BRANCH  13  14
ATOM     14  N   UNL     1       6.065   5.917  17.057  0.00  0.00    +0.000 NA
ATOM     15  C   UNL     1       6.304   7.344  17.276  0.00  0.00    +0.000 C 
ATOM     16  C   UNL     1       7.760   7.592  17.675  0.00  0.00    +0.000 C 
ATOM     17  C   UNL     1       8.148   6.758  18.891  0.00  0.00    +0.000 C 
ATOM     18  C   UNL     1       7.836   5.285  18.644  0.00  0.00    +0.000 C 
ATOM     19  C   UNL     1       6.374   5.098  18.230  0.00  0.00    +0.000 C 
ENDBRANCH  13  14
ENDBRANCH   2  13
TORSDOF 2
ENDMDL
MODEL 2
REMARK VINA RESULT:      -6.9      0.559      1.214
REMARK  Name = 
REMARK  2 active torsions:
REMARK  status: ('A' for Active; 'I' for Inactive)
REMARK    1  A    between atoms: C_2  and  C_3
REMARK    2  A    between atoms: C_3  and  N_4
REMARK                            x       y       z     vdW  Elec       q    Type
REMARK                         _______ _______ _______ _____ _____    ______ ____
ROOT
ATOM      1  O   UNL     1       3.862   2.777  17.018  0.00  0.00    +0.000 OA
ATOM      2  C   UNL     1       3.776   3.958  17.374  0.00  0.00    +0.000 C 
ATOM      3  N   UNL     1       2.919   4.329  18.425  0.00  0.00    +0.000 N 
ATOM      4  C   UNL     1       2.361   3.253  19.254  0.00  0.00    +0.000 C 
ATOM      5  C   UNL     1       2.633   3.514  20.724  0.00  0.00    +0.000 C 
ATOM      6  C   UNL     1       1.983   4.819  21.150  0.00  0.00    +0.000 C 
ATOM      7  C   UNL     1       2.119   5.915  20.120  0.00  0.00    +0.000 A 
ATOM      8  C   UNL     1       1.788   7.225  20.510  0.00  0.00    +0.000 A 
ATOM      9  C   UNL     1       1.832   8.273  19.595  0.00  0.00    +0.000 A 
ATOM     10  C   UNL     1       2.155   8.011  18.271  0.00  0.00    +0.000 A 
ATOM     11  C   UNL     1       2.464   6.709  17.873  0.00  0.00    +0.000 A 
ATOM     12  C   UNL     1       2.519   5.654  18.792  0.00  0.00    +0.000 A 
ENDROOT
BRANCH   2  13
ATOM     13  C   UNL     1       4.646   5.050  16.707  0.00  0.00    +0.000 C 
BRANCH  13  14
ATOM     14  N   UNL     1       5.654   5.711  17.563  0.00  0.00    +0.000 NA
ATOM     15  C   UNL     1       6.240   4.800  18.547  0.00  0.00    +0.000 C 
ATOM     16  C   UNL     1       7.110   5.569  19.543  0.00  0.00    +0.000 C 
ATOM     17  C   UNL     1       8.173   6.392  18.825  0.00  0.00    +0.000 C 
ATOM     18  C   UNL     1       7.528   7.289  17.773  0.00  0.00    +0.000 C 
ATOM     19  C   UNL     1       6.657   6.471  16.817  0.00  0.00    +0.000 C 
ENDBRANCH  13  14
ENDBRANCH   2  13
TORSDOF 2
ENDMDL
MODEL 3
REMARK VINA RESULT:      -6.8      3.175      5.528
REMARK  Name = 
REMARK  2 active torsions:
REMARK  status: ('A' for Active; 'I' for Inactive)
REMARK    1  A    between atoms: C_2  and  C_3
REMARK    2  A    between atoms: C_3  and  N_4
REMARK                            x       y       z     vdW  Elec       q    Type
REMARK                         _______ _______ _______ _____ _____    ______ ____
ROOT
ATOM      1  O   UNL     1       2.873   7.508  18.053  0.00  0.00    +0.000 OA
ATOM      2  C   UNL     1       2.218   7.665  19.089  0.00  0.00    +0.000 C 
ATOM      3  N   UNL     1       1.469   8.838  19.292  0.00  0.00    +0.000 N 
ATOM      4  C   UNL     1       1.268   9.721  18.136  0.00  0.00    +0.000 C 
ATOM      5  C   UNL     1      -0.208  10.014  17.938  0.00  0.00    +0.000 C 
ATOM      6  C   UNL     1      -0.768  10.714  19.164  0.00  0.00    +0.000 C 
ATOM      7  C   UNL     1      -0.248  10.145  20.462  0.00  0.00    +0.000 A 
ATOM      8  C   UNL     1      -0.890  10.536  21.652  0.00  0.00    +0.000 A 
ATOM      9  C   UNL     1      -0.425  10.097  22.888  0.00  0.00    +0.000 A 
ATOM     10  C   UNL     1       0.715   9.309  22.950  0.00  0.00    +0.000 A 
ATOM     11  C   UNL     1       1.368   8.935  21.773  0.00  0.00    +0.000 A 
ATOM     12  C   UNL     1       0.868   9.284  20.513  0.00  0.00    +0.000 A 
ENDROOT
BRANCH   2  13
ATOM     13  C   UNL     1       2.163   6.556  20.167  0.00  0.00    +0.000 C 
BRANCH  13  14
ATOM     14  N   UNL     1       2.073   5.163  19.680  0.00  0.00    +0.000 NA
ATOM     15  C   UNL     1       3.382   4.518  19.575  0.00  0.00    +0.000 C 
ATOM     16  C   UNL     1       3.263   3.166  18.870  0.00  0.00    +0.000 C 
ATOM     17  C   UNL     1       2.243   2.271  19.564  0.00  0.00    +0.000 C 
ATOM     18  C   UNL     1       0.908   2.997  19.701  0.00  0.00    +0.000 C 
ATOM     19  C   UNL     1       1.090   4.349  20.395  0.00  0.00    +0.000 C 
ENDBRANCH  13  14
ENDBRANCH   2  13
TORSDOF 2
ENDMDL
MODEL 4
REMARK VINA RESULT:      -6.7      1.296      1.537
REMARK  Name = 
REMARK  2 active torsions:
REMARK  status: ('A' for Active; 'I' for Inactive)
REMARK    1  A    between atoms: C_2  and  C_3
REMARK    2  A    between atoms: C_3  and  N_4
REMARK                            x       y       z     vdW  Elec       q    Type
REMARK                         _______ _______ _______ _____ _____    ______ ____
ROOT
ATOM      1  O   UNL     1       2.994   2.171  16.868  0.00  0.00    +0.000 OA
ATOM      2  C   UNL     1       3.109   3.305  17.348  0.00  0.00    +0.000 C 
ATOM      3  N   UNL     1       2.322   3.702  18.443  0.00  0.00    +0.000 N 
ATOM      4  C   UNL     1       1.584   2.655  19.161  0.00  0.00    +0.000 C 
ATOM      5  C   UNL     1       1.889   2.708  20.647  0.00  0.00    +0.000 C 
ATOM      6  C   UNL     1       1.467   4.052  21.216  0.00  0.00    +0.000 C 
ATOM      7  C   UNL     1       1.793   5.212  20.306  0.00  0.00    +0.000 A 
ATOM      8  C   UNL     1       1.688   6.510  20.836  0.00  0.00    +0.000 A 
ATOM      9  C   UNL     1       1.915   7.627  20.036  0.00  0.00    +0.000 A 
ATOM     10  C   UNL     1       2.196   7.456  18.688  0.00  0.00    +0.000 A 
ATOM     11  C   UNL     1       2.281   6.170  18.152  0.00  0.00    +0.000 A 
ATOM     12  C   UNL     1       2.151   5.030  18.953  0.00  0.00    +0.000 A 
ENDROOT
BRANCH   2  13
ATOM     13  C   UNL     1       4.155   4.298  16.789  0.00  0.00    +0.000 C 
BRANCH  13  14
ATOM     14  N   UNL     1       5.410   4.443  17.558  0.00  0.00    +0.000 NA
ATOM     15  C   UNL     1       6.593   4.496  16.700  0.00  0.00    +0.000 C 
ATOM     16  C   UNL     1       7.871   4.429  17.538  0.00  0.00    +0.000 C 
ATOM     17  C   UNL     1       7.890   5.521  18.601  0.00  0.00    +0.000 C 
ATOM     18  C   UNL     1       6.618   5.465  19.441  0.00  0.00    +0.000 C 
ATOM     19  C   UNL     1       5.373   5.517  18.551  0.00  0.00    +0.000 C 
ENDBRANCH  13  14
ENDBRANCH   2  13
TORSDOF 2
ENDMDL
MODEL 5
REMARK VINA RESULT:      -6.5      3.431      5.687
REMARK  Name = 
REMARK  2 active torsions:
REMARK  status: ('A' for Active; 'I' for Inactive)
REMARK    1  A    between atoms: C_2  and  C_3
REMARK    2  A    between atoms: C_3  and  N_4
REMARK                            x       y       z     vdW  Elec       q    Type
REMARK                         _______ _______ _______ _____ _____    ______ ____
ROOT
ATOM      1  O   UNL     1       2.974   7.442  18.125  0.00  0.00    +0.000 OA
ATOM      2  C   UNL     1       2.283   7.608  19.137  0.00  0.00    +0.000 C 
ATOM      3  N   UNL     1       1.522   8.778  19.300  0.00  0.00    +0.000 N 
ATOM      4  C   UNL     1       1.353   9.646  18.128  0.00  0.00    +0.000 C 
ATOM      5  C   UNL     1      -0.117   9.927  17.877  0.00  0.00    +0.000 C 
ATOM      6  C   UNL     1      -0.722  10.638  19.075  0.00  0.00    +0.000 C 
ATOM      7  C   UNL     1      -0.242  10.087  20.397  0.00  0.00    +0.000 A 
ATOM      8  C   UNL     1      -0.925  10.488  21.559  0.00  0.00    +0.000 A 
ATOM      9  C   UNL     1      -0.500  10.067  22.816  0.00  0.00    +0.000 A 
ATOM     10  C   UNL     1       0.643   9.286  22.925  0.00  0.00    +0.000 A 
ATOM     11  C   UNL     1       1.337   8.903  21.775  0.00  0.00    +0.000 A 
ATOM     12  C   UNL     1       0.877   9.234  20.496  0.00  0.00    +0.000 A 
ENDROOT
BRANCH   2  13
ATOM     13  C   UNL     1       2.199   6.511  20.225  0.00  0.00    +0.000 C 
BRANCH  13  14
ATOM     14  N   UNL     1       2.078   5.115  19.752  0.00  0.00    +0.000 NA
ATOM     15  C   UNL     1       1.166   4.320  20.575  0.00  0.00    +0.000 C 
ATOM     16  C   UNL     1       1.237   2.843  20.184  0.00  0.00    +0.000 C 
ATOM     17  C   UNL     1       0.970   2.653  18.695  0.00  0.00    +0.000 C 
ATOM     18  C   UNL     1       1.903   3.537  17.873  0.00  0.00    +0.000 C 
ATOM     19  C   UNL     1       1.806   4.999  18.319  0.00  0.00    +0.000 C 
ENDBRANCH  13  14
ENDBRANCH   2  13
TORSDOF 2
ENDMDL
MODEL 6
REMARK VINA RESULT:      -6.5      1.771      2.510
REMARK  Name = 
REMARK  2 active torsions:
REMARK  status: ('A' for Active; 'I' for Inactive)
REMARK    1  A    between atoms: C_2  and  C_3
REMARK    2  A    between atoms: C_3  and  N_4
REMARK                            x       y       z     vdW  Elec       q    Type
REMARK                         _______ _______ _______ _____ _____    ______ ____
ROOT
ATOM      1  O   UNL     1       4.066   1.778  17.783  0.00  0.00    +0.000 OA
ATOM      2  C   UNL     1       4.022   2.940  18.205  0.00  0.00    +0.000 C 
ATOM      3  N   UNL     1       2.876   3.420  18.864  0.00  0.00    +0.000 N 
ATOM      4  C   UNL     1       1.871   2.433  19.278  0.00  0.00    +0.000 C 
ATOM      5  C   UNL     1       1.553   2.581  20.755  0.00  0.00    +0.000 C 
ATOM      6  C   UNL     1       0.991   3.966  21.029  0.00  0.00    +0.000 C 
ATOM      7  C   UNL     1       1.702   5.057  20.266  0.00  0.00    +0.000 A 
ATOM      8  C   UNL     1       1.444   6.390  20.636  0.00  0.00    +0.000 A 
ATOM      9  C   UNL     1       2.018   7.447  19.936  0.00  0.00    +0.000 A 
ATOM     10  C   UNL     1       2.812   7.183  18.829  0.00  0.00    +0.000 A 
ATOM     11  C   UNL     1       3.055   5.862  18.445  0.00  0.00    +0.000 A 
ATOM     12  C   UNL     1       2.567   4.781  19.187  0.00  0.00    +0.000 A 
ENDROOT
BRANCH   2  13
ATOM     13  C   UNL     1       5.244   3.878  18.063  0.00  0.00    +0.000 C 
BRANCH  13  14
ATOM     14  N   UNL     1       5.829   4.007  16.712  0.00  0.00    +0.000 NA
ATOM     15  C   UNL     1       4.818   4.248  15.682  0.00  0.00    +0.000 C 
ATOM     16  C   UNL     1       5.438   4.159  14.286  0.00  0.00    +0.000 C 
ATOM     17  C   UNL     1       6.626   5.105  14.150  0.00  0.00    +0.000 C 
ATOM     18  C   UNL     1       7.631   4.857  15.271  0.00  0.00    +0.000 C 
ATOM     19  C   UNL     1       6.954   4.940  16.641  0.00  0.00    +0.000 C 
ENDBRANCH  13  14
ENDBRANCH   2  13
TORSDOF 2
ENDMDL
MODEL 7
REMARK VINA RESULT:      -6.5      2.937      4.548
REMARK  Name = 
REMARK  2 active torsions:
REMARK  status: ('A' for Active; 'I' for Inactive)
REMARK    1  A    between atoms: C_2  and  C_3
REMARK    2  A    between atoms: C_3  and  N_4
REMARK                            x       y       z     vdW  Elec       q    Type
REMARK                         _______ _______ _______ _____ _____    ______ ____
ROOT
ATOM      1  O   UNL     1       6.793   6.305  16.537  0.00  0.00    +0.000 OA
ATOM      2  C   UNL     1       5.907   5.443  16.563  0.00  0.00    +0.000 C 
ATOM      3  N   UNL     1       4.757   5.621  17.353  0.00  0.00    +0.000 N 
ATOM      4  C   UNL     1       4.518   6.960  17.906  0.00  0.00    +0.000 C 
ATOM      5  C   UNL     1       3.123   7.444  17.552  0.00  0.00    +0.000 C 
ATOM      6  C   UNL     1       2.083   6.503  18.134  0.00  0.00    +0.000 C 
ATOM      7  C   UNL     1       2.463   5.047  18.011  0.00  0.00    +0.000 A 
ATOM      8  C   UNL     1       1.470   4.086  18.276  0.00  0.00    +0.000 A 
ATOM      9  C   UNL     1       1.767   2.727  18.241  0.00  0.00    +0.000 A 
ATOM     10  C   UNL     1       3.071   2.318  17.993  0.00  0.00    +0.000 A 
ATOM     11  C   UNL     1       4.065   3.268  17.750  0.00  0.00    +0.000 A 
ATOM     12  C   UNL     1       3.773   4.636  17.687  0.00  0.00    +0.000 A 
ENDROOT
BRANCH   2  13
ATOM     13  C   UNL     1       6.016   4.171  15.689  0.00  0.00    +0.000 C 
BRANCH  13  14
ATOM     14  N   UNL     1       6.217   4.377  14.239  0.00  0.00    +0.000 NA
ATOM     15  C   UNL     1       7.555   4.876  13.922  0.00  0.00    +0.000 C 
ATOM     16  C   UNL     1       7.646   5.276  12.449  0.00  0.00    +0.000 C 
ATOM     17  C   UNL     1       7.239   4.123  11.538  0.00  0.00    +0.000 C 
ATOM     18  C   UNL     1       5.863   3.596  11.934  0.00  0.00    +0.000 C 
ATOM     19  C   UNL     1       5.824   3.230  13.420  0.00  0.00    +0.000 C 
ENDBRANCH  13  14
ENDBRANCH   2  13
TORSDOF 2
ENDMDL
MODEL 8
REMARK VINA RESULT:      -6.5      2.297      5.565
REMARK  Name = 
REMARK  2 active torsions:
REMARK  status: ('A' for Active; 'I' for Inactive)
REMARK    1  A    between atoms: C_2  and  C_3
REMARK    2  A    between atoms: C_3  and  N_4
REMARK                            x       y       z     vdW  Elec       q    Type
REMARK                         _______ _______ _______ _____ _____    ______ ____
ROOT
ATOM      1  O   UNL     1       1.554   5.551  21.055  0.00  0.00    +0.000 OA
ATOM      2  C   UNL     1       2.196   5.870  20.047  0.00  0.00    +0.000 C 
ATOM      3  N   UNL     1       2.774   4.887  19.225  0.00  0.00    +0.000 N 
ATOM      4  C   UNL     1       2.358   3.495  19.440  0.00  0.00    +0.000 C 
ATOM      5  C   UNL     1       1.886   2.871  18.140  0.00  0.00    +0.000 C 
ATOM      6  C   UNL     1       3.014   2.870  17.123  0.00  0.00    +0.000 C 
ATOM      7  C   UNL     1       3.823   4.145  17.133  0.00  0.00    +0.000 A 
ATOM      8  C   UNL     1       4.718   4.360  16.069  0.00  0.00    +0.000 A 
ATOM      9  C   UNL     1       5.539   5.484  16.046  0.00  0.00    +0.000 A 
ATOM     10  C   UNL     1       5.511   6.374  17.112  0.00  0.00    +0.000 A 
ATOM     11  C   UNL     1       4.639   6.153  18.180  0.00  0.00    +0.000 A 
ATOM     12  C   UNL     1       3.737   5.083  18.183  0.00  0.00    +0.000 A 
ENDROOT
BRANCH   2  13
ATOM     13  C   UNL     1       2.335   7.355  19.635  0.00  0.00    +0.000 C 
BRANCH  13  14
ATOM     14  N   UNL     1       1.268   8.272  20.089  0.00  0.00    +0.000 NA
ATOM     15  C   UNL     1       1.397   8.632  21.501  0.00  0.00    +0.000 C 
ATOM     16  C   UNL     1       0.164   9.401  21.977  0.00  0.00    +0.000 C 
ATOM     17  C   UNL     1      -0.098  10.621  21.101  0.00  0.00    +0.000 C 
ATOM     18  C   UNL     1      -0.174  10.212  19.633  0.00  0.00    +0.000 C 
ATOM     19  C   UNL     1       1.075   9.431  19.217  0.00  0.00    +0.000 C 
ENDBRANCH  13  14
ENDBRANCH   2  13
TORSDOF 2
ENDMDL
MODEL 9
REMARK VINA RESULT:      -6.5      2.809      4.367
REMARK  Name = 
REMARK  2 active torsions:
REMARK  status: ('A' for Active; 'I' for Inactive)
REMARK    1  A    between atoms: C_2  and  C_3
REMARK    2  A    between atoms: C_3  and  N_4
REMARK                            x       y       z     vdW  Elec       q    Type
REMARK                         _______ _______ _______ _____ _____    ______ ____
ROOT
ATOM      1  O   UNL     1       5.368   7.062  15.641  0.00  0.00    +0.000 OA
ATOM      2  C   UNL     1       4.998   6.058  16.261  0.00  0.00    +0.000 C 
ATOM      3  N   UNL     1       4.332   6.182  17.493  0.00  0.00    +0.000 N 
ATOM      4  C   UNL     1       3.849   7.516  17.871  0.00  0.00    +0.000 C 
ATOM      5  C   UNL     1       2.373   7.471  18.222  0.00  0.00    +0.000 C 
ATOM      6  C   UNL     1       2.147   6.541  19.401  0.00  0.00    +0.000 C 
ATOM      7  C   UNL     1       2.976   5.281  19.331  0.00  0.00    +0.000 A 
ATOM      8  C   UNL     1       2.660   4.239  20.222  0.00  0.00    +0.000 A 
ATOM      9  C   UNL     1       3.421   3.074  20.253  0.00  0.00    +0.000 A 
ATOM     10  C   UNL     1       4.535   2.962  19.433  0.00  0.00    +0.000 A 
ATOM     11  C   UNL     1       4.865   4.002  18.561  0.00  0.00    +0.000 A 
ATOM     12  C   UNL     1       4.063   5.143  18.443  0.00  0.00    +0.000 A 
ENDROOT
BRANCH   2  13
ATOM     13  C   UNL     1       5.211   4.643  15.673  0.00  0.00    +0.000 C 
BRANCH  13  14
ATOM     14  N   UNL     1       5.694   4.570  14.277  0.00  0.00    +0.000 NA
ATOM     15  C   UNL     1       7.138   4.779  14.170  0.00  0.00    +0.000 C 
ATOM     16  C   UNL     1       7.556   4.910  12.704  0.00  0.00    +0.000 C 
ATOM     17  C   UNL     1       7.093   3.707  11.890  0.00  0.00    +0.000 C 
ATOM     18  C   UNL     1       5.593   3.491  12.070  0.00  0.00    +0.000 C 
ATOM     19  C   UNL     1       5.230   3.387  13.553  0.00  0.00    +0.000 C 
ENDBRANCH  13  14
ENDBRANCH   2  13
TORSDOF 2
ENDMDL
