MODEL 1
REMARK VINA RESULT:      -7.8      0.000      0.000
REMARK  Name = 
REMARK  5 active torsions:
REMARK  status: ('A' for Active; 'I' for Inactive)
REMARK    1  A    between atoms: C_1  and  N_2
REMARK    2  A    between atoms: C_3  and  C_5
REMARK    3  A    between atoms: C_7  and  C_8
REMARK    4  A    between atoms: N_10  and  C_11
REMARK    5  A    between atoms: C_22  and  C_23
REMARK                            x       y       z     vdW  Elec       q    Type
REMARK                         _______ _______ _______ _____ _____    ______ ____
ROOT
ATOM      1  C   UNL     1       6.370   5.195  15.520  0.00  0.00    +0.000 A 
ATOM      2  C   UNL     1       7.286   5.919  16.310  0.00  0.00    +0.000 A 
ATOM      3  C   UNL     1       6.926   6.388  17.596  0.00  0.00    +0.000 A 
ATOM      4  C   UNL     1       5.631   6.163  18.082  0.00  0.00    +0.000 A 
ATOM      5  C   UNL     1       4.747   5.428  17.308  0.00  0.00    +0.000 A 
ATOM      6  C   UNL     1       5.112   4.951  16.058  0.00  0.00    +0.000 A 
ATOM      7  O   UNL     1       4.094   4.262  15.436  0.00  0.00    +0.000 OA
ATOM      8  C   UNL     1       3.116   4.034  16.478  0.00  0.00    +0.000 C 
ATOM      9  C   UNL     1       3.322   5.087  17.576  0.00  0.00    +0.000 C 
ENDROOT
BRANCH   9  10
ATOM     10  C   UNL     1       3.016   4.592  18.971  0.00  0.00    +0.000 A 
ATOM     11  C   UNL     1       2.097   5.325  19.754  0.00  0.00    +0.000 A 
ATOM     12  C   UNL     1       1.765   4.938  21.050  0.00  0.00    +0.000 A 
ATOM     13  C   UNL     1       2.333   3.802  21.625  0.00  0.00    +0.000 A 
ATOM     14  C   UNL     1       3.246   3.075  20.856  0.00  0.00    +0.000 A 
ATOM     15  N   UNL     1       3.941   1.927  21.168  0.00  0.00    +0.000 N 
ATOM     16  C   UNL     1       4.733   1.553  20.118  0.00  0.00    +0.000 A 
ATOM     17  C   UNL     1       4.553   2.468  19.112  0.00  0.00    +0.000 A 
ATOM     18  C   UNL     1       3.603   3.437  19.557  0.00  0.00    +0.000 A 
ATOM     19  H   UNL     1       3.867   1.436  22.047  0.00  0.00    +0.000 HD
ENDBRANCH   9  10
BRANCH   1  22
ATOM     20  C   UNL     1       6.406   3.026  12.394  0.00  0.00    +0.000 C 
ATOM     21  N   UNL     1       6.108   3.616  13.670  0.00  0.00    +0.000 N 
ATOM     22  C   UNL     1       6.775   4.717  14.159  0.00  0.00    +0.000 C 
ATOM     23  O   UNL     1       7.657   5.296  13.536  0.00  0.00    +0.000 OA
ATOM     24  H   UNL     1       5.372   3.202  14.236  0.00  0.00    +0.000 HD
ENDBRANCH   1  22
BRANCH   3  25
ATOM     25  C   UNL     1       7.915   7.165  18.405  0.00  0.00    +0.000 C 
ATOM     26  O   UNL     1       8.460   6.646  19.371  0.00  0.00    +0.000 OA
ATOM     27  N   UNL     1       8.146   8.470  17.996  0.00  0.00    +0.000 N 
ATOM     28  H   UNL     1       7.555   8.880  17.284  0.00  0.00    +0.000 HD
BRANCH  27  29
ATOM     29  C   UNL     1       9.089   9.332  18.649  0.00  0.00    +0.000 C 
ATOM     30  C   UNL     1       8.612  10.545  19.409  0.00  0.00    +0.000 C 
ATOM     31  C   UNL     1       9.452  11.200  20.452  0.00  0.00    +0.000 C 
ATOM     32  O   UNL     1      10.375  12.044  19.744  0.00  0.00    +0.000 OA
ATOM     33  C   UNL     1      10.581  11.472  18.442  0.00  0.00    +0.000 C 
ATOM     34  C   UNL     1       9.334  10.722  18.123  0.00  0.00    +0.000 C 
ENDBRANCH  27  29
ENDBRANCH   3  25
TORSDOF 4
ENDMDL
MODEL 2
REMARK VINA RESULT:      -7.6      6.715     10.397
REMARK  Name = 
REMARK  5 active torsions:
REMARK  status: ('A' for Active; 'I' for Inactive)
REMARK    1  A    between atoms: C_1  and  N_2
REMARK    2  A    between atoms: C_3  and  C_5
REMARK    3  A    between atoms: C_7  and  C_8
REMARK    4  A    between atoms: N_10  and  C_11
REMARK    5  A    between atoms: C_22  and  C_23
REMARK                            x       y       z     vdW  Elec       q    Type
REMARK                         _______ _______ _______ _____ _____    ______ ____
ROOT
ATOM      1  C   UNL     1      -0.966  11.343  18.478  0.00  0.00    +0.000 A 
ATOM      2  C   UNL     1      -0.195  10.168  18.360  0.00  0.00    +0.000 A 
ATOM      3  C   UNL     1       1.219  10.222  18.364  0.00  0.00    +0.000 A 
ATOM      4  C   UNL     1       1.869  11.461  18.450  0.00  0.00    +0.000 A 
ATOM      5  C   UNL     1       1.102  12.606  18.591  0.00  0.00    +0.000 A 
ATOM      6  C   UNL     1      -0.284  12.547  18.611  0.00  0.00    +0.000 A 
ATOM      7  O   UNL     1      -0.865  13.788  18.740  0.00  0.00    +0.000 OA
ATOM      8  C   UNL     1       0.222  14.665  19.121  0.00  0.00    +0.000 C 
ATOM      9  C   UNL     1       1.542  14.029  18.665  0.00  0.00    +0.000 C 
ENDROOT
BRANCH   9  10
ATOM     10  C   UNL     1       2.711  14.308  19.581  0.00  0.00    +0.000 A 
ATOM     11  C   UNL     1       2.490  14.271  20.976  0.00  0.00    +0.000 A 
ATOM     12  C   UNL     1       3.514  14.521  21.887  0.00  0.00    +0.000 A 
ATOM     13  C   UNL     1       4.804  14.817  21.450  0.00  0.00    +0.000 A 
ATOM     14  C   UNL     1       5.027  14.858  20.070  0.00  0.00    +0.000 A 
ATOM     15  N   UNL     1       6.188  15.114  19.374  0.00  0.00    +0.000 N 
ATOM     16  C   UNL     1       5.956  15.054  18.028  0.00  0.00    +0.000 A 
ATOM     17  C   UNL     1       4.629  14.757  17.846  0.00  0.00    +0.000 A 
ATOM     18  C   UNL     1       4.024  14.616  19.132  0.00  0.00    +0.000 A 
ATOM     19  H   UNL     1       7.080  15.313  19.804  0.00  0.00    +0.000 HD
ENDBRANCH   9  10
BRANCH   1  22
ATOM     20  C   UNL     1      -4.572  12.249  19.284  0.00  0.00    +0.000 C 
ATOM     21  N   UNL     1      -3.139  12.219  19.181  0.00  0.00    +0.000 N 
ATOM     22  C   UNL     1      -2.461  11.258  18.463  0.00  0.00    +0.000 C 
ATOM     23  O   UNL     1      -3.025  10.369  17.837  0.00  0.00    +0.000 OA
ATOM     24  H   UNL     1      -2.603  12.939  19.658  0.00  0.00    +0.000 HD
ENDBRANCH   1  22
BRANCH   3  25
ATOM     25  C   UNL     1       2.009   8.960  18.223  0.00  0.00    +0.000 C 
ATOM     26  O   UNL     1       2.681   8.765  17.218  0.00  0.00    +0.000 OA
ATOM     27  N   UNL     1       1.915   8.061  19.276  0.00  0.00    +0.000 N 
ATOM     28  H   UNL     1       1.230   8.219  20.003  0.00  0.00    +0.000 HD
BRANCH  27  29
ATOM     29  C   UNL     1       2.637   6.823  19.305  0.00  0.00    +0.000 C 
ATOM     30  C   UNL     1       2.148   5.637  18.510  0.00  0.00    +0.000 C 
ATOM     31  C   UNL     1       3.052   4.511  18.139  0.00  0.00    +0.000 C 
ATOM     32  O   UNL     1       3.125   3.664  19.297  0.00  0.00    +0.000 OA
ATOM     33  C   UNL     1       2.897   4.486  20.455  0.00  0.00    +0.000 C 
ATOM     34  C   UNL     1       2.047   5.618  19.991  0.00  0.00    +0.000 C 
ENDBRANCH  27  29
ENDBRANCH   3  25
TORSDOF 4
ENDMDL
MODEL 3
REMARK VINA RESULT:      -7.4      6.923     10.416
REMARK  Name = 
REMARK  5 active torsions:
REMARK  status: ('A' for Active; 'I' for Inactive)
REMARK    1  A    between atoms: C_1  and  N_2
REMARK    2  A    between atoms: C_3  and  C_5
REMARK    3  A    between atoms: C_7  and  C_8
REMARK    4  A    between atoms: N_10  and  C_11
REMARK    5  A    between atoms: C_22  and  C_23
REMARK                            x       y       z     vdW  Elec       q    Type
REMARK                         _______ _______ _______ _____ _____    ______ ____
ROOT
ATOM      1  C   UNL     1      -1.209  11.733  18.809  0.00  0.00    +0.000 A 
ATOM      2  C   UNL     1      -0.642  10.488  19.149  0.00  0.00    +0.000 A 
ATOM      3  C   UNL     1       0.752  10.356  19.357  0.00  0.00    +0.000 A 
ATOM      4  C   UNL     1       1.590  11.466  19.190  0.00  0.00    +0.000 A 
ATOM      5  C   UNL     1       1.019  12.691  18.882  0.00  0.00    +0.000 A 
ATOM      6  C   UNL     1      -0.351  12.821  18.702  0.00  0.00    +0.000 A 
ATOM      7  O   UNL     1      -0.723  14.108  18.383  0.00  0.00    +0.000 OA
ATOM      8  C   UNL     1       0.449  14.910  18.666  0.00  0.00    +0.000 C 
ATOM      9  C   UNL     1       1.683  13.999  18.619  0.00  0.00    +0.000 C 
ENDROOT
BRANCH   9  10
ATOM     10  C   UNL     1       2.775  14.387  19.589  0.00  0.00    +0.000 A 
ATOM     11  C   UNL     1       2.449  14.479  20.961  0.00  0.00    +0.000 A 
ATOM     12  C   UNL     1       3.396  14.834  21.918  0.00  0.00    +0.000 A 
ATOM     13  C   UNL     1       4.712  15.114  21.553  0.00  0.00    +0.000 A 
ATOM     14  C   UNL     1       5.039  15.029  20.196  0.00  0.00    +0.000 A 
ATOM     15  N   UNL     1       6.247  15.241  19.568  0.00  0.00    +0.000 N 
ATOM     16  C   UNL     1       6.119  15.050  18.219  0.00  0.00    +0.000 A 
ATOM     17  C   UNL     1       4.814  14.710  17.968  0.00  0.00    +0.000 A 
ATOM     18  C   UNL     1       4.114  14.678  19.212  0.00  0.00    +0.000 A 
ATOM     19  H   UNL     1       7.100  15.499  20.042  0.00  0.00    +0.000 HD
ENDBRANCH   9  10
BRANCH   1  22
ATOM     20  C   UNL     1      -4.517  11.742  16.929  0.00  0.00    +0.000 C 
ATOM     21  N   UNL     1      -3.132  11.640  17.300  0.00  0.00    +0.000 N 
ATOM     22  C   UNL     1      -2.687  11.844  18.587  0.00  0.00    +0.000 C 
ATOM     23  O   UNL     1      -3.435  12.106  19.522  0.00  0.00    +0.000 OA
ATOM     24  H   UNL     1      -2.453  11.405  16.581  0.00  0.00    +0.000 HD
ENDBRANCH   1  22
BRANCH   3  25
ATOM     25  C   UNL     1       1.326   9.019  19.703  0.00  0.00    +0.000 C 
ATOM     26  O   UNL     1       1.162   8.552  20.823  0.00  0.00    +0.000 OA
ATOM     27  N   UNL     1       2.038   8.382  18.697  0.00  0.00    +0.000 N 
ATOM     28  H   UNL     1       2.259   8.888  17.849  0.00  0.00    +0.000 HD
BRANCH  27  29
ATOM     29  C   UNL     1       2.621   7.083  18.863  0.00  0.00    +0.000 C 
ATOM     30  C   UNL     1       3.631   6.569  17.867  0.00  0.00    +0.000 C 
ATOM     31  C   UNL     1       4.582   5.472  18.206  0.00  0.00    +0.000 C 
ATOM     32  O   UNL     1       3.847   4.247  18.045  0.00  0.00    +0.000 OA
ATOM     33  C   UNL     1       2.458   4.537  18.276  0.00  0.00    +0.000 C 
ATOM     34  C   UNL     1       2.273   5.970  17.910  0.00  0.00    +0.000 C 
ENDBRANCH  27  29
ENDBRANCH   3  25
TORSDOF 4
ENDMDL
MODEL 4
REMARK VINA RESULT:      -7.4      1.142      1.968
REMARK  Name = 
REMARK  5 active torsions:
REMARK  status: ('A' for Active; 'I' for Inactive)
REMARK    1  A    between atoms: C_1  and  N_2
REMARK    2  A    between atoms: C_3  and  C_5
REMARK    3  A    between atoms: C_7  and  C_8
REMARK    4  A    between atoms: N_10  and  C_11
REMARK    5  A    between atoms: C_22  and  C_23
REMARK                            x       y       z     vdW  Elec       q    Type
REMARK                         _______ _______ _______ _____ _____    ______ ____
ROOT
ATOM      1  C   UNL     1       6.807   5.421  15.219  0.00  0.00    +0.000 A 
ATOM      2  C   UNL     1       7.558   6.296  16.030  0.00  0.00    +0.000 A 
ATOM      3  C   UNL     1       7.059   6.742  17.277  0.00  0.00    +0.000 A 
ATOM      4  C   UNL     1       5.786   6.339  17.702  0.00  0.00    +0.000 A 
ATOM      5  C   UNL     1       5.068   5.458  16.910  0.00  0.00    +0.000 A 
ATOM      6  C   UNL     1       5.570   5.005  15.699  0.00  0.00    +0.000 A 
ATOM      7  O   UNL     1       4.703   4.154  15.051  0.00  0.00    +0.000 OA
ATOM      8  C   UNL     1       3.711   3.812  16.048  0.00  0.00    +0.000 C 
ATOM      9  C   UNL     1       3.695   4.914  17.116  0.00  0.00    +0.000 C 
ENDROOT
BRANCH   9  10
ATOM     10  C   UNL     1       3.388   4.418  18.510  0.00  0.00    +0.000 A 
ATOM     11  C   UNL     1       3.735   3.089  18.839  0.00  0.00    +0.000 A 
ATOM     12  C   UNL     1       3.482   2.556  20.100  0.00  0.00    +0.000 A 
ATOM     13  C   UNL     1       2.872   3.322  21.092  0.00  0.00    +0.000 A 
ATOM     14  C   UNL     1       2.523   4.637  20.771  0.00  0.00    +0.000 A 
ATOM     15  N   UNL     1       1.925   5.604  21.549  0.00  0.00    +0.000 N 
ATOM     16  C   UNL     1       1.763   6.757  20.832  0.00  0.00    +0.000 A 
ATOM     17  C   UNL     1       2.261   6.538  19.572  0.00  0.00    +0.000 A 
ATOM     18  C   UNL     1       2.760   5.201  19.517  0.00  0.00    +0.000 A 
ATOM     19  H   UNL     1       1.651   5.473  22.513  0.00  0.00    +0.000 HD
ENDBRANCH   9  10
BRANCH   1  22
ATOM     20  C   UNL     1       7.129   3.365  12.033  0.00  0.00    +0.000 C 
ATOM     21  N   UNL     1       6.702   3.924  13.287  0.00  0.00    +0.000 N 
ATOM     22  C   UNL     1       7.355   4.971  13.900  0.00  0.00    +0.000 C 
ATOM     23  O   UNL     1       8.335   5.524  13.415  0.00  0.00    +0.000 OA
ATOM     24  H   UNL     1       5.882   3.530  13.740  0.00  0.00    +0.000 HD
ENDBRANCH   1  22
BRANCH   3  25
ATOM     25  C   UNL     1       7.874   7.681  18.108  0.00  0.00    +0.000 C 
ATOM     26  O   UNL     1       8.553   7.252  19.032  0.00  0.00    +0.000 OA
ATOM     27  N   UNL     1       7.792   9.024  17.768  0.00  0.00    +0.000 N 
ATOM     28  H   UNL     1       7.101   9.324  17.092  0.00  0.00    +0.000 HD
BRANCH  27  29
ATOM     29  C   UNL     1       8.537  10.043  18.448  0.00  0.00    +0.000 C 
ATOM     30  C   UNL     1       8.631  11.433  17.869  0.00  0.00    +0.000 C 
ATOM     31  C   UNL     1       8.983  12.613  18.708  0.00  0.00    +0.000 C 
ATOM     32  O   UNL     1      10.415  12.600  18.828  0.00  0.00    +0.000 OA
ATOM     33  C   UNL     1      10.853  11.236  18.704  0.00  0.00    +0.000 C 
ATOM     34  C   UNL     1       9.828  10.554  17.864  0.00  0.00    +0.000 C 
ENDBRANCH  27  29
ENDBRANCH   3  25
TORSDOF 4
ENDMDL
MODEL 5
REMARK VINA RESULT:      -7.4      6.842     10.404
REMARK  Name = 
REMARK  5 active torsions:
REMARK  status: ('A' for Active; 'I' for Inactive)
REMARK    1  A    between atoms: C_1  and  N_2
REMARK    2  A    between atoms: C_3  and  C_5
REMARK    3  A    between atoms: C_7  and  C_8
REMARK    4  A    between atoms: N_10  and  C_11
REMARK    5  A    between atoms: C_22  and  C_23
REMARK                            x       y       z     vdW  Elec       q    Type
REMARK                         _______ _______ _______ _____ _____    ______ ____
ROOT
ATOM      1  C   UNL     1      -1.276  10.859  18.677  0.00  0.00    +0.000 A 
ATOM      2  C   UNL     1      -0.638   9.760  19.289  0.00  0.00    +0.000 A 
ATOM      3  C   UNL     1       0.709   9.847  19.716  0.00  0.00    +0.000 A 
ATOM      4  C   UNL     1       1.435  11.025  19.499  0.00  0.00    +0.000 A 
ATOM      5  C   UNL     1       0.790  12.107  18.920  0.00  0.00    +0.000 A 
ATOM      6  C   UNL     1      -0.537  12.026  18.524  0.00  0.00    +0.000 A 
ATOM      7  O   UNL     1      -0.992  13.194  17.954  0.00  0.00    +0.000 OA
ATOM      8  C   UNL     1       0.021  14.177  18.274  0.00  0.00    +0.000 C 
ATOM      9  C   UNL     1       1.340  13.443  18.552  0.00  0.00    +0.000 C 
ENDROOT
BRANCH   9  10
ATOM     10  C   UNL     1       2.207  14.106  19.597  0.00  0.00    +0.000 A 
ATOM     11  C   UNL     1       1.658  14.327  20.880  0.00  0.00    +0.000 A 
ATOM     12  C   UNL     1       2.391  14.935  21.896  0.00  0.00    +0.000 A 
ATOM     13  C   UNL     1       3.704  15.350  21.682  0.00  0.00    +0.000 A 
ATOM     14  C   UNL     1       4.251  15.137  20.413  0.00  0.00    +0.000 A 
ATOM     15  N   UNL     1       5.508  15.437  19.936  0.00  0.00    +0.000 N 
ATOM     16  C   UNL     1       5.622  15.056  18.627  0.00  0.00    +0.000 A 
ATOM     17  C   UNL     1       4.425  14.503  18.248  0.00  0.00    +0.000 A 
ATOM     18  C   UNL     1       3.544  14.534  19.372  0.00  0.00    +0.000 A 
ATOM     19  H   UNL     1       6.238  15.873  20.481  0.00  0.00    +0.000 HD
ENDBRANCH   9  10
BRANCH   1  22
ATOM     20  C   UNL     1      -4.875  11.890  17.999  0.00  0.00    +0.000 C 
ATOM     21  N   UNL     1      -3.485  11.862  18.360  0.00  0.00    +0.000 N 
ATOM     22  C   UNL     1      -2.700  10.738  18.227  0.00  0.00    +0.000 C 
ATOM     23  O   UNL     1      -3.117   9.681  17.768  0.00  0.00    +0.000 OA
ATOM     24  H   UNL     1      -3.062  12.710  18.729  0.00  0.00    +0.000 HD
ENDBRANCH   1  22
BRANCH   3  25
ATOM     25  C   UNL     1       1.362   8.661  20.350  0.00  0.00    +0.000 C 
ATOM     26  O   UNL     1       1.410   8.564  21.569  0.00  0.00    +0.000 OA
ATOM     27  N   UNL     1       1.898   7.722  19.479  0.00  0.00    +0.000 N 
ATOM     28  H   UNL     1       1.955   7.936  18.492  0.00  0.00    +0.000 HD
BRANCH  27  29
ATOM     29  C   UNL     1       2.528   6.516  19.931  0.00  0.00    +0.000 C 
ATOM     30  C   UNL     1       2.525   5.283  19.062  0.00  0.00    +0.000 C 
ATOM     31  C   UNL     1       3.512   4.182  19.254  0.00  0.00    +0.000 C 
ATOM     32  O   UNL     1       3.007   3.382  20.336  0.00  0.00    +0.000 OA
ATOM     33  C   UNL     1       2.214   4.236  21.178  0.00  0.00    +0.000 C 
ATOM     34  C   UNL     1       1.694   5.315  20.292  0.00  0.00    +0.000 C 
ENDBRANCH  27  29
ENDBRANCH   3  25
TORSDOF 4
ENDMDL
MODEL 6
REMARK VINA RESULT:      -7.2      6.731     10.802
REMARK  Name = 
REMARK  5 active torsions:
REMARK  status: ('A' for Active; 'I' for Inactive)
REMARK    1  A    between atoms: C_1  and  N_2
REMARK    2  A    between atoms: C_3  and  C_5
REMARK    3  A    between atoms: C_7  and  C_8
REMARK    4  A    between atoms: N_10  and  C_11
REMARK    5  A    between atoms: C_22  and  C_23
REMARK                            x       y       z     vdW  Elec       q    Type
REMARK                         _______ _______ _______ _____ _____    ______ ____
ROOT
ATOM      1  C   UNL     1      -0.101  11.495  21.325  0.00  0.00    +0.000 A 
ATOM      2  C   UNL     1       0.333  10.379  20.581  0.00  0.00    +0.000 A 
ATOM      3  C   UNL     1       1.184  10.536  19.461  0.00  0.00    +0.000 A 
ATOM      4  C   UNL     1       1.576  11.820  19.059  0.00  0.00    +0.000 A 
ATOM      5  C   UNL     1       1.165  12.908  19.813  0.00  0.00    +0.000 A 
ATOM      6  C   UNL     1       0.350  12.747  20.924  0.00  0.00    +0.000 A 
ATOM      7  O   UNL     1       0.036  13.944  21.528  0.00  0.00    +0.000 OA
ATOM      8  C   UNL     1       0.946  14.903  20.938  0.00  0.00    +0.000 C 
ATOM      9  C   UNL     1       1.411  14.360  19.581  0.00  0.00    +0.000 C 
ENDROOT
BRANCH   9  10
ATOM     10  C   UNL     1       2.829  14.735  19.218  0.00  0.00    +0.000 A 
ATOM     11  C   UNL     1       3.091  15.161  17.896  0.00  0.00    +0.000 A 
ATOM     12  C   UNL     1       4.370  15.521  17.482  0.00  0.00    +0.000 A 
ATOM     13  C   UNL     1       5.449  15.474  18.364  0.00  0.00    +0.000 A 
ATOM     14  C   UNL     1       5.196  15.049  19.672  0.00  0.00    +0.000 A 
ATOM     15  N   UNL     1       6.061  14.917  20.736  0.00  0.00    +0.000 N 
ATOM     16  C   UNL     1       5.390  14.466  21.839  0.00  0.00    +0.000 A 
ATOM     17  C   UNL     1       4.074  14.302  21.488  0.00  0.00    +0.000 A 
ATOM     18  C   UNL     1       3.927  14.679  20.119  0.00  0.00    +0.000 A 
ATOM     19  H   UNL     1       7.048  15.128  20.699  0.00  0.00    +0.000 HD
ENDBRANCH   9  10
BRANCH   1  22
ATOM     20  C   UNL     1      -3.078  12.041  23.630  0.00  0.00    +0.000 C 
ATOM     21  N   UNL     1      -2.132  12.094  22.549  0.00  0.00    +0.000 N 
ATOM     22  C   UNL     1      -1.007  11.301  22.502  0.00  0.00    +0.000 C 
ATOM     23  O   UNL     1      -0.735  10.472  23.363  0.00  0.00    +0.000 OA
ATOM     24  H   UNL     1      -2.302  12.744  21.787  0.00  0.00    +0.000 HD
ENDBRANCH   1  22
BRANCH   3  25
ATOM     25  C   UNL     1       1.615   9.334  18.684  0.00  0.00    +0.000 C 
ATOM     26  O   UNL     1       1.740   9.402  17.468  0.00  0.00    +0.000 OA
ATOM     27  N   UNL     1       1.843   8.180  19.421  0.00  0.00    +0.000 N 
ATOM     28  H   UNL     1       1.579   8.155  20.397  0.00  0.00    +0.000 HD
BRANCH  27  29
ATOM     29  C   UNL     1       2.292   6.956  18.825  0.00  0.00    +0.000 C 
ATOM     30  C   UNL     1       2.187   5.656  19.584  0.00  0.00    +0.000 C 
ATOM     31  C   UNL     1       2.204   4.337  18.891  0.00  0.00    +0.000 C 
ATOM     32  O   UNL     1       3.587   4.040  18.637  0.00  0.00    +0.000 OA
ATOM     33  C   UNL     1       4.289   5.290  18.525  0.00  0.00    +0.000 C 
ATOM     34  C   UNL     1       3.522   6.264  19.352  0.00  0.00    +0.000 C 
ENDBRANCH  27  29
ENDBRANCH   3  25
TORSDOF 4
ENDMDL
MODEL 7
REMARK VINA RESULT:      -7.0     11.020     13.867
REMARK  Name = 
REMARK  5 active torsions:
REMARK  status: ('A' for Active; 'I' for Inactive)
REMARK    1  A    between atoms: C_1  and  N_2
REMARK    2  A    between atoms: C_3  and  C_5
REMARK    3  A    between atoms: C_7  and  C_8
REMARK    4  A    between atoms: N_10  and  C_11
REMARK    5  A    between atoms: C_22  and  C_23
REMARK                            x       y       z     vdW  Elec       q    Type
REMARK                         _______ _______ _______ _____ _____    ______ ____
ROOT
ATOM      1  C   UNL     1      -3.142  14.747  24.025  0.00  0.00    +0.000 A 
ATOM      2  C   UNL     1      -2.115  13.844  23.681  0.00  0.00    +0.000 A 
ATOM      3  C   UNL     1      -2.353  12.781  22.778  0.00  0.00    +0.000 A 
ATOM      4  C   UNL     1      -3.635  12.595  22.243  0.00  0.00    +0.000 A 
ATOM      5  C   UNL     1      -4.630  13.503  22.568  0.00  0.00    +0.000 A 
ATOM      6  C   UNL     1      -4.386  14.558  23.435  0.00  0.00    +0.000 A 
ATOM      7  O   UNL     1      -5.501  15.337  23.648  0.00  0.00    +0.000 OA
ATOM      8  C   UNL     1      -6.438  14.925  22.623  0.00  0.00    +0.000 C 
ATOM      9  C   UNL     1      -6.066  13.508  22.167  0.00  0.00    +0.000 C 
ENDROOT
BRANCH   9  10
ATOM     10  C   UNL     1      -6.340  13.238  20.706  0.00  0.00    +0.000 A 
ATOM     11  C   UNL     1      -6.235  14.313  19.796  0.00  0.00    +0.000 A 
ATOM     12  C   UNL     1      -6.475  14.148  18.434  0.00  0.00    +0.000 A 
ATOM     13  C   UNL     1      -6.830  12.903  17.916  0.00  0.00    +0.000 A 
ATOM     14  C   UNL     1      -6.939  11.836  18.812  0.00  0.00    +0.000 A 
ATOM     15  N   UNL     1      -7.262  10.518  18.575  0.00  0.00    +0.000 N 
ATOM     16  C   UNL     1      -7.255   9.811  19.746  0.00  0.00    +0.000 A 
ATOM     17  C   UNL     1      -6.925  10.679  20.756  0.00  0.00    +0.000 A 
ATOM     18  C   UNL     1      -6.708  11.968  20.182  0.00  0.00    +0.000 A 
ATOM     19  H   UNL     1      -7.469  10.136  17.664  0.00  0.00    +0.000 HD
ENDBRANCH   9  10
BRANCH   1  22
ATOM     20  C   UNL     1      -3.078  18.283  25.430  0.00  0.00    +0.000 C 
ATOM     21  N   UNL     1      -3.297  17.114  24.622  0.00  0.00    +0.000 N 
ATOM     22  C   UNL     1      -2.865  15.859  24.989  0.00  0.00    +0.000 C 
ATOM     23  O   UNL     1      -2.282  15.634  26.043  0.00  0.00    +0.000 OA
ATOM     24  H   UNL     1      -3.794  17.219  23.741  0.00  0.00    +0.000 HD
ENDBRANCH   1  22
BRANCH   3  25
ATOM     25  C   UNL     1      -1.247  11.831  22.443  0.00  0.00    +0.000 C 
ATOM     26  O   UNL     1      -0.824  11.057  23.292  0.00  0.00    +0.000 OA
ATOM     27  N   UNL     1      -0.753  11.903  21.149  0.00  0.00    +0.000 N 
ATOM     28  H   UNL     1      -1.046  12.662  20.547  0.00  0.00    +0.000 HD
BRANCH  27  29
ATOM     29  C   UNL     1       0.284  11.039  20.665  0.00  0.00    +0.000 C 
ATOM     30  C   UNL     1       0.115  10.303  19.359  0.00  0.00    +0.000 C 
ATOM     31  C   UNL     1       1.282   9.773  18.598  0.00  0.00    +0.000 C 
ATOM     32  O   UNL     1       1.626   8.524  19.220  0.00  0.00    +0.000 OA
ATOM     33  C   UNL     1       1.219   8.595  20.597  0.00  0.00    +0.000 C 
ATOM     34  C   UNL     1       0.074   9.548  20.636  0.00  0.00    +0.000 C 
ENDBRANCH  27  29
ENDBRANCH   3  25
TORSDOF 4
ENDMDL
MODEL 8
REMARK VINA RESULT:      -7.0      3.718      9.311
REMARK  Name = 
REMARK  5 active torsions:
REMARK  status: ('A' for Active; 'I' for Inactive)
REMARK    1  A    between atoms: C_1  and  N_2
REMARK    2  A    between atoms: C_3  and  C_5
REMARK    3  A    between atoms: C_7  and  C_8
REMARK    4  A    between atoms: N_10  and  C_11
REMARK    5  A    between atoms: C_22  and  C_23
REMARK                            x       y       z     vdW  Elec       q    Type
REMARK                         _______ _______ _______ _____ _____    ______ ____
ROOT
ATOM      1  C   UNL     1      10.227  12.519  18.372  0.00  0.00    +0.000 A 
ATOM      2  C   UNL     1       9.768  11.231  18.028  0.00  0.00    +0.000 A 
ATOM      3  C   UNL     1       9.182  10.384  18.998  0.00  0.00    +0.000 A 
ATOM      4  C   UNL     1       9.085  10.811  20.329  0.00  0.00    +0.000 A 
ATOM      5  C   UNL     1       9.515  12.089  20.651  0.00  0.00    +0.000 A 
ATOM      6  C   UNL     1      10.068  12.925  19.692  0.00  0.00    +0.000 A 
ATOM      7  O   UNL     1      10.451  14.143  20.208  0.00  0.00    +0.000 OA
ATOM      8  C   UNL     1       9.835  14.196  21.518  0.00  0.00    +0.000 C 
ATOM      9  C   UNL     1       9.554  12.760  21.981  0.00  0.00    +0.000 C 
ENDROOT
BRANCH   9  10
ATOM     10  C   UNL     1       8.310  12.616  22.826  0.00  0.00    +0.000 A 
ATOM     11  C   UNL     1       8.335  11.702  23.903  0.00  0.00    +0.000 A 
ATOM     12  C   UNL     1       7.229  11.508  24.726  0.00  0.00    +0.000 A 
ATOM     13  C   UNL     1       6.047  12.216  24.516  0.00  0.00    +0.000 A 
ATOM     14  C   UNL     1       6.015  13.120  23.450  0.00  0.00    +0.000 A 
ATOM     15  N   UNL     1       4.996  13.944  23.026  0.00  0.00    +0.000 N 
ATOM     16  C   UNL     1       5.395  14.668  21.935  0.00  0.00    +0.000 A 
ATOM     17  C   UNL     1       6.687  14.309  21.646  0.00  0.00    +0.000 A 
ATOM     18  C   UNL     1       7.104  13.336  22.605  0.00  0.00    +0.000 A 
ATOM     19  H   UNL     1       4.089  14.003  23.465  0.00  0.00    +0.000 HD
ENDBRANCH   9  10
BRANCH   1  22
ATOM     20  C   UNL     1      11.007  15.681  16.403  0.00  0.00    +0.000 C 
ATOM     21  N   UNL     1      10.511  14.727  17.358  0.00  0.00    +0.000 N 
ATOM     22  C   UNL     1      10.851  13.393  17.327  0.00  0.00    +0.000 C 
ATOM     23  O   UNL     1      11.620  12.917  16.501  0.00  0.00    +0.000 OA
ATOM     24  H   UNL     1       9.883  15.053  18.087  0.00  0.00    +0.000 HD
ENDBRANCH   1  22
BRANCH   3  25
ATOM     25  C   UNL     1       8.717   9.018  18.605  0.00  0.00    +0.000 C 
ATOM     26  O   UNL     1       8.994   8.051  19.303  0.00  0.00    +0.000 OA
ATOM     27  N   UNL     1       7.986   8.937  17.428  0.00  0.00    +0.000 N 
ATOM     28  H   UNL     1       7.920   9.749  16.828  0.00  0.00    +0.000 HD
BRANCH  27  29
ATOM     29  C   UNL     1       7.443   7.705  16.936  0.00  0.00    +0.000 C 
ATOM     30  C   UNL     1       6.055   7.270  17.334  0.00  0.00    +0.000 C 
ATOM     31  C   UNL     1       5.281   6.278  16.534  0.00  0.00    +0.000 C 
ATOM     32  O   UNL     1       5.766   4.985  16.932  0.00  0.00    +0.000 OA
ATOM     33  C   UNL     1       7.125   5.143  17.371  0.00  0.00    +0.000 C 
ATOM     34  C   UNL     1       7.233   6.543  17.871  0.00  0.00    +0.000 C 
ENDBRANCH  27  29
ENDBRANCH   3  25
TORSDOF 4
ENDMDL
MODEL 9
REMARK VINA RESULT:      -7.0      7.599     10.525
REMARK  Name = 
REMARK  5 active torsions:
REMARK  status: ('A' for Active; 'I' for Inactive)
REMARK    1  A    between atoms: C_1  and  N_2
REMARK    2  A    between atoms: C_3  and  C_5
REMARK    3  A    between atoms: C_7  and  C_8
REMARK    4  A    between atoms: N_10  and  C_11
REMARK    5  A    between atoms: C_22  and  C_23
REMARK                            x       y       z     vdW  Elec       q    Type
REMARK                         _______ _______ _______ _____ _____    ______ ____
ROOT
ATOM      1  C   UNL     1       1.311  12.551  20.638  0.00  0.00    +0.000 A 
ATOM      2  C   UNL     1       1.692  11.193  20.631  0.00  0.00    +0.000 A 
ATOM      3  C   UNL     1       0.759  10.177  20.317  0.00  0.00    +0.000 A 
ATOM      4  C   UNL     1      -0.574  10.515  20.043  0.00  0.00    +0.000 A 
ATOM      5  C   UNL     1      -0.931  11.854  20.027  0.00  0.00    +0.000 A 
ATOM      6  C   UNL     1      -0.008  12.849  20.313  0.00  0.00    +0.000 A 
ATOM      7  O   UNL     1      -0.557  14.111  20.265  0.00  0.00    +0.000 OA
ATOM      8  C   UNL     1      -1.841  13.928  19.621  0.00  0.00    +0.000 C 
ATOM      9  C   UNL     1      -2.272  12.466  19.803  0.00  0.00    +0.000 C 
ENDROOT
BRANCH   9  10
ATOM     10  C   UNL     1      -3.064  11.907  18.644  0.00  0.00    +0.000 A 
ATOM     11  C   UNL     1      -2.361  11.502  17.487  0.00  0.00    +0.000 A 
ATOM     12  C   UNL     1      -3.017  10.981  16.376  0.00  0.00    +0.000 A 
ATOM     13  C   UNL     1      -4.403  10.837  16.365  0.00  0.00    +0.000 A 
ATOM     14  C   UNL     1      -5.104  11.239  17.506  0.00  0.00    +0.000 A 
ATOM     15  N   UNL     1      -6.457  11.203  17.765  0.00  0.00    +0.000 N 
ATOM     16  C   UNL     1      -6.713  11.700  19.013  0.00  0.00    +0.000 A 
ATOM     17  C   UNL     1      -5.515  12.064  19.572  0.00  0.00    +0.000 A 
ATOM     18  C   UNL     1      -4.478  11.768  18.635  0.00  0.00    +0.000 A 
ATOM     19  H   UNL     1      -7.153  10.855  17.122  0.00  0.00    +0.000 HD
ENDBRANCH   9  10
BRANCH   1  22
ATOM     20  C   UNL     1       4.234  14.943  20.176  0.00  0.00    +0.000 C 
ATOM     21  N   UNL     1       3.196  13.966  19.985  0.00  0.00    +0.000 N 
ATOM     22  C   UNL     1       2.317  13.607  20.982  0.00  0.00    +0.000 C 
ATOM     23  O   UNL     1       2.332  14.106  22.101  0.00  0.00    +0.000 OA
ATOM     24  H   UNL     1       3.108  13.522  19.075  0.00  0.00    +0.000 HD
ENDBRANCH   1  22
BRANCH   3  25
ATOM     25  C   UNL     1       1.189   8.745  20.331  0.00  0.00    +0.000 C 
ATOM     26  O   UNL     1       0.800   7.996  21.217  0.00  0.00    +0.000 OA
ATOM     27  N   UNL     1       2.040   8.354  19.307  0.00  0.00    +0.000 N 
ATOM     28  H   UNL     1       2.438   9.056  18.697  0.00  0.00    +0.000 HD
BRANCH  27  29
ATOM     29  C   UNL     1       2.515   7.009  19.165  0.00  0.00    +0.000 C 
ATOM     30  C   UNL     1       3.467   6.651  18.050  0.00  0.00    +0.000 C 
ATOM     31  C   UNL     1       4.327   5.434  18.110  0.00  0.00    +0.000 C 
ATOM     32  O   UNL     1       3.490   4.338  17.706  0.00  0.00    +0.000 OA
ATOM     33  C   UNL     1       2.133   4.678  18.037  0.00  0.00    +0.000 C 
ATOM     34  C   UNL     1       2.064   6.166  18.001  0.00  0.00    +0.000 C 
ENDBRANCH  27  29
ENDBRANCH   3  25
TORSDOF 4
ENDMDL
