MODEL 1
REMARK VINA RESULT:      -7.3      0.000      0.000
REMARK  Name = 
REMARK  6 active torsions:
REMARK  status: ('A' for Active; 'I' for Inactive)
REMARK    1  A    between atoms: N_9  and  C_10
REMARK    2  A    between atoms: C_10  and  C_11
REMARK    3  A    between atoms: C_11  and  C_12
REMARK    4  A    between atoms: C_12  and  O_13
REMARK    5  A    between atoms: C_12  and  C_14
REMARK    6  A    between atoms: C_14  and  P_15
REMARK                            x       y       z     vdW  Elec       q    Type
REMARK                         _______ _______ _______ _____ _____    ______ ____
ROOT
ATOM      1  O   UNL     1       5.504   1.203  20.855  0.00  0.00    +0.000 OA
ATOM      2  C   UNL     1       4.682   1.977  20.369  0.00  0.00    +0.000 A 
ATOM      3  N   UNL     1       3.587   2.379  21.097  0.00  0.00    +0.000 N 
ATOM      4  C   UNL     1       2.641   3.359  20.747  0.00  0.00    +0.000 A 
ATOM      5  O   UNL     1       1.835   3.779  21.536  0.00  0.00    +0.000 OA
ATOM      6  C   UNL     1       2.827   3.838  19.392  0.00  0.00    +0.000 A 
ATOM      7  N   UNL     1       2.083   4.749  18.679  0.00  0.00    +0.000 NA
ATOM      8  C   UNL     1       2.625   4.742  17.479  0.00  0.00    +0.000 A 
ATOM      9  N   UNL     1       3.748   3.971  17.430  0.00  0.00    +0.000 N 
ATOM     10  C   UNL     1       3.870   3.375  18.659  0.00  0.00    +0.000 A 
ATOM     11  N   UNL     1       4.827   2.501  19.098  0.00  0.00    +0.000 N 
ATOM     12  H   UNL     1       3.516   1.999  22.028  0.00  0.00    +0.000 HD
ATOM     13  H   UNL     1       5.609   2.182  18.544  0.00  0.00    +0.000 HD
ENDROOT
BRANCH   9  14
ATOM     14  C   UNL     1       4.680   3.892  16.323  0.00  0.00    +0.000 C 
BRANCH  14  15
ATOM     15  C   UNL     1       5.284   5.234  15.940  0.00  0.00    +0.000 C 
BRANCH  15  16
ATOM     16  C   UNL     1       6.694   5.306  16.506  0.00  0.00    +0.000 C 
BRANCH  16  17
ATOM     17  O   UNL     1       7.541   5.656  15.396  0.00  0.00    +0.000 OA
ATOM     18  H   UNL     1       7.805   6.601  15.665  0.00  0.00    +0.000 HD
ENDBRANCH  16  17
BRANCH  16  19
ATOM     19  C   UNL     1       6.763   6.334  17.639  0.00  0.00    +0.000 C 
BRANCH  19  20
ATOM     20  P   UNL     1       7.489   5.709  19.198  0.00  0.00    +0.000 P 
ATOM     21  O   UNL     1       6.006   5.574  19.635  0.00  0.00    +0.000 OA
ATOM     22  O   UNL     1       8.103   4.603  18.293  0.00  0.00    +0.000 OA
ATOM     23  O   UNL     1       8.175   5.118  20.673  0.00  0.00    +0.000 OA
ENDBRANCH  19  20
ENDBRANCH  16  19
ENDBRANCH  15  16
ENDBRANCH  14  15
ENDBRANCH   9  14
TORSDOF 6
ENDMDL
MODEL 2
REMARK VINA RESULT:      -7.1      2.632      5.318
REMARK  Name = 
REMARK  6 active torsions:
REMARK  status: ('A' for Active; 'I' for Inactive)
REMARK    1  A    between atoms: N_9  and  C_10
REMARK    2  A    between atoms: C_10  and  C_11
REMARK    3  A    between atoms: C_11  and  C_12
REMARK    4  A    between atoms: C_12  and  O_13
REMARK    5  A    between atoms: C_12  and  C_14
REMARK    6  A    between atoms: C_14  and  P_15
REMARK                            x       y       z     vdW  Elec       q    Type
REMARK                         _______ _______ _______ _____ _____    ______ ____
ROOT
ATOM      1  O   UNL     1       8.195   5.217  20.665  0.00  0.00    +0.000 OA
ATOM      2  C   UNL     1       7.641   5.558  19.622  0.00  0.00    +0.000 A 
ATOM      3  N   UNL     1       8.008   6.721  18.986  0.00  0.00    +0.000 N 
ATOM      4  C   UNL     1       7.580   7.177  17.727  0.00  0.00    +0.000 A 
ATOM      5  O   UNL     1       8.109   8.105  17.171  0.00  0.00    +0.000 OA
ATOM      6  C   UNL     1       6.526   6.350  17.176  0.00  0.00    +0.000 A 
ATOM      7  N   UNL     1       5.824   6.499  16.001  0.00  0.00    +0.000 NA
ATOM      8  C   UNL     1       4.925   5.538  16.037  0.00  0.00    +0.000 A 
ATOM      9  N   UNL     1       5.100   4.714  17.110  0.00  0.00    +0.000 N 
ATOM     10  C   UNL     1       6.122   5.247  17.852  0.00  0.00    +0.000 A 
ATOM     11  N   UNL     1       6.658   4.791  19.026  0.00  0.00    +0.000 N 
ATOM     12  H   UNL     1       8.741   7.252  19.430  0.00  0.00    +0.000 HD
ATOM     13  H   UNL     1       6.357   3.955  19.506  0.00  0.00    +0.000 HD
ENDROOT
BRANCH   9  14
ATOM     14  C   UNL     1       4.405   3.464  17.345  0.00  0.00    +0.000 C 
BRANCH  14  15
ATOM     15  C   UNL     1       2.969   3.464  16.844  0.00  0.00    +0.000 C 
BRANCH  15  16
ATOM     16  C   UNL     1       2.046   3.213  18.027  0.00  0.00    +0.000 C 
BRANCH  16  17
ATOM     17  O   UNL     1       2.003   1.784  18.191  0.00  0.00    +0.000 OA
ATOM     18  H   UNL     1       1.734   1.725  19.171  0.00  0.00    +0.000 HD
ENDBRANCH  16  17
BRANCH  16  19
ATOM     19  C   UNL     1       2.571   3.928  19.276  0.00  0.00    +0.000 C 
BRANCH  19  20
ATOM     20  P   UNL     1       2.057   3.177  20.863  0.00  0.00    +0.000 P 
ATOM     21  O   UNL     1       3.412   2.429  20.751  0.00  0.00    +0.000 OA
ATOM     22  O   UNL     1       2.056   4.643  21.383  0.00  0.00    +0.000 OA
ATOM     23  O   UNL     1       1.572   2.467  22.364  0.00  0.00    +0.000 OA
ENDBRANCH  19  20
ENDBRANCH  16  19
ENDBRANCH  15  16
ENDBRANCH  14  15
ENDBRANCH   9  14
TORSDOF 6
ENDMDL
MODEL 3
REMARK VINA RESULT:      -7.0      1.172      1.397
REMARK  Name = 
REMARK  6 active torsions:
REMARK  status: ('A' for Active; 'I' for Inactive)
REMARK    1  A    between atoms: N_9  and  C_10
REMARK    2  A    between atoms: C_10  and  C_11
REMARK    3  A    between atoms: C_11  and  C_12
REMARK    4  A    between atoms: C_12  and  O_13
REMARK    5  A    between atoms: C_12  and  C_14
REMARK    6  A    between atoms: C_14  and  P_15
REMARK                            x       y       z     vdW  Elec       q    Type
REMARK                         _______ _______ _______ _____ _____    ______ ____
ROOT
ATOM      1  O   UNL     1       5.466   1.461  21.214  0.00  0.00    +0.000 OA
ATOM      2  C   UNL     1       4.450   1.999  20.775  0.00  0.00    +0.000 A 
ATOM      3  N   UNL     1       3.288   1.997  21.510  0.00  0.00    +0.000 N 
ATOM      4  C   UNL     1       2.094   2.681  21.221  0.00  0.00    +0.000 A 
ATOM      5  O   UNL     1       1.203   2.776  22.024  0.00  0.00    +0.000 OA
ATOM      6  C   UNL     1       2.127   3.310  19.916  0.00  0.00    +0.000 A 
ATOM      7  N   UNL     1       1.145   4.021  19.265  0.00  0.00    +0.000 NA
ATOM      8  C   UNL     1       1.662   4.279  18.082  0.00  0.00    +0.000 A 
ATOM      9  N   UNL     1       2.963   3.878  17.994  0.00  0.00    +0.000 N 
ATOM     10  C   UNL     1       3.258   3.240  19.171  0.00  0.00    +0.000 A 
ATOM     11  N   UNL     1       4.431   2.650  19.556  0.00  0.00    +0.000 N 
ATOM     12  H   UNL     1       3.334   1.532  22.403  0.00  0.00    +0.000 HD
ATOM     13  H   UNL     1       5.270   2.625  18.995  0.00  0.00    +0.000 HD
ENDROOT
BRANCH   9  14
ATOM     14  C   UNL     1       3.873   4.173  16.905  0.00  0.00    +0.000 C 
BRANCH  14  15
ATOM     15  C   UNL     1       4.657   5.461  17.101  0.00  0.00    +0.000 C 
BRANCH  15  16
ATOM     16  C   UNL     1       5.648   5.601  15.955  0.00  0.00    +0.000 C 
BRANCH  16  17
ATOM     17  O   UNL     1       5.252   6.786  15.241  0.00  0.00    +0.000 OA
ATOM     18  H   UNL     1       4.268   6.577  15.082  0.00  0.00    +0.000 HD
ENDBRANCH  16  17
BRANCH  16  19
ATOM     19  C   UNL     1       7.079   5.694  16.494  0.00  0.00    +0.000 C 
BRANCH  19  20
ATOM     20  P   UNL     1       7.225   5.543  18.311  0.00  0.00    +0.000 P 
ATOM     21  O   UNL     1       8.134   4.333  17.966  0.00  0.00    +0.000 OA
ATOM     22  O   UNL     1       7.827   6.974  18.232  0.00  0.00    +0.000 OA
ATOM     23  O   UNL     1       7.363   5.399  20.031  0.00  0.00    +0.000 OA
ENDBRANCH  19  20
ENDBRANCH  16  19
ENDBRANCH  15  16
ENDBRANCH  14  15
ENDBRANCH   9  14
TORSDOF 6
ENDMDL
MODEL 4
REMARK VINA RESULT:      -6.8      1.671      2.768
REMARK  Name = 
REMARK  6 active torsions:
REMARK  status: ('A' for Active; 'I' for Inactive)
REMARK    1  A    between atoms: N_9  and  C_10
REMARK    2  A    between atoms: C_10  and  C_11
REMARK    3  A    between atoms: C_11  and  C_12
REMARK    4  A    between atoms: C_12  and  O_13
REMARK    5  A    between atoms: C_12  and  C_14
REMARK    6  A    between atoms: C_14  and  P_15
REMARK                            x       y       z     vdW  Elec       q    Type
REMARK                         _______ _______ _______ _____ _____    ______ ____
ROOT
ATOM      1  O   UNL     1       2.021   7.514  20.051  0.00  0.00    +0.000 OA
ATOM      2  C   UNL     1       2.343   6.329  19.990  0.00  0.00    +0.000 A 
ATOM      3  N   UNL     1       2.218   5.514  21.091  0.00  0.00    +0.000 N 
ATOM      4  C   UNL     1       2.405   4.122  21.147  0.00  0.00    +0.000 A 
ATOM      5  O   UNL     1       2.079   3.473  22.108  0.00  0.00    +0.000 OA
ATOM      6  C   UNL     1       2.931   3.589  19.907  0.00  0.00    +0.000 A 
ATOM      7  N   UNL     1       3.287   2.298  19.593  0.00  0.00    +0.000 NA
ATOM      8  C   UNL     1       3.791   2.387  18.380  0.00  0.00    +0.000 A 
ATOM      9  N   UNL     1       3.660   3.641  17.862  0.00  0.00    +0.000 N 
ATOM     10  C   UNL     1       3.119   4.421  18.853  0.00  0.00    +0.000 A 
ATOM     11  N   UNL     1       2.812   5.754  18.823  0.00  0.00    +0.000 N 
ATOM     12  H   UNL     1       1.856   5.953  21.922  0.00  0.00    +0.000 HD
ATOM     13  H   UNL     1       2.941   6.354  18.021  0.00  0.00    +0.000 HD
ENDROOT
BRANCH   9  14
ATOM     14  C   UNL     1       3.941   4.032  16.495  0.00  0.00    +0.000 C 
BRANCH  14  15
ATOM     15  C   UNL     1       5.424   4.036  16.157  0.00  0.00    +0.000 C 
BRANCH  15  16
ATOM     16  C   UNL     1       5.859   5.474  15.917  0.00  0.00    +0.000 C 
BRANCH  16  17
ATOM     17  O   UNL     1       4.818   6.294  16.477  0.00  0.00    +0.000 OA
ATOM     18  H   UNL     1       5.169   7.218  16.233  0.00  0.00    +0.000 HD
ENDBRANCH  16  17
BRANCH  16  19
ATOM     19  C   UNL     1       7.221   5.736  16.567  0.00  0.00    +0.000 C 
BRANCH  19  20
ATOM     20  P   UNL     1       7.246   5.571  18.388  0.00  0.00    +0.000 P 
ATOM     21  O   UNL     1       8.143   4.339  18.094  0.00  0.00    +0.000 OA
ATOM     22  O   UNL     1       7.891   6.987  18.357  0.00  0.00    +0.000 OA
ATOM     23  O   UNL     1       7.270   5.416  20.112  0.00  0.00    +0.000 OA
ENDBRANCH  19  20
ENDBRANCH  16  19
ENDBRANCH  15  16
ENDBRANCH  14  15
ENDBRANCH   9  14
TORSDOF 6
ENDMDL
MODEL 5
REMARK VINA RESULT:      -6.7      2.706      5.749
REMARK  Name = 
REMARK  6 active torsions:
REMARK  status: ('A' for Active; 'I' for Inactive)
REMARK    1  A    between atoms: N_9  and  C_10
REMARK    2  A    between atoms: C_10  and  C_11
REMARK    3  A    between atoms: C_11  and  C_12
REMARK    4  A    between atoms: C_12  and  O_13
REMARK    5  A    between atoms: C_12  and  C_14
REMARK    6  A    between atoms: C_14  and  P_15
REMARK                            x       y       z     vdW  Elec       q    Type
REMARK                         _______ _______ _______ _____ _____    ______ ____
ROOT
ATOM      1  O   UNL     1       6.468   3.957  13.514  0.00  0.00    +0.000 OA
ATOM      2  C   UNL     1       6.429   4.326  14.687  0.00  0.00    +0.000 A 
ATOM      3  N   UNL     1       7.255   5.334  15.128  0.00  0.00    +0.000 N 
ATOM      4  C   UNL     1       7.236   5.964  16.385  0.00  0.00    +0.000 A 
ATOM      5  O   UNL     1       7.865   6.967  16.605  0.00  0.00    +0.000 OA
ATOM      6  C   UNL     1       6.320   5.321  17.305  0.00  0.00    +0.000 A 
ATOM      7  N   UNL     1       6.060   5.612  18.625  0.00  0.00    +0.000 NA
ATOM      8  C   UNL     1       5.229   4.666  19.007  0.00  0.00    +0.000 A 
ATOM      9  N   UNL     1       4.850   3.867  17.970  0.00  0.00    +0.000 N 
ATOM     10  C   UNL     1       5.566   4.279  16.875  0.00  0.00    +0.000 A 
ATOM     11  N   UNL     1       5.548   3.780  15.601  0.00  0.00    +0.000 N 
ATOM     12  H   UNL     1       7.873   5.729  14.437  0.00  0.00    +0.000 HD
ATOM     13  H   UNL     1       4.964   3.016  15.294  0.00  0.00    +0.000 HD
ENDROOT
BRANCH   9  14
ATOM     14  C   UNL     1       3.814   2.855  18.008  0.00  0.00    +0.000 C 
BRANCH  14  15
ATOM     15  C   UNL     1       2.560   3.240  17.239  0.00  0.00    +0.000 C 
BRANCH  15  16
ATOM     16  C   UNL     1       1.352   2.988  18.128  0.00  0.00    +0.000 C 
BRANCH  16  17
ATOM     17  O   UNL     1       1.457   1.615  18.547  0.00  0.00    +0.000 OA
ATOM     18  H   UNL     1       1.845   1.743  19.480  0.00  0.00    +0.000 HD
ENDBRANCH  16  17
BRANCH  16  19
ATOM     19  C   UNL     1       1.347   3.960  19.312  0.00  0.00    +0.000 C 
BRANCH  19  20
ATOM     20  P   UNL     1       2.069   3.294  20.855  0.00  0.00    +0.000 P 
ATOM     21  O   UNL     1       2.340   4.789  21.172  0.00  0.00    +0.000 OA
ATOM     22  O   UNL     1       0.642   2.727  21.100  0.00  0.00    +0.000 OA
ATOM     23  O   UNL     1       2.752   2.664  22.315  0.00  0.00    +0.000 OA
ENDBRANCH  19  20
ENDBRANCH  16  19
ENDBRANCH  15  16
ENDBRANCH  14  15
ENDBRANCH   9  14
TORSDOF 6
ENDMDL
MODEL 6
REMARK VINA RESULT:      -6.7      2.248      3.286
REMARK  Name = 
REMARK  6 active torsions:
REMARK  status: ('A' for Active; 'I' for Inactive)
REMARK    1  A    between atoms: N_9  and  C_10
REMARK    2  A    between atoms: C_10  and  C_11
REMARK    3  A    between atoms: C_11  and  C_12
REMARK    4  A    between atoms: C_12  and  O_13
REMARK    5  A    between atoms: C_12  and  C_14
REMARK    6  A    between atoms: C_14  and  P_15
REMARK                            x       y       z     vdW  Elec       q    Type
REMARK                         _______ _______ _______ _____ _____    ______ ____
ROOT
ATOM      1  O   UNL     1       4.077   0.437  18.678  0.00  0.00    +0.000 OA
ATOM      2  C   UNL     1       3.716   1.607  18.561  0.00  0.00    +0.000 A 
ATOM      3  N   UNL     1       2.416   1.906  18.224  0.00  0.00    +0.000 N 
ATOM      4  C   UNL     1       1.814   3.175  18.191  0.00  0.00    +0.000 A 
ATOM      5  O   UNL     1       0.623   3.314  18.077  0.00  0.00    +0.000 OA
ATOM      6  C   UNL     1       2.773   4.242  18.398  0.00  0.00    +0.000 A 
ATOM      7  N   UNL     1       2.579   5.604  18.387  0.00  0.00    +0.000 NA
ATOM      8  C   UNL     1       3.789   6.104  18.530  0.00  0.00    +0.000 A 
ATOM      9  N   UNL     1       4.720   5.134  18.755  0.00  0.00    +0.000 N 
ATOM     10  C   UNL     1       4.067   3.932  18.655  0.00  0.00    +0.000 A 
ATOM     11  N   UNL     1       4.574   2.667  18.786  0.00  0.00    +0.000 N 
ATOM     12  H   UNL     1       1.807   1.116  18.085  0.00  0.00    +0.000 HD
ATOM     13  H   UNL     1       5.538   2.456  18.998  0.00  0.00    +0.000 HD
ENDROOT
BRANCH   9  14
ATOM     14  C   UNL     1       6.102   5.352  19.134  0.00  0.00    +0.000 C 
BRANCH  14  15
ATOM     15  C   UNL     1       6.824   6.352  18.245  0.00  0.00    +0.000 C 
BRANCH  15  16
ATOM     16  C   UNL     1       7.216   5.653  16.952  0.00  0.00    +0.000 C 
BRANCH  16  17
ATOM     17  O   UNL     1       7.662   4.341  17.339  0.00  0.00    +0.000 OA
ATOM     18  H   UNL     1       7.450   4.367  18.334  0.00  0.00    +0.000 HD
ENDBRANCH  16  17
BRANCH  16  19
ATOM     19  C   UNL     1       6.025   5.605  15.989  0.00  0.00    +0.000 C 
BRANCH  19  20
ATOM     20  P   UNL     1       6.311   4.636  14.464  0.00  0.00    +0.000 P 
ATOM     21  O   UNL     1       7.724   5.276  14.526  0.00  0.00    +0.000 OA
ATOM     22  O   UNL     1       6.009   3.407  15.367  0.00  0.00    +0.000 OA
ATOM     23  O   UNL     1       6.582   3.720  13.020  0.00  0.00    +0.000 OA
ENDBRANCH  19  20
ENDBRANCH  16  19
ENDBRANCH  15  16
ENDBRANCH  14  15
ENDBRANCH   9  14
TORSDOF 6
ENDMDL
MODEL 7
REMARK VINA RESULT:      -6.6      3.388      6.475
REMARK  Name = 
REMARK  6 active torsions:
REMARK  status: ('A' for Active; 'I' for Inactive)
REMARK    1  A    between atoms: N_9  and  C_10
REMARK    2  A    between atoms: C_10  and  C_11
REMARK    3  A    between atoms: C_11  and  C_12
REMARK    4  A    between atoms: C_12  and  O_13
REMARK    5  A    between atoms: C_12  and  C_14
REMARK    6  A    between atoms: C_14  and  P_15
REMARK                            x       y       z     vdW  Elec       q    Type
REMARK                         _______ _______ _______ _____ _____    ______ ____
ROOT
ATOM      1  O   UNL     1       5.281   3.037  11.853  0.00  0.00    +0.000 OA
ATOM      2  C   UNL     1       5.834   3.622  12.783  0.00  0.00    +0.000 A 
ATOM      3  N   UNL     1       7.012   4.302  12.577  0.00  0.00    +0.000 N 
ATOM      4  C   UNL     1       7.689   5.131  13.488  0.00  0.00    +0.000 A 
ATOM      5  O   UNL     1       8.603   5.837  13.150  0.00  0.00    +0.000 OA
ATOM      6  C   UNL     1       7.097   5.089  14.810  0.00  0.00    +0.000 A 
ATOM      7  N   UNL     1       7.498   5.717  15.967  0.00  0.00    +0.000 NA
ATOM      8  C   UNL     1       6.674   5.262  16.886  0.00  0.00    +0.000 A 
ATOM      9  N   UNL     1       5.695   4.477  16.351  0.00  0.00    +0.000 N 
ATOM     10  C   UNL     1       5.977   4.353  15.015  0.00  0.00    +0.000 A 
ATOM     11  N   UNL     1       5.297   3.652  14.056  0.00  0.00    +0.000 N 
ATOM     12  H   UNL     1       7.372   4.280  11.636  0.00  0.00    +0.000 HD
ATOM     13  H   UNL     1       4.452   3.125  14.223  0.00  0.00    +0.000 HD
ENDROOT
BRANCH   9  14
ATOM     14  C   UNL     1       4.532   3.971  17.052  0.00  0.00    +0.000 C 
BRANCH  14  15
ATOM     15  C   UNL     1       3.487   5.037  17.344  0.00  0.00    +0.000 C 
BRANCH  15  16
ATOM     16  C   UNL     1       2.553   4.513  18.425  0.00  0.00    +0.000 C 
BRANCH  16  17
ATOM     17  O   UNL     1       1.446   3.916  17.726  0.00  0.00    +0.000 OA
ATOM     18  H   UNL     1       1.251   3.129  18.342  0.00  0.00    +0.000 HD
ENDBRANCH  16  17
BRANCH  16  19
ATOM     19  C   UNL     1       3.286   3.511  19.323  0.00  0.00    +0.000 C 
BRANCH  19  20
ATOM     20  P   UNL     1       2.357   2.995  20.812  0.00  0.00    +0.000 P 
ATOM     21  O   UNL     1       1.870   4.469  20.811  0.00  0.00    +0.000 OA
ATOM     22  O   UNL     1       1.671   1.984  19.851  0.00  0.00    +0.000 OA
ATOM     23  O   UNL     1       1.478   2.508  22.222  0.00  0.00    +0.000 OA
ENDBRANCH  19  20
ENDBRANCH  16  19
ENDBRANCH  15  16
ENDBRANCH  14  15
ENDBRANCH   9  14
TORSDOF 6
ENDMDL
MODEL 8
REMARK VINA RESULT:      -6.6      3.137      6.497
REMARK  Name = 
REMARK  6 active torsions:
REMARK  status: ('A' for Active; 'I' for Inactive)
REMARK    1  A    between atoms: N_9  and  C_10
REMARK    2  A    between atoms: C_10  and  C_11
REMARK    3  A    between atoms: C_11  and  C_12
REMARK    4  A    between atoms: C_12  and  O_13
REMARK    5  A    between atoms: C_12  and  C_14
REMARK    6  A    between atoms: C_14  and  P_15
REMARK                            x       y       z     vdW  Elec       q    Type
REMARK                         _______ _______ _______ _____ _____    ______ ____
ROOT
ATOM      1  O   UNL     1       5.451   2.940  11.702  0.00  0.00    +0.000 OA
ATOM      2  C   UNL     1       5.949   3.562  12.639  0.00  0.00    +0.000 A 
ATOM      3  N   UNL     1       7.118   4.267  12.464  0.00  0.00    +0.000 N 
ATOM      4  C   UNL     1       7.735   5.136  13.381  0.00  0.00    +0.000 A 
ATOM      5  O   UNL     1       8.645   5.857  13.063  0.00  0.00    +0.000 OA
ATOM      6  C   UNL     1       7.088   5.112  14.677  0.00  0.00    +0.000 A 
ATOM      7  N   UNL     1       7.424   5.780  15.833  0.00  0.00    +0.000 NA
ATOM      8  C   UNL     1       6.573   5.327  16.728  0.00  0.00    +0.000 A 
ATOM      9  N   UNL     1       5.638   4.504  16.174  0.00  0.00    +0.000 N 
ATOM     10  C   UNL     1       5.979   4.353  14.855  0.00  0.00    +0.000 A 
ATOM     11  N   UNL     1       5.358   3.611  13.887  0.00  0.00    +0.000 N 
ATOM     12  H   UNL     1       7.518   4.231  11.540  0.00  0.00    +0.000 HD
ATOM     13  H   UNL     1       4.520   3.067  14.033  0.00  0.00    +0.000 HD
ENDROOT
BRANCH   9  14
ATOM     14  C   UNL     1       4.458   3.986  16.838  0.00  0.00    +0.000 C 
BRANCH  14  15
ATOM     15  C   UNL     1       3.645   5.054  17.553  0.00  0.00    +0.000 C 
BRANCH  15  16
ATOM     16  C   UNL     1       3.473   4.637  19.006  0.00  0.00    +0.000 C 
BRANCH  16  17
ATOM     17  O   UNL     1       3.930   5.755  19.788  0.00  0.00    +0.000 OA
ATOM     18  H   UNL     1       3.112   6.359  19.730  0.00  0.00    +0.000 HD
ENDBRANCH  16  17
BRANCH  16  19
ATOM     19  C   UNL     1       2.010   4.284  19.291  0.00  0.00    +0.000 C 
BRANCH  19  20
ATOM     20  P   UNL     1       1.741   3.301  20.810  0.00  0.00    +0.000 P 
ATOM     21  O   UNL     1       2.823   2.372  20.196  0.00  0.00    +0.000 OA
ATOM     22  O   UNL     1       2.198   4.592  21.547  0.00  0.00    +0.000 OA
ATOM     23  O   UNL     1       1.486   2.370  22.247  0.00  0.00    +0.000 OA
ENDBRANCH  19  20
ENDBRANCH  16  19
ENDBRANCH  15  16
ENDBRANCH  14  15
ENDBRANCH   9  14
TORSDOF 6
ENDMDL
MODEL 9
REMARK VINA RESULT:      -6.6      3.479      6.728
REMARK  Name = 
REMARK  6 active torsions:
REMARK  status: ('A' for Active; 'I' for Inactive)
REMARK    1  A    between atoms: N_9  and  C_10
REMARK    2  A    between atoms: C_10  and  C_11
REMARK    3  A    between atoms: C_11  and  C_12
REMARK    4  A    between atoms: C_12  and  O_13
REMARK    5  A    between atoms: C_12  and  C_14
REMARK    6  A    between atoms: C_14  and  P_15
REMARK                            x       y       z     vdW  Elec       q    Type
REMARK                         _______ _______ _______ _____ _____    ______ ____
ROOT
ATOM      1  O   UNL     1       5.589   2.575  11.716  0.00  0.00    +0.000 OA
ATOM      2  C   UNL     1       6.094   3.301  12.570  0.00  0.00    +0.000 A 
ATOM      3  N   UNL     1       7.140   4.134  12.247  0.00  0.00    +0.000 N 
ATOM      4  C   UNL     1       7.729   5.118  13.059  0.00  0.00    +0.000 A 
ATOM      5  O   UNL     1       8.503   5.929  12.620  0.00  0.00    +0.000 OA
ATOM      6  C   UNL     1       7.223   5.082  14.417  0.00  0.00    +0.000 A 
ATOM      7  N   UNL     1       7.584   5.845  15.504  0.00  0.00    +0.000 NA
ATOM      8  C   UNL     1       6.891   5.337  16.500  0.00  0.00    +0.000 A 
ATOM      9  N   UNL     1       6.018   4.377  16.080  0.00  0.00    +0.000 N 
ATOM     10  C   UNL     1       6.243   4.202  14.738  0.00  0.00    +0.000 A 
ATOM     11  N   UNL     1       5.629   3.341  13.871  0.00  0.00    +0.000 N 
ATOM     12  H   UNL     1       7.447   4.100  11.288  0.00  0.00    +0.000 HD
ATOM     13  H   UNL     1       4.885   2.706  14.125  0.00  0.00    +0.000 HD
ENDROOT
BRANCH   9  14
ATOM     14  C   UNL     1       4.986   3.753  16.884  0.00  0.00    +0.000 C 
BRANCH  14  15
ATOM     15  C   UNL     1       5.177   3.954  18.379  0.00  0.00    +0.000 C 
BRANCH  15  16
ATOM     16  C   UNL     1       4.324   2.931  19.115  0.00  0.00    +0.000 C 
BRANCH  16  17
ATOM     17  O   UNL     1       5.188   2.343  20.103  0.00  0.00    +0.000 OA
ATOM     18  H   UNL     1       5.851   3.105  20.236  0.00  0.00    +0.000 HD
ENDBRANCH  16  17
BRANCH  16  19
ATOM     19  C   UNL     1       3.098   3.606  19.737  0.00  0.00    +0.000 C 
BRANCH  19  20
ATOM     20  P   UNL     1       1.493   2.861  19.272  0.00  0.00    +0.000 P 
ATOM     21  O   UNL     1       1.369   4.113  18.364  0.00  0.00    +0.000 OA
ATOM     22  O   UNL     1       2.361   1.667  18.781  0.00  0.00    +0.000 OA
ATOM     23  O   UNL     1      -0.025   2.156  18.833  0.00  0.00    +0.000 OA
ENDBRANCH  19  20
ENDBRANCH  16  19
ENDBRANCH  15  16
ENDBRANCH  14  15
ENDBRANCH   9  14
TORSDOF 6
ENDMDL
