MODEL 1
REMARK VINA RESULT:      -7.5      0.000      0.000
REMARK  Name = 
REMARK  5 active torsions:
REMARK  status: ('A' for Active; 'I' for Inactive)
REMARK    1  A    between atoms: C_1  and  C_2
REMARK    2  A    between atoms: C_2  and  C_3
REMARK    3  A    between atoms: C_3  and  N_4
REMARK    4  A    between atoms: N_4  and  C_5
REMARK    5  A    between atoms: C_10  and  C_11
REMARK                            x       y       z     vdW  Elec       q    Type
REMARK                         _______ _______ _______ _____ _____    ______ ____
ROOT
ATOM      1  C   UNL     1       6.648   4.369  16.980  0.00  0.00    +0.000 A 
ATOM      2  C   UNL     1       7.429   4.702  15.861  0.00  0.00    +0.000 A 
ATOM      3  C   UNL     1       6.906   4.687  14.565  0.00  0.00    +0.000 A 
ATOM      4  C   UNL     1       5.572   4.367  14.360  0.00  0.00    +0.000 A 
ATOM      5  C   UNL     1       4.765   4.055  15.450  0.00  0.00    +0.000 A 
ATOM      6  C   UNL     1       5.289   4.052  16.758  0.00  0.00    +0.000 A 
ENDROOT
BRANCH   6   7
ATOM      7  C   UNL     1       4.339   3.776  17.862  0.00  0.00    +0.000 A 
ATOM      8  N   UNL     1       4.624   3.108  18.956  0.00  0.00    +0.000 NA
ATOM      9  C   UNL     1       3.452   3.151  19.651  0.00  0.00    +0.000 A 
ATOM     10  C   UNL     1       3.066   2.683  20.845  0.00  0.00    +0.000 A 
ATOM     11  C   UNL     1       1.705   2.938  21.327  0.00  0.00    +0.000 A 
ATOM     12  C   UNL     1       0.837   3.632  20.561  0.00  0.00    +0.000 A 
ATOM     13  N   UNL     1       1.192   4.109  19.316  0.00  0.00    +0.000 N 
ATOM     14  C   UNL     1       2.460   3.901  18.851  0.00  0.00    +0.000 A 
ATOM     15  N   UNL     1       3.028   4.262  17.744  0.00  0.00    +0.000 NA
ATOM     16  H   UNL     1       0.539   4.655  18.773  0.00  0.00    +0.000 HD
ENDBRANCH   6   7
BRANCH   1  17
ATOM     17  N   UNL     1       7.163   4.479  18.266  0.00  0.00    +0.000 N 
ATOM     18  H   UNL     1       7.884   3.795  18.498  0.00  0.00    +0.000 HD
BRANCH  17  19
ATOM     19  C   UNL     1       7.056   5.677  19.073  0.00  0.00    +0.000 C 
BRANCH  19  21
ATOM     20  C   UNL     1       7.667   7.757  17.738  0.00  0.00    +0.000 C 
ATOM     21  C   UNL     1       8.151   6.677  18.699  0.00  0.00    +0.000 C 
ENDBRANCH  19  21
ENDBRANCH  17  19
ENDBRANCH   1  17
TORSDOF 4
ENDMDL
MODEL 2
REMARK VINA RESULT:      -7.4      0.992      1.111
REMARK  Name = 
REMARK  5 active torsions:
REMARK  status: ('A' for Active; 'I' for Inactive)
REMARK    1  A    between atoms: C_1  and  C_2
REMARK    2  A    between atoms: C_2  and  C_3
REMARK    3  A    between atoms: C_3  and  N_4
REMARK    4  A    between atoms: N_4  and  C_5
REMARK    5  A    between atoms: C_10  and  C_11
REMARK                            x       y       z     vdW  Elec       q    Type
REMARK                         _______ _______ _______ _____ _____    ______ ____
ROOT
ATOM      1  C   UNL     1       6.705   4.440  16.860  0.00  0.00    +0.000 A 
ATOM      2  C   UNL     1       7.469   4.688  15.706  0.00  0.00    +0.000 A 
ATOM      3  C   UNL     1       6.906   4.659  14.428  0.00  0.00    +0.000 A 
ATOM      4  C   UNL     1       5.550   4.410  14.273  0.00  0.00    +0.000 A 
ATOM      5  C   UNL     1       4.761   4.183  15.397  0.00  0.00    +0.000 A 
ATOM      6  C   UNL     1       5.323   4.195  16.688  0.00  0.00    +0.000 A 
ENDROOT
BRANCH   6   7
ATOM      7  C   UNL     1       4.394   4.014  17.829  0.00  0.00    +0.000 A 
ATOM      8  N   UNL     1       4.129   4.921  18.740  0.00  0.00    +0.000 NA
ATOM      9  C   UNL     1       3.218   4.293  19.537  0.00  0.00    +0.000 A 
ATOM     10  C   UNL     1       2.534   4.660  20.628  0.00  0.00    +0.000 A 
ATOM     11  C   UNL     1       1.579   3.732  21.240  0.00  0.00    +0.000 A 
ATOM     12  C   UNL     1       1.401   2.502  20.714  0.00  0.00    +0.000 A 
ATOM     13  N   UNL     1       2.106   2.081  19.605  0.00  0.00    +0.000 N 
ATOM     14  C   UNL     1       2.988   2.933  19.004  0.00  0.00    +0.000 A 
ATOM     15  N   UNL     1       3.738   2.781  17.958  0.00  0.00    +0.000 NA
ATOM     16  H   UNL     1       1.934   1.169  19.206  0.00  0.00    +0.000 HD
ENDBRANCH   6   7
BRANCH   1  17
ATOM     17  N   UNL     1       7.264   4.564  18.125  0.00  0.00    +0.000 N 
ATOM     18  H   UNL     1       7.592   3.689  18.535  0.00  0.00    +0.000 HD
BRANCH  17  19
ATOM     19  C   UNL     1       7.764   5.813  18.663  0.00  0.00    +0.000 C 
BRANCH  19  21
ATOM     20  C   UNL     1       7.982   8.157  17.694  0.00  0.00    +0.000 C 
ATOM     21  C   UNL     1       7.045   7.000  18.022  0.00  0.00    +0.000 C 
ENDBRANCH  19  21
ENDBRANCH  17  19
ENDBRANCH   1  17
TORSDOF 4
ENDMDL
MODEL 3
REMARK VINA RESULT:      -7.3      1.976      5.783
REMARK  Name = 
REMARK  5 active torsions:
REMARK  status: ('A' for Active; 'I' for Inactive)
REMARK    1  A    between atoms: C_1  and  C_2
REMARK    2  A    between atoms: C_2  and  C_3
REMARK    3  A    between atoms: C_3  and  N_4
REMARK    4  A    between atoms: N_4  and  C_5
REMARK    5  A    between atoms: C_10  and  C_11
REMARK                            x       y       z     vdW  Elec       q    Type
REMARK                         _______ _______ _______ _____ _____    ______ ____
ROOT
ATOM      1  C   UNL     1       2.674   4.725  19.966  0.00  0.00    +0.000 A 
ATOM      2  C   UNL     1       1.806   4.356  21.007  0.00  0.00    +0.000 A 
ATOM      3  C   UNL     1       1.299   3.059  21.121  0.00  0.00    +0.000 A 
ATOM      4  C   UNL     1       1.677   2.085  20.209  0.00  0.00    +0.000 A 
ATOM      5  C   UNL     1       2.554   2.412  19.179  0.00  0.00    +0.000 A 
ATOM      6  C   UNL     1       3.056   3.721  19.047  0.00  0.00    +0.000 A 
ENDROOT
BRANCH   6   7
ATOM      7  C   UNL     1       4.040   3.959  17.963  0.00  0.00    +0.000 A 
ATOM      8  N   UNL     1       3.794   3.840  16.679  0.00  0.00    +0.000 NA
ATOM      9  C   UNL     1       4.983   4.184  16.109  0.00  0.00    +0.000 A 
ATOM     10  C   UNL     1       5.408   4.289  14.844  0.00  0.00    +0.000 A 
ATOM     11  C   UNL     1       6.778   4.729  14.564  0.00  0.00    +0.000 A 
ATOM     12  C   UNL     1       7.616   5.014  15.583  0.00  0.00    +0.000 A 
ATOM     13  N   UNL     1       7.221   4.895  16.900  0.00  0.00    +0.000 N 
ATOM     14  C   UNL     1       5.944   4.504  17.187  0.00  0.00    +0.000 A 
ATOM     15  N   UNL     1       5.340   4.342  18.322  0.00  0.00    +0.000 NA
ATOM     16  H   UNL     1       7.852   5.145  17.648  0.00  0.00    +0.000 HD
ENDBRANCH   6   7
BRANCH   1  17
ATOM     17  N   UNL     1       3.237   5.994  19.924  0.00  0.00    +0.000 N 
ATOM     18  H   UNL     1       4.251   6.009  19.811  0.00  0.00    +0.000 HD
BRANCH  17  19
ATOM     19  C   UNL     1       2.487   7.195  19.616  0.00  0.00    +0.000 C 
BRANCH  19  21
ATOM     20  C   UNL     1       1.898   8.823  17.749  0.00  0.00    +0.000 C 
ATOM     21  C   UNL     1       2.514   7.476  18.114  0.00  0.00    +0.000 C 
ENDBRANCH  19  21
ENDBRANCH  17  19
ENDBRANCH   1  17
TORSDOF 4
ENDMDL
MODEL 4
REMARK VINA RESULT:      -7.3      2.957      6.190
REMARK  Name = 
REMARK  5 active torsions:
REMARK  status: ('A' for Active; 'I' for Inactive)
REMARK    1  A    between atoms: C_1  and  C_2
REMARK    2  A    between atoms: C_2  and  C_3
REMARK    3  A    between atoms: C_3  and  N_4
REMARK    4  A    between atoms: N_4  and  C_5
REMARK    5  A    between atoms: C_10  and  C_11
REMARK                            x       y       z     vdW  Elec       q    Type
REMARK                         _______ _______ _______ _____ _____    ______ ____
ROOT
ATOM      1  C   UNL     1       2.525   6.892  19.841  0.00  0.00    +0.000 A 
ATOM      2  C   UNL     1       1.606   7.725  20.501  0.00  0.00    +0.000 A 
ATOM      3  C   UNL     1       1.089   8.876  19.900  0.00  0.00    +0.000 A 
ATOM      4  C   UNL     1       1.458   9.207  18.604  0.00  0.00    +0.000 A 
ATOM      5  C   UNL     1       2.349   8.390  17.914  0.00  0.00    +0.000 A 
ATOM      6  C   UNL     1       2.887   7.237  18.519  0.00  0.00    +0.000 A 
ENDROOT
BRANCH   6   7
ATOM      7  C   UNL     1       3.772   6.390  17.684  0.00  0.00    +0.000 A 
ATOM      8  N   UNL     1       3.625   5.099  17.493  0.00  0.00    +0.000 NA
ATOM      9  C   UNL     1       4.652   4.798  16.649  0.00  0.00    +0.000 A 
ATOM     10  C   UNL     1       5.062   3.671  16.055  0.00  0.00    +0.000 A 
ATOM     11  C   UNL     1       6.216   3.696  15.151  0.00  0.00    +0.000 A 
ATOM     12  C   UNL     1       6.875   4.853  14.931  0.00  0.00    +0.000 A 
ATOM     13  N   UNL     1       6.497   6.029  15.544  0.00  0.00    +0.000 N 
ATOM     14  C   UNL     1       5.413   6.037  16.376  0.00  0.00    +0.000 A 
ATOM     15  N   UNL     1       4.858   7.002  17.040  0.00  0.00    +0.000 NA
ATOM     16  H   UNL     1       6.982   6.891  15.340  0.00  0.00    +0.000 HD
ENDBRANCH   6   7
BRANCH   1  17
ATOM     17  N   UNL     1       2.955   5.706  20.421  0.00  0.00    +0.000 N 
ATOM     18  H   UNL     1       3.941   5.692  20.686  0.00  0.00    +0.000 HD
BRANCH  17  19
ATOM     19  C   UNL     1       2.062   4.735  21.020  0.00  0.00    +0.000 C 
BRANCH  19  21
ATOM     20  C   UNL     1       1.203   2.674  19.796  0.00  0.00    +0.000 C 
ATOM     21  C   UNL     1       1.090   4.184  19.976  0.00  0.00    +0.000 C 
ENDBRANCH  19  21
ENDBRANCH  17  19
ENDBRANCH   1  17
TORSDOF 4
ENDMDL
MODEL 5
REMARK VINA RESULT:      -7.2      2.206      5.696
REMARK  Name = 
REMARK  5 active torsions:
REMARK  status: ('A' for Active; 'I' for Inactive)
REMARK    1  A    between atoms: C_1  and  C_2
REMARK    2  A    between atoms: C_2  and  C_3
REMARK    3  A    between atoms: C_3  and  N_4
REMARK    4  A    between atoms: N_4  and  C_5
REMARK    5  A    between atoms: C_10  and  C_11
REMARK                            x       y       z     vdW  Elec       q    Type
REMARK                         _______ _______ _______ _____ _____    ______ ____
ROOT
ATOM      1  C   UNL     1       2.551   4.842  19.931  0.00  0.00    +0.000 A 
ATOM      2  C   UNL     1       1.600   4.438  20.883  0.00  0.00    +0.000 A 
ATOM      3  C   UNL     1       1.137   3.122  20.950  0.00  0.00    +0.000 A 
ATOM      4  C   UNL     1       1.640   2.164  20.081  0.00  0.00    +0.000 A 
ATOM      5  C   UNL     1       2.600   2.527  19.141  0.00  0.00    +0.000 A 
ATOM      6  C   UNL     1       3.061   3.855  19.056  0.00  0.00    +0.000 A 
ENDROOT
BRANCH   6   7
ATOM      7  C   UNL     1       4.135   4.134  18.073  0.00  0.00    +0.000 A 
ATOM      8  N   UNL     1       5.350   4.532  18.372  0.00  0.00    +0.000 NA
ATOM      9  C   UNL     1       5.949   4.621  17.151  0.00  0.00    +0.000 A 
ATOM     10  C   UNL     1       7.182   4.951  16.746  0.00  0.00    +0.000 A 
ATOM     11  C   UNL     1       7.521   4.910  15.321  0.00  0.00    +0.000 A 
ATOM     12  C   UNL     1       6.586   4.555  14.414  0.00  0.00    +0.000 A 
ATOM     13  N   UNL     1       5.299   4.232  14.792  0.00  0.00    +0.000 N 
ATOM     14  C   UNL     1       4.962   4.244  16.116  0.00  0.00    +0.000 A 
ATOM     15  N   UNL     1       3.846   3.963  16.711  0.00  0.00    +0.000 NA
ATOM     16  H   UNL     1       4.623   3.936  14.102  0.00  0.00    +0.000 HD
ENDBRANCH   6   7
BRANCH   1  17
ATOM     17  N   UNL     1       3.065   6.133  19.940  0.00  0.00    +0.000 N 
ATOM     18  H   UNL     1       4.082   6.189  19.882  0.00  0.00    +0.000 HD
BRANCH  17  19
ATOM     19  C   UNL     1       2.284   7.310  19.615  0.00  0.00    +0.000 C 
BRANCH  19  21
ATOM     20  C   UNL     1       1.961   9.100  17.834  0.00  0.00    +0.000 C 
ATOM     21  C   UNL     1       2.497   7.709  18.155  0.00  0.00    +0.000 C 
ENDBRANCH  19  21
ENDBRANCH  17  19
ENDBRANCH   1  17
TORSDOF 4
ENDMDL
MODEL 6
REMARK VINA RESULT:      -7.1      0.978      1.028
REMARK  Name = 
REMARK  5 active torsions:
REMARK  status: ('A' for Active; 'I' for Inactive)
REMARK    1  A    between atoms: C_1  and  C_2
REMARK    2  A    between atoms: C_2  and  C_3
REMARK    3  A    between atoms: C_3  and  N_4
REMARK    4  A    between atoms: N_4  and  C_5
REMARK    5  A    between atoms: C_10  and  C_11
REMARK                            x       y       z     vdW  Elec       q    Type
REMARK                         _______ _______ _______ _____ _____    ______ ____
ROOT
ATOM      1  C   UNL     1       6.556   4.264  16.733  0.00  0.00    +0.000 A 
ATOM      2  C   UNL     1       7.392   4.592  15.652  0.00  0.00    +0.000 A 
ATOM      3  C   UNL     1       6.912   4.660  14.342  0.00  0.00    +0.000 A 
ATOM      4  C   UNL     1       5.569   4.432  14.082  0.00  0.00    +0.000 A 
ATOM      5  C   UNL     1       4.709   4.127  15.134  0.00  0.00    +0.000 A 
ATOM      6  C   UNL     1       5.187   4.040  16.455  0.00  0.00    +0.000 A 
ENDROOT
BRANCH   6   7
ATOM      7  C   UNL     1       4.187   3.781  17.518  0.00  0.00    +0.000 A 
ATOM      8  N   UNL     1       3.414   2.721  17.588  0.00  0.00    +0.000 NA
ATOM      9  C   UNL     1       2.708   2.936  18.734  0.00  0.00    +0.000 A 
ATOM     10  C   UNL     1       1.771   2.238  19.388  0.00  0.00    +0.000 A 
ATOM     11  C   UNL     1       1.225   2.749  20.649  0.00  0.00    +0.000 A 
ATOM     12  C   UNL     1       1.655   3.929  21.143  0.00  0.00    +0.000 A 
ATOM     13  N   UNL     1       2.601   4.687  20.483  0.00  0.00    +0.000 N 
ATOM     14  C   UNL     1       3.140   4.225  19.316  0.00  0.00    +0.000 A 
ATOM     15  N   UNL     1       4.043   4.733  18.538  0.00  0.00    +0.000 NA
ATOM     16  H   UNL     1       2.935   5.551  20.886  0.00  0.00    +0.000 HD
ENDBRANCH   6   7
BRANCH   1  17
ATOM     17  N   UNL     1       7.033   4.290  18.037  0.00  0.00    +0.000 N 
ATOM     18  H   UNL     1       6.763   3.489  18.607  0.00  0.00    +0.000 HD
BRANCH  17  19
ATOM     19  C   UNL     1       8.156   5.101  18.464  0.00  0.00    +0.000 C 
BRANCH  19  21
ATOM     20  C   UNL     1       7.710   7.507  17.761  0.00  0.00    +0.000 C 
ATOM     21  C   UNL     1       7.683   6.489  18.896  0.00  0.00    +0.000 C 
ENDBRANCH  19  21
ENDBRANCH  17  19
ENDBRANCH   1  17
TORSDOF 4
ENDMDL
MODEL 7
REMARK VINA RESULT:      -7.1      3.505      5.068
REMARK  Name = 
REMARK  5 active torsions:
REMARK  status: ('A' for Active; 'I' for Inactive)
REMARK    1  A    between atoms: C_1  and  C_2
REMARK    2  A    between atoms: C_2  and  C_3
REMARK    3  A    between atoms: C_3  and  N_4
REMARK    4  A    between atoms: N_4  and  C_5
REMARK    5  A    between atoms: C_10  and  C_11
REMARK                            x       y       z     vdW  Elec       q    Type
REMARK                         _______ _______ _______ _____ _____    ______ ____
ROOT
ATOM      1  C   UNL     1       3.619   4.635  17.637  0.00  0.00    +0.000 A 
ATOM      2  C   UNL     1       4.510   3.892  16.845  0.00  0.00    +0.000 A 
ATOM      3  C   UNL     1       5.428   4.507  15.991  0.00  0.00    +0.000 A 
ATOM      4  C   UNL     1       5.500   5.891  15.930  0.00  0.00    +0.000 A 
ATOM      5  C   UNL     1       4.646   6.658  16.719  0.00  0.00    +0.000 A 
ATOM      6  C   UNL     1       3.707   6.045  17.571  0.00  0.00    +0.000 A 
ENDROOT
BRANCH   6   7
ATOM      7  C   UNL     1       2.890   6.939  18.426  0.00  0.00    +0.000 A 
ATOM      8  N   UNL     1       2.585   6.714  19.683  0.00  0.00    +0.000 NA
ATOM      9  C   UNL     1       1.857   7.816  20.021  0.00  0.00    +0.000 A 
ATOM     10  C   UNL     1       1.265   8.224  21.151  0.00  0.00    +0.000 A 
ATOM     11  C   UNL     1       0.572   9.515  21.190  0.00  0.00    +0.000 A 
ATOM     12  C   UNL     1       0.517  10.285  20.083  0.00  0.00    +0.000 A 
ATOM     13  N   UNL     1       1.094   9.886  18.895  0.00  0.00    +0.000 N 
ATOM     14  C   UNL     1       1.763   8.696  18.837  0.00  0.00    +0.000 A 
ATOM     15  N   UNL     1       2.395   8.124  17.861  0.00  0.00    +0.000 NA
ATOM     16  H   UNL     1       1.071  10.492  18.086  0.00  0.00    +0.000 HD
ENDBRANCH   6   7
BRANCH   1  17
ATOM     17  N   UNL     1       2.778   4.006  18.546  0.00  0.00    +0.000 N 
ATOM     18  H   UNL     1       2.880   4.321  19.512  0.00  0.00    +0.000 HD
BRANCH  17  19
ATOM     19  C   UNL     1       1.567   3.307  18.168  0.00  0.00    +0.000 C 
BRANCH  19  21
ATOM     20  C   UNL     1       1.160   3.598  20.664  0.00  0.00    +0.000 C 
ATOM     21  C   UNL     1       0.829   2.801  19.408  0.00  0.00    +0.000 C 
ENDBRANCH  19  21
ENDBRANCH  17  19
ENDBRANCH   1  17
TORSDOF 4
ENDMDL
MODEL 8
REMARK VINA RESULT:      -7.0      3.369      5.096
REMARK  Name = 
REMARK  5 active torsions:
REMARK  status: ('A' for Active; 'I' for Inactive)
REMARK    1  A    between atoms: C_1  and  C_2
REMARK    2  A    between atoms: C_2  and  C_3
REMARK    3  A    between atoms: C_3  and  N_4
REMARK    4  A    between atoms: N_4  and  C_5
REMARK    5  A    between atoms: C_10  and  C_11
REMARK                            x       y       z     vdW  Elec       q    Type
REMARK                         _______ _______ _______ _____ _____    ______ ____
ROOT
ATOM      1  C   UNL     1       3.602   4.537  17.649  0.00  0.00    +0.000 A 
ATOM      2  C   UNL     1       4.477   3.709  16.925  0.00  0.00    +0.000 A 
ATOM      3  C   UNL     1       5.433   4.230  16.051  0.00  0.00    +0.000 A 
ATOM      4  C   UNL     1       5.561   5.603  15.901  0.00  0.00    +0.000 A 
ATOM      5  C   UNL     1       4.726   6.453  16.620  0.00  0.00    +0.000 A 
ATOM      6  C   UNL     1       3.747   5.935  17.492  0.00  0.00    +0.000 A 
ENDROOT
BRANCH   6   7
ATOM      7  C   UNL     1       2.952   6.915  18.269  0.00  0.00    +0.000 A 
ATOM      8  N   UNL     1       2.424   8.016  17.785  0.00  0.00    +0.000 NA
ATOM      9  C   UNL     1       1.785   8.546  18.865  0.00  0.00    +0.000 A 
ATOM     10  C   UNL     1       1.041   9.644  19.054  0.00  0.00    +0.000 A 
ATOM     11  C   UNL     1       0.453   9.914  20.369  0.00  0.00    +0.000 A 
ATOM     12  C   UNL     1       0.675   9.064  21.394  0.00  0.00    +0.000 A 
ATOM     13  N   UNL     1       1.456   7.936  21.243  0.00  0.00    +0.000 N 
ATOM     14  C   UNL     1       2.000   7.652  20.022  0.00  0.00    +0.000 A 
ATOM     15  N   UNL     1       2.736   6.660  19.631  0.00  0.00    +0.000 NA
ATOM     16  H   UNL     1       1.582   7.295  22.013  0.00  0.00    +0.000 HD
ENDBRANCH   6   7
BRANCH   1  17
ATOM     17  N   UNL     1       2.721   4.004  18.580  0.00  0.00    +0.000 N 
ATOM     18  H   UNL     1       2.680   4.506  19.467  0.00  0.00    +0.000 HD
BRANCH  17  19
ATOM     19  C   UNL     1       1.631   3.114  18.234  0.00  0.00    +0.000 C 
BRANCH  19  21
ATOM     20  C   UNL     1       1.250   3.486  20.724  0.00  0.00    +0.000 C 
ATOM     21  C   UNL     1       0.676   2.949  19.417  0.00  0.00    +0.000 C 
ENDBRANCH  19  21
ENDBRANCH  17  19
ENDBRANCH   1  17
TORSDOF 4
ENDMDL
MODEL 9
REMARK VINA RESULT:      -7.0      2.302      5.990
REMARK  Name = 
REMARK  5 active torsions:
REMARK  status: ('A' for Active; 'I' for Inactive)
REMARK    1  A    between atoms: C_1  and  C_2
REMARK    2  A    between atoms: C_2  and  C_3
REMARK    3  A    between atoms: C_3  and  N_4
REMARK    4  A    between atoms: N_4  and  C_5
REMARK    5  A    between atoms: C_10  and  C_11
REMARK                            x       y       z     vdW  Elec       q    Type
REMARK                         _______ _______ _______ _____ _____    ______ ____
ROOT
ATOM      1  C   UNL     1       1.881   4.692  19.960  0.00  0.00    +0.000 A 
ATOM      2  C   UNL     1       0.764   3.887  20.235  0.00  0.00    +0.000 A 
ATOM      3  C   UNL     1       0.523   2.697  19.544  0.00  0.00    +0.000 A 
ATOM      4  C   UNL     1       1.418   2.264  18.576  0.00  0.00    +0.000 A 
ATOM      5  C   UNL     1       2.547   3.028  18.295  0.00  0.00    +0.000 A 
ATOM      6  C   UNL     1       2.788   4.237  18.976  0.00  0.00    +0.000 A 
ENDROOT
BRANCH   6   7
ATOM      7  C   UNL     1       4.052   4.947  18.661  0.00  0.00    +0.000 A 
ATOM      8  N   UNL     1       4.214   5.802  17.679  0.00  0.00    +0.000 NA
ATOM      9  C   UNL     1       5.514   6.187  17.824  0.00  0.00    +0.000 A 
ATOM     10  C   UNL     1       6.305   7.045  17.168  0.00  0.00    +0.000 A 
ATOM     11  C   UNL     1       7.685   7.259  17.613  0.00  0.00    +0.000 A 
ATOM     12  C   UNL     1       8.163   6.579  18.677  0.00  0.00    +0.000 A 
ATOM     13  N   UNL     1       7.386   5.668  19.362  0.00  0.00    +0.000 N 
ATOM     14  C   UNL     1       6.090   5.465  18.979  0.00  0.00    +0.000 A 
ATOM     15  N   UNL     1       5.171   4.694  19.468  0.00  0.00    +0.000 NA
ATOM     16  H   UNL     1       7.751   5.194  20.176  0.00  0.00    +0.000 HD
ENDBRANCH   6   7
BRANCH   1  17
ATOM     17  N   UNL     1       2.149   5.823  20.721  0.00  0.00    +0.000 N 
ATOM     18  H   UNL     1       2.836   5.687  21.463  0.00  0.00    +0.000 HD
BRANCH  17  19
ATOM     19  C   UNL     1       1.862   7.173  20.279  0.00  0.00    +0.000 C 
BRANCH  19  21
ATOM     20  C   UNL     1       0.926   9.409  21.061  0.00  0.00    +0.000 C 
ATOM     21  C   UNL     1       1.010   7.907  21.315  0.00  0.00    +0.000 C 
ENDBRANCH  19  21
ENDBRANCH  17  19
ENDBRANCH   1  17
TORSDOF 4
ENDMDL
