MODEL 1
REMARK VINA RESULT:      -6.6      0.000      0.000
REMARK  Name = 
REMARK  8 active torsions:
REMARK  status: ('A' for Active; 'I' for Inactive)
REMARK    1  A    between atoms: C_2  and  O_3
REMARK    2  A    between atoms: C_2  and  C_4
REMARK    3  A    between atoms: C_4  and  C_5
REMARK    4  A    between atoms: N_9  and  C_10
REMARK    5  A    between atoms: C_10  and  C_12
REMARK    6  A    between atoms: C_12  and  S_13
REMARK    7  A    between atoms: S_13  and  C_14
REMARK    8  A    between atoms: N_20  and  O_21
REMARK                            x       y       z     vdW  Elec       q    Type
REMARK                         _______ _______ _______ _____ _____    ______ ____
ROOT
ATOM      1  C   UNL     1       5.845   5.360  16.684  0.00  0.00    +0.000 A 
ATOM      2  C   UNL     1       6.658   5.977  17.562  0.00  0.00    +0.000 A 
ATOM      3  S   UNL     1       6.475   5.355  19.188  0.00  0.00    +0.000 S 
ATOM      4  C   UNL     1       5.198   4.199  18.658  0.00  0.00    +0.000 A 
ATOM      5  N   UNL     1       4.713   3.437  19.574  0.00  0.00    +0.000 NA
ATOM      6  N   UNL     1       5.007   4.421  17.293  0.00  0.00    +0.000 N 
ENDROOT
BRANCH   5   7
ATOM      7  C   UNL     1       3.650   2.627  19.273  0.00  0.00    +0.000 C 
ATOM      8  O   UNL     1       3.776   1.494  18.806  0.00  0.00    +0.000 OA
BRANCH   7   9
ATOM      9  C   UNL     1       2.289   3.298  19.465  0.00  0.00    +0.000 C 
BRANCH   9  10
ATOM     10  S   UNL     1       2.395   4.536  20.806  0.00  0.00    +0.000 S 
BRANCH  10  11
ATOM     11  C   UNL     1       2.138   6.087  19.960  0.00  0.00    +0.000 A 
ATOM     12  C   UNL     1       1.637   7.155  20.719  0.00  0.00    +0.000 A 
ATOM     13  C   UNL     1       1.496   8.429  20.161  0.00  0.00    +0.000 A 
ATOM     14  C   UNL     1       1.858   8.650  18.837  0.00  0.00    +0.000 A 
ATOM     15  C   UNL     1       2.352   7.596  18.070  0.00  0.00    +0.000 A 
ATOM     16  C   UNL     1       2.493   6.320  18.628  0.00  0.00    +0.000 A 
ENDBRANCH  10  11
ENDBRANCH   9  10
ENDBRANCH   7   9
ENDBRANCH   5   7
BRANCH   6  17
ATOM     17  O   UNL     1       4.407   3.421  16.533  0.00  0.00    +0.000 OA
ATOM     18  H   UNL     1       4.535   2.618  17.087  0.00  0.00    +0.000 HD
ENDBRANCH   6  17
BRANCH   1  19
ATOM     19  C   UNL     1       5.762   5.557  15.193  0.00  0.00    +0.000 C 
BRANCH  19  21
ATOM     20  O   UNL     1       7.818   5.334  13.883  0.00  0.00    +0.000 OA
ATOM     21  C   UNL     1       6.797   4.841  14.336  0.00  0.00    +0.000 C 
BRANCH  21  22
ATOM     22  O   UNL     1       6.442   3.563  14.044  0.00  0.00    +0.000 OA
ATOM     23  H   UNL     1       7.073   3.080  13.475  0.00  0.00    +0.000 HD
ENDBRANCH  21  22
ENDBRANCH  19  21
ENDBRANCH   1  19
TORSDOF 8
ENDMDL
MODEL 2
REMARK VINA RESULT:      -6.6      2.252      2.845
REMARK  Name = 
REMARK  8 active torsions:
REMARK  status: ('A' for Active; 'I' for Inactive)
REMARK    1  A    between atoms: C_2  and  O_3
REMARK    2  A    between atoms: C_2  and  C_4
REMARK    3  A    between atoms: C_4  and  C_5
REMARK    4  A    between atoms: N_9  and  C_10
REMARK    5  A    between atoms: C_10  and  C_12
REMARK    6  A    between atoms: C_12  and  S_13
REMARK    7  A    between atoms: S_13  and  C_14
REMARK    8  A    between atoms: N_20  and  O_21
REMARK                            x       y       z     vdW  Elec       q    Type
REMARK                         _______ _______ _______ _____ _____    ______ ____
ROOT
ATOM      1  C   UNL     1       6.866   4.568  17.222  0.00  0.00    +0.000 A 
ATOM      2  C   UNL     1       6.707   5.042  15.972  0.00  0.00    +0.000 A 
ATOM      3  S   UNL     1       5.096   4.748  15.350  0.00  0.00    +0.000 S 
ATOM      4  C   UNL     1       4.608   3.906  16.867  0.00  0.00    +0.000 A 
ATOM      5  N   UNL     1       3.395   3.478  16.907  0.00  0.00    +0.000 NA
ATOM      6  N   UNL     1       5.733   3.898  17.694  0.00  0.00    +0.000 N 
ENDROOT
BRANCH   5   7
ATOM      7  C   UNL     1       2.993   2.716  17.972  0.00  0.00    +0.000 C 
ATOM      8  O   UNL     1       3.430   1.587  18.198  0.00  0.00    +0.000 OA
BRANCH   7   9
ATOM      9  C   UNL     1       1.868   3.349  18.793  0.00  0.00    +0.000 C 
BRANCH   9  10
ATOM     10  S   UNL     1       2.582   4.351  20.146  0.00  0.00    +0.000 S 
BRANCH  10  11
ATOM     11  C   UNL     1       2.223   6.029  19.652  0.00  0.00    +0.000 A 
ATOM     12  C   UNL     1       1.682   6.882  20.627  0.00  0.00    +0.000 A 
ATOM     13  C   UNL     1       1.461   8.235  20.354  0.00  0.00    +0.000 A 
ATOM     14  C   UNL     1       1.781   8.752  19.103  0.00  0.00    +0.000 A 
ATOM     15  C   UNL     1       2.313   7.915  18.124  0.00  0.00    +0.000 A 
ATOM     16  C   UNL     1       2.535   6.559  18.396  0.00  0.00    +0.000 A 
ENDBRANCH  10  11
ENDBRANCH   9  10
ENDBRANCH   7   9
ENDBRANCH   5   7
BRANCH   6  17
ATOM     17  O   UNL     1       5.553   3.702  19.060  0.00  0.00    +0.000 OA
ATOM     18  H   UNL     1       4.886   2.980  19.093  0.00  0.00    +0.000 HD
ENDBRANCH   6  17
BRANCH   1  19
ATOM     19  C   UNL     1       8.070   4.690  18.119  0.00  0.00    +0.000 C 
BRANCH  19  21
ATOM     20  O   UNL     1       7.601   5.452  20.398  0.00  0.00    +0.000 OA
ATOM     21  C   UNL     1       7.986   5.691  19.265  0.00  0.00    +0.000 C 
BRANCH  21  22
ATOM     22  O   UNL     1       8.327   6.949  18.887  0.00  0.00    +0.000 OA
ATOM     23  H   UNL     1       9.156   7.016  18.375  0.00  0.00    +0.000 HD
ENDBRANCH  21  22
ENDBRANCH  19  21
ENDBRANCH   1  19
TORSDOF 8
ENDMDL
MODEL 3
REMARK VINA RESULT:      -6.6      0.142      1.058
REMARK  Name = 
REMARK  8 active torsions:
REMARK  status: ('A' for Active; 'I' for Inactive)
REMARK    1  A    between atoms: C_2  and  O_3
REMARK    2  A    between atoms: C_2  and  C_4
REMARK    3  A    between atoms: C_4  and  C_5
REMARK    4  A    between atoms: N_9  and  C_10
REMARK    5  A    between atoms: C_10  and  C_12
REMARK    6  A    between atoms: C_12  and  S_13
REMARK    7  A    between atoms: S_13  and  C_14
REMARK    8  A    between atoms: N_20  and  O_21
REMARK                            x       y       z     vdW  Elec       q    Type
REMARK                         _______ _______ _______ _____ _____    ______ ____
ROOT
ATOM      1  C   UNL     1       5.824   5.349  16.612  0.00  0.00    +0.000 A 
ATOM      2  C   UNL     1       6.619   6.013  17.471  0.00  0.00    +0.000 A 
ATOM      3  S   UNL     1       6.466   5.422  19.113  0.00  0.00    +0.000 S 
ATOM      4  C   UNL     1       5.227   4.211  18.615  0.00  0.00    +0.000 A 
ATOM      5  N   UNL     1       4.773   3.454  19.552  0.00  0.00    +0.000 NA
ATOM      6  N   UNL     1       5.021   4.396  17.247  0.00  0.00    +0.000 N 
ENDROOT
BRANCH   5   7
ATOM      7  C   UNL     1       3.737   2.602  19.275  0.00  0.00    +0.000 C 
ATOM      8  O   UNL     1       3.900   1.424  18.951  0.00  0.00    +0.000 OA
BRANCH   7   9
ATOM      9  C   UNL     1       2.363   3.272  19.297  0.00  0.00    +0.000 C 
BRANCH   9  10
ATOM     10  S   UNL     1       2.227   4.354  20.764  0.00  0.00    +0.000 S 
BRANCH  10  11
ATOM     11  C   UNL     1       2.164   5.996  20.065  0.00  0.00    +0.000 A 
ATOM     12  C   UNL     1       2.453   6.121  18.698  0.00  0.00    +0.000 A 
ATOM     13  C   UNL     1       2.334   7.353  18.049  0.00  0.00    +0.000 A 
ATOM     14  C   UNL     1       1.921   8.475  18.760  0.00  0.00    +0.000 A 
ATOM     15  C   UNL     1       1.637   8.366  20.120  0.00  0.00    +0.000 A 
ATOM     16  C   UNL     1       1.757   7.132  20.771  0.00  0.00    +0.000 A 
ENDBRANCH  10  11
ENDBRANCH   9  10
ENDBRANCH   7   9
ENDBRANCH   5   7
BRANCH   6  17
ATOM     17  O   UNL     1       4.452   3.359  16.514  0.00  0.00    +0.000 OA
ATOM     18  H   UNL     1       4.490   2.601  17.139  0.00  0.00    +0.000 HD
ENDBRANCH   6  17
BRANCH   1  19
ATOM     19  C   UNL     1       5.726   5.509  15.118  0.00  0.00    +0.000 C 
BRANCH  19  21
ATOM     20  O   UNL     1       7.786   5.326  13.808  0.00  0.00    +0.000 OA
ATOM     21  C   UNL     1       6.781   4.810  14.271  0.00  0.00    +0.000 C 
BRANCH  21  22
ATOM     22  O   UNL     1       6.465   3.518  14.001  0.00  0.00    +0.000 OA
ATOM     23  H   UNL     1       6.419   2.933  14.782  0.00  0.00    +0.000 HD
ENDBRANCH  21  22
ENDBRANCH  19  21
ENDBRANCH   1  19
TORSDOF 8
ENDMDL
MODEL 4
REMARK VINA RESULT:      -6.5      2.307      3.082
REMARK  Name = 
REMARK  8 active torsions:
REMARK  status: ('A' for Active; 'I' for Inactive)
REMARK    1  A    between atoms: C_2  and  O_3
REMARK    2  A    between atoms: C_2  and  C_4
REMARK    3  A    between atoms: C_4  and  C_5
REMARK    4  A    between atoms: N_9  and  C_10
REMARK    5  A    between atoms: C_10  and  C_12
REMARK    6  A    between atoms: C_12  and  S_13
REMARK    7  A    between atoms: S_13  and  C_14
REMARK    8  A    between atoms: N_20  and  O_21
REMARK                            x       y       z     vdW  Elec       q    Type
REMARK                         _______ _______ _______ _____ _____    ______ ____
ROOT
ATOM      1  C   UNL     1       6.873   4.644  17.299  0.00  0.00    +0.000 A 
ATOM      2  C   UNL     1       6.768   5.070  16.027  0.00  0.00    +0.000 A 
ATOM      3  S   UNL     1       5.135   4.927  15.410  0.00  0.00    +0.000 S 
ATOM      4  C   UNL     1       4.556   4.220  16.964  0.00  0.00    +0.000 A 
ATOM      5  N   UNL     1       3.303   3.932  17.018  0.00  0.00    +0.000 NA
ATOM      6  N   UNL     1       5.673   4.128  17.797  0.00  0.00    +0.000 N 
ENDROOT
BRANCH   5   7
ATOM      7  C   UNL     1       2.818   3.273  18.117  0.00  0.00    +0.000 C 
ATOM      8  O   UNL     1       3.140   2.121  18.410  0.00  0.00    +0.000 OA
BRANCH   7   9
ATOM      9  C   UNL     1       1.753   4.057  18.886  0.00  0.00    +0.000 C 
BRANCH   9  10
ATOM     10  S   UNL     1       2.551   5.068  20.185  0.00  0.00    +0.000 S 
BRANCH  10  11
ATOM     11  C   UNL     1       2.201   6.744  19.678  0.00  0.00    +0.000 A 
ATOM     12  C   UNL     1       2.506   7.089  18.352  0.00  0.00    +0.000 A 
ATOM     13  C   UNL     1       2.178   8.349  17.845  0.00  0.00    +0.000 A 
ATOM     14  C   UNL     1       1.538   9.279  18.657  0.00  0.00    +0.000 A 
ATOM     15  C   UNL     1       1.235   8.952  19.978  0.00  0.00    +0.000 A 
ATOM     16  C   UNL     1       1.564   7.690  20.487  0.00  0.00    +0.000 A 
ENDBRANCH  10  11
ENDBRANCH   9  10
ENDBRANCH   7   9
ENDBRANCH   5   7
BRANCH   6  17
ATOM     17  O   UNL     1       5.472   4.021  19.169  0.00  0.00    +0.000 OA
ATOM     18  H   UNL     1       4.587   3.595  19.230  0.00  0.00    +0.000 HD
ENDBRANCH   6  17
BRANCH   1  19
ATOM     19  C   UNL     1       8.083   4.676  18.196  0.00  0.00    +0.000 C 
BRANCH  19  21
ATOM     20  O   UNL     1       7.795   5.448  20.501  0.00  0.00    +0.000 OA
ATOM     21  C   UNL     1       8.078   5.685  19.337  0.00  0.00    +0.000 C 
BRANCH  21  22
ATOM     22  O   UNL     1       8.362   6.946  18.923  0.00  0.00    +0.000 OA
ATOM     23  H   UNL     1       8.329   7.626  19.623  0.00  0.00    +0.000 HD
ENDBRANCH  21  22
ENDBRANCH  19  21
ENDBRANCH   1  19
TORSDOF 8
ENDMDL
MODEL 5
REMARK VINA RESULT:      -6.5      0.818      1.128
REMARK  Name = 
REMARK  8 active torsions:
REMARK  status: ('A' for Active; 'I' for Inactive)
REMARK    1  A    between atoms: C_2  and  O_3
REMARK    2  A    between atoms: C_2  and  C_4
REMARK    3  A    between atoms: C_4  and  C_5
REMARK    4  A    between atoms: N_9  and  C_10
REMARK    5  A    between atoms: C_10  and  C_12
REMARK    6  A    between atoms: C_12  and  S_13
REMARK    7  A    between atoms: S_13  and  C_14
REMARK    8  A    between atoms: N_20  and  O_21
REMARK                            x       y       z     vdW  Elec       q    Type
REMARK                         _______ _______ _______ _____ _____    ______ ____
ROOT
ATOM      1  C   UNL     1       5.638   5.215  16.686  0.00  0.00    +0.000 A 
ATOM      2  C   UNL     1       6.426   6.031  17.411  0.00  0.00    +0.000 A 
ATOM      3  S   UNL     1       6.517   5.547  19.092  0.00  0.00    +0.000 S 
ATOM      4  C   UNL     1       5.397   4.163  18.807  0.00  0.00    +0.000 A 
ATOM      5  N   UNL     1       5.141   3.428  19.832  0.00  0.00    +0.000 NA
ATOM      6  N   UNL     1       5.032   4.221  17.461  0.00  0.00    +0.000 N 
ENDROOT
BRANCH   5   7
ATOM      7  C   UNL     1       4.199   2.439  19.723  0.00  0.00    +0.000 C 
ATOM      8  O   UNL     1       4.312   1.480  18.957  0.00  0.00    +0.000 OA
BRANCH   7   9
ATOM      9  C   UNL     1       2.941   2.690  20.556  0.00  0.00    +0.000 C 
BRANCH   9  10
ATOM     10  S   UNL     1       1.563   3.182  19.459  0.00  0.00    +0.000 S 
BRANCH  10  11
ATOM     11  C   UNL     1       1.763   4.950  19.310  0.00  0.00    +0.000 A 
ATOM     12  C   UNL     1       1.657   5.708  20.486  0.00  0.00    +0.000 A 
ATOM     13  C   UNL     1       1.894   7.085  20.476  0.00  0.00    +0.000 A 
ATOM     14  C   UNL     1       2.243   7.721  19.289  0.00  0.00    +0.000 A 
ATOM     15  C   UNL     1       2.345   6.981  18.112  0.00  0.00    +0.000 A 
ATOM     16  C   UNL     1       2.107   5.601  18.121  0.00  0.00    +0.000 A 
ENDBRANCH  10  11
ENDBRANCH   9  10
ENDBRANCH   7   9
ENDBRANCH   5   7
BRANCH   6  17
ATOM     17  O   UNL     1       4.527   3.073  16.859  0.00  0.00    +0.000 OA
ATOM     18  H   UNL     1       4.778   3.191  15.915  0.00  0.00    +0.000 HD
ENDBRANCH   6  17
BRANCH   1  19
ATOM     19  C   UNL     1       5.369   5.253  15.205  0.00  0.00    +0.000 C 
BRANCH  19  21
ATOM     20  O   UNL     1       6.334   3.684  13.592  0.00  0.00    +0.000 OA
ATOM     21  C   UNL     1       6.442   4.682  14.287  0.00  0.00    +0.000 C 
BRANCH  21  22
ATOM     22  O   UNL     1       7.612   5.368  14.357  0.00  0.00    +0.000 OA
ATOM     23  H   UNL     1       7.518   6.340  14.399  0.00  0.00    +0.000 HD
ENDBRANCH  21  22
ENDBRANCH  19  21
ENDBRANCH   1  19
TORSDOF 8
ENDMDL
MODEL 6
REMARK VINA RESULT:      -6.2      4.115      6.713
REMARK  Name = 
REMARK  8 active torsions:
REMARK  status: ('A' for Active; 'I' for Inactive)
REMARK    1  A    between atoms: C_2  and  O_3
REMARK    2  A    between atoms: C_2  and  C_4
REMARK    3  A    between atoms: C_4  and  C_5
REMARK    4  A    between atoms: N_9  and  C_10
REMARK    5  A    between atoms: C_10  and  C_12
REMARK    6  A    between atoms: C_12  and  S_13
REMARK    7  A    between atoms: S_13  and  C_14
REMARK    8  A    between atoms: N_20  and  O_21
REMARK                            x       y       z     vdW  Elec       q    Type
REMARK                         _______ _______ _______ _____ _____    ______ ____
ROOT
ATOM      1  C   UNL     1       1.300   8.636  20.271  0.00  0.00    +0.000 A 
ATOM      2  C   UNL     1       1.085   9.615  19.372  0.00  0.00    +0.000 A 
ATOM      3  S   UNL     1       1.897   9.310  17.850  0.00  0.00    +0.000 S 
ATOM      4  C   UNL     1       2.596   7.770  18.473  0.00  0.00    +0.000 A 
ATOM      5  N   UNL     1       3.325   7.108  17.645  0.00  0.00    +0.000 NA
ATOM      6  N   UNL     1       2.171   7.650  19.798  0.00  0.00    +0.000 N 
ENDROOT
BRANCH   5   7
ATOM      7  C   UNL     1       3.994   5.998  18.087  0.00  0.00    +0.000 C 
ATOM      8  O   UNL     1       4.701   5.992  19.096  0.00  0.00    +0.000 OA
BRANCH   7   9
ATOM      9  C   UNL     1       3.875   4.793  17.152  0.00  0.00    +0.000 C 
BRANCH   9  10
ATOM     10  S   UNL     1       4.351   3.270  18.046  0.00  0.00    +0.000 S 
BRANCH  10  11
ATOM     11  C   UNL     1       3.035   3.058  19.234  0.00  0.00    +0.000 A 
ATOM     12  C   UNL     1       3.407   2.812  20.565  0.00  0.00    +0.000 A 
ATOM     13  C   UNL     1       2.445   2.728  21.575  0.00  0.00    +0.000 A 
ATOM     14  C   UNL     1       1.099   2.893  21.267  0.00  0.00    +0.000 A 
ATOM     15  C   UNL     1       0.715   3.132  19.948  0.00  0.00    +0.000 A 
ATOM     16  C   UNL     1       1.678   3.216  18.935  0.00  0.00    +0.000 A 
ENDBRANCH  10  11
ENDBRANCH   9  10
ENDBRANCH   7   9
ENDBRANCH   5   7
BRANCH   6  17
ATOM     17  O   UNL     1       2.196   6.393  20.393  0.00  0.00    +0.000 OA
ATOM     18  H   UNL     1       2.339   5.790  19.629  0.00  0.00    +0.000 HD
ENDBRANCH   6  17
BRANCH   1  19
ATOM     19  C   UNL     1       0.719   8.497  21.654  0.00  0.00    +0.000 C 
BRANCH  19  21
ATOM     20  O   UNL     1       0.483  10.907  22.014  0.00  0.00    +0.000 OA
ATOM     21  C   UNL     1       0.536   9.773  22.465  0.00  0.00    +0.000 C 
BRANCH  21  22
ATOM     22  O   UNL     1       0.501   9.544  23.802  0.00  0.00    +0.000 OA
ATOM     23  H   UNL     1       0.887  10.253  24.352  0.00  0.00    +0.000 HD
ENDBRANCH  21  22
ENDBRANCH  19  21
ENDBRANCH   1  19
TORSDOF 8
ENDMDL
MODEL 7
REMARK VINA RESULT:      -6.2      2.428      2.926
REMARK  Name = 
REMARK  8 active torsions:
REMARK  status: ('A' for Active; 'I' for Inactive)
REMARK    1  A    between atoms: C_2  and  O_3
REMARK    2  A    between atoms: C_2  and  C_4
REMARK    3  A    between atoms: C_4  and  C_5
REMARK    4  A    between atoms: N_9  and  C_10
REMARK    5  A    between atoms: C_10  and  C_12
REMARK    6  A    between atoms: C_12  and  S_13
REMARK    7  A    between atoms: S_13  and  C_14
REMARK    8  A    between atoms: N_20  and  O_21
REMARK                            x       y       z     vdW  Elec       q    Type
REMARK                         _______ _______ _______ _____ _____    ______ ____
ROOT
ATOM      1  C   UNL     1       6.180   5.440  17.249  0.00  0.00    +0.000 A 
ATOM      2  C   UNL     1       6.095   5.057  15.961  0.00  0.00    +0.000 A 
ATOM      3  S   UNL     1       5.116   3.619  15.758  0.00  0.00    +0.000 S 
ATOM      4  C   UNL     1       4.820   3.508  17.533  0.00  0.00    +0.000 A 
ATOM      5  N   UNL     1       4.073   2.533  17.918  0.00  0.00    +0.000 NA
ATOM      6  N   UNL     1       5.525   4.561  18.117  0.00  0.00    +0.000 N 
ENDROOT
BRANCH   5   7
ATOM      7  C   UNL     1       3.911   2.309  19.259  0.00  0.00    +0.000 C 
ATOM      8  O   UNL     1       4.854   2.198  20.045  0.00  0.00    +0.000 OA
BRANCH   7   9
ATOM      9  C   UNL     1       2.455   2.097  19.678  0.00  0.00    +0.000 C 
BRANCH   9  10
ATOM     10  S   UNL     1       1.347   2.983  18.526  0.00  0.00    +0.000 S 
BRANCH  10  11
ATOM     11  C   UNL     1       1.650   4.703  18.898  0.00  0.00    +0.000 A 
ATOM     12  C   UNL     1       1.556   5.093  20.243  0.00  0.00    +0.000 A 
ATOM     13  C   UNL     1       1.870   6.396  20.636  0.00  0.00    +0.000 A 
ATOM     14  C   UNL     1       2.286   7.325  19.688  0.00  0.00    +0.000 A 
ATOM     15  C   UNL     1       2.377   6.954  18.348  0.00  0.00    +0.000 A 
ATOM     16  C   UNL     1       2.062   5.647  17.954  0.00  0.00    +0.000 A 
ENDBRANCH  10  11
ENDBRANCH   9  10
ENDBRANCH   7   9
ENDBRANCH   5   7
BRANCH   6  17
ATOM     17  O   UNL     1       5.159   4.980  19.393  0.00  0.00    +0.000 OA
ATOM     18  H   UNL     1       4.776   4.166  19.790  0.00  0.00    +0.000 HD
ENDBRANCH   6  17
BRANCH   1  19
ATOM     19  C   UNL     1       6.860   6.658  17.816  0.00  0.00    +0.000 C 
BRANCH  19  21
ATOM     20  O   UNL     1       8.164   5.390  19.455  0.00  0.00    +0.000 OA
ATOM     21  C   UNL     1       7.963   6.426  18.841  0.00  0.00    +0.000 C 
BRANCH  21  22
ATOM     22  O   UNL     1       8.698   7.542  19.081  0.00  0.00    +0.000 OA
ATOM     23  H   UNL     1       9.248   7.507  19.888  0.00  0.00    +0.000 HD
ENDBRANCH  21  22
ENDBRANCH  19  21
ENDBRANCH   1  19
TORSDOF 8
ENDMDL
MODEL 8
REMARK VINA RESULT:      -6.2      2.238      2.769
REMARK  Name = 
REMARK  8 active torsions:
REMARK  status: ('A' for Active; 'I' for Inactive)
REMARK    1  A    between atoms: C_2  and  O_3
REMARK    2  A    between atoms: C_2  and  C_4
REMARK    3  A    between atoms: C_4  and  C_5
REMARK    4  A    between atoms: N_9  and  C_10
REMARK    5  A    between atoms: C_10  and  C_12
REMARK    6  A    between atoms: C_12  and  S_13
REMARK    7  A    between atoms: S_13  and  C_14
REMARK    8  A    between atoms: N_20  and  O_21
REMARK                            x       y       z     vdW  Elec       q    Type
REMARK                         _______ _______ _______ _____ _____    ______ ____
ROOT
ATOM      1  C   UNL     1       6.840   5.148  17.655  0.00  0.00    +0.000 A 
ATOM      2  C   UNL     1       7.006   4.989  16.329  0.00  0.00    +0.000 A 
ATOM      3  S   UNL     1       5.853   3.862  15.645  0.00  0.00    +0.000 S 
ATOM      4  C   UNL     1       5.109   3.564  17.259  0.00  0.00    +0.000 A 
ATOM      5  N   UNL     1       4.118   2.743  17.279  0.00  0.00    +0.000 NA
ATOM      6  N   UNL     1       5.835   4.328  18.175  0.00  0.00    +0.000 N 
ENDROOT
BRANCH   5   7
ATOM      7  C   UNL     1       3.588   2.368  18.485  0.00  0.00    +0.000 C 
ATOM      8  O   UNL     1       4.277   2.068  19.462  0.00  0.00    +0.000 OA
BRANCH   7   9
ATOM      9  C   UNL     1       2.063   2.249  18.479  0.00  0.00    +0.000 C 
BRANCH   9  10
ATOM     10  S   UNL     1       1.367   3.170  19.896  0.00  0.00    +0.000 S 
BRANCH  10  11
ATOM     11  C   UNL     1       1.700   4.876  19.486  0.00  0.00    +0.000 A 
ATOM     12  C   UNL     1       1.750   5.792  20.548  0.00  0.00    +0.000 A 
ATOM     13  C   UNL     1       2.098   7.127  20.329  0.00  0.00    +0.000 A 
ATOM     14  C   UNL     1       2.405   7.562  19.044  0.00  0.00    +0.000 A 
ATOM     15  C   UNL     1       2.353   6.665  17.979  0.00  0.00    +0.000 A 
ATOM     16  C   UNL     1       2.003   5.327  18.198  0.00  0.00    +0.000 A 
ENDBRANCH  10  11
ENDBRANCH   9  10
ENDBRANCH   7   9
ENDBRANCH   5   7
BRANCH   6  17
ATOM     17  O   UNL     1       5.249   4.629  19.401  0.00  0.00    +0.000 OA
ATOM     18  H   UNL     1       5.072   5.594  19.330  0.00  0.00    +0.000 HD
ENDBRANCH   6  17
BRANCH   1  19
ATOM     19  C   UNL     1       7.577   6.079  18.581  0.00  0.00    +0.000 C 
BRANCH  19  21
ATOM     20  O   UNL     1       7.504   7.949  17.002  0.00  0.00    +0.000 OA
ATOM     21  C   UNL     1       7.881   7.480  18.065  0.00  0.00    +0.000 C 
BRANCH  21  22
ATOM     22  O   UNL     1       8.702   8.177  18.891  0.00  0.00    +0.000 OA
ATOM     23  H   UNL     1       8.720   7.862  19.815  0.00  0.00    +0.000 HD
ENDBRANCH  21  22
ENDBRANCH  19  21
ENDBRANCH   1  19
TORSDOF 8
ENDMDL
MODEL 9
REMARK VINA RESULT:      -6.1      2.627      6.816
REMARK  Name = 
REMARK  8 active torsions:
REMARK  status: ('A' for Active; 'I' for Inactive)
REMARK    1  A    between atoms: C_2  and  O_3
REMARK    2  A    between atoms: C_2  and  C_4
REMARK    3  A    between atoms: C_4  and  C_5
REMARK    4  A    between atoms: N_9  and  C_10
REMARK    5  A    between atoms: C_10  and  C_12
REMARK    6  A    between atoms: C_12  and  S_13
REMARK    7  A    between atoms: S_13  and  C_14
REMARK    8  A    between atoms: N_20  and  O_21
REMARK                            x       y       z     vdW  Elec       q    Type
REMARK                         _______ _______ _______ _____ _____    ______ ____
ROOT
ATOM      1  C   UNL     1       2.229   4.432  19.815  0.00  0.00    +0.000 A 
ATOM      2  C   UNL     1       1.692   5.662  19.706  0.00  0.00    +0.000 A 
ATOM      3  S   UNL     1       2.828   6.831  19.066  0.00  0.00    +0.000 S 
ATOM      4  C   UNL     1       4.127   5.585  18.959  0.00  0.00    +0.000 A 
ATOM      5  N   UNL     1       5.256   5.989  18.491  0.00  0.00    +0.000 NA
ATOM      6  N   UNL     1       3.580   4.401  19.455  0.00  0.00    +0.000 N 
ENDROOT
BRANCH   5   7
ATOM      7  C   UNL     1       6.325   5.134  18.501  0.00  0.00    +0.000 C 
ATOM      8  O   UNL     1       6.951   4.848  19.523  0.00  0.00    +0.000 OA
BRANCH   7   9
ATOM      9  C   UNL     1       6.743   4.650  17.112  0.00  0.00    +0.000 C 
BRANCH   9  10
ATOM     10  S   UNL     1       5.510   5.190  15.874  0.00  0.00    +0.000 S 
BRANCH  10  11
ATOM     11  C   UNL     1       6.226   4.673  14.322  0.00  0.00    +0.000 A 
ATOM     12  C   UNL     1       5.521   3.713  13.581  0.00  0.00    +0.000 A 
ATOM     13  C   UNL     1       5.959   3.322  12.312  0.00  0.00    +0.000 A 
ATOM     14  C   UNL     1       7.106   3.890  11.769  0.00  0.00    +0.000 A 
ATOM     15  C   UNL     1       7.819   4.840  12.497  0.00  0.00    +0.000 A 
ATOM     16  C   UNL     1       7.382   5.232  13.768  0.00  0.00    +0.000 A 
ENDBRANCH  10  11
ENDBRANCH   9  10
ENDBRANCH   7   9
ENDBRANCH   5   7
BRANCH   6  17
ATOM     17  O   UNL     1       4.186   3.195  19.116  0.00  0.00    +0.000 OA
ATOM     18  H   UNL     1       3.444   2.675  18.732  0.00  0.00    +0.000 HD
ENDBRANCH   6  17
BRANCH   1  19
ATOM     19  C   UNL     1       1.557   3.156  20.247  0.00  0.00    +0.000 C 
BRANCH  19  21
ATOM     20  O   UNL     1       3.044   2.307  21.997  0.00  0.00    +0.000 OA
ATOM     21  C   UNL     1       1.922   2.607  21.620  0.00  0.00    +0.000 C 
BRANCH  21  22
ATOM     22  O   UNL     1       0.836   2.403  22.409  0.00  0.00    +0.000 OA
ATOM     23  H   UNL     1       0.211   3.153  22.452  0.00  0.00    +0.000 HD
ENDBRANCH  21  22
ENDBRANCH  19  21
ENDBRANCH   1  19
TORSDOF 8
ENDMDL
