MODEL 1
REMARK VINA RESULT:      -8.1      0.000      0.000
REMARK  Name = 
REMARK  5 active torsions:
REMARK  status: ('A' for Active; 'I' for Inactive)
REMARK    1  A    between atoms: C_2  and  C_3
REMARK    2  A    between atoms: C_2  and  C_10
REMARK    3  A    between atoms: C_14  and  C_15
REMARK    4  A    between atoms: C_17  and  C_18
REMARK    5  A    between atoms: C_23  and  C_24
REMARK                            x       y       z     vdW  Elec       q    Type
REMARK                         _______ _______ _______ _____ _____    ______ ____
ROOT
ATOM      1  C   UNL     1       3.191   3.824  19.049  0.00  0.00    +0.000 A 
ATOM      2  S   UNL     1       2.688   2.699  20.256  0.00  0.00    +0.000 S 
ATOM      3  C   UNL     1       4.305   2.174  20.436  0.00  0.00    +0.000 A 
ATOM      4  N   UNL     1       5.178   2.723  19.629  0.00  0.00    +0.000 NA
ATOM      5  C   UNL     1       4.550   3.654  18.805  0.00  0.00    +0.000 A 
ENDROOT
BRANCH   5   6
ATOM      6  C   UNL     1       5.353   4.363  17.809  0.00  0.00    +0.000 A 
ATOM      7  C   UNL     1       6.107   5.477  18.206  0.00  0.00    +0.000 A 
ATOM      8  C   UNL     1       6.865   6.216  17.282  0.00  0.00    +0.000 A 
ATOM      9  C   UNL     1       6.890   5.804  15.940  0.00  0.00    +0.000 A 
ATOM     10  C   UNL     1       6.142   4.697  15.514  0.00  0.00    +0.000 A 
ATOM     11  C   UNL     1       5.361   4.001  16.455  0.00  0.00    +0.000 A 
BRANCH   8  12
ATOM     12  C   UNL     1       7.615   7.458  17.702  0.00  0.00    +0.000 C 
ATOM     13  F   UNL     1       8.379   7.291  18.817  0.00  0.00    +0.000 F 
ATOM     14  F   UNL     1       8.457   7.915  16.735  0.00  0.00    +0.000 F 
ATOM     15  F   UNL     1       6.773   8.493  17.980  0.00  0.00    +0.000 F 
ENDBRANCH   8  12
BRANCH  10  16
ATOM     16  C   UNL     1       6.140   4.247  14.073  0.00  0.00    +0.000 C 
ATOM     17  F   UNL     1       4.939   4.412  13.455  0.00  0.00    +0.000 F 
ATOM     18  F   UNL     1       7.050   4.911  13.311  0.00  0.00    +0.000 F 
ATOM     19  F   UNL     1       6.443   2.924  13.950  0.00  0.00    +0.000 F 
ENDBRANCH  10  16
ENDBRANCH   5   6
BRANCH   1  21
ATOM     20  O   UNL     1       1.439   4.199  17.551  0.00  0.00    +0.000 OA
ATOM     21  C   UNL     1       2.231   4.677  18.359  0.00  0.00    +0.000 C 
BRANCH  21  22
ATOM     22  C   UNL     1       2.252   6.171  18.526  0.00  0.00    +0.000 A 
ATOM     23  C   UNL     1       2.635   6.994  17.447  0.00  0.00    +0.000 A 
ATOM     24  C   UNL     1       2.642   8.387  17.564  0.00  0.00    +0.000 A 
ATOM     25  C   UNL     1       2.218   8.988  18.743  0.00  0.00    +0.000 A 
ATOM     26  C   UNL     1       1.795   8.195  19.806  0.00  0.00    +0.000 A 
ATOM     27  C   UNL     1       1.817   6.795  19.712  0.00  0.00    +0.000 A 
ATOM     28 CL   UNL     1       1.317   5.949  21.134  0.00  0.00    +0.000 Cl
ENDBRANCH  21  22
ENDBRANCH   1  21
TORSDOF 5
ENDMDL
MODEL 2
REMARK VINA RESULT:      -8.1      0.013      1.007
REMARK  Name = 
REMARK  5 active torsions:
REMARK  status: ('A' for Active; 'I' for Inactive)
REMARK    1  A    between atoms: C_2  and  C_3
REMARK    2  A    between atoms: C_2  and  C_10
REMARK    3  A    between atoms: C_14  and  C_15
REMARK    4  A    between atoms: C_17  and  C_18
REMARK    5  A    between atoms: C_23  and  C_24
REMARK                            x       y       z     vdW  Elec       q    Type
REMARK                         _______ _______ _______ _____ _____    ______ ____
ROOT
ATOM      1  C   UNL     1       3.191   3.824  19.050  0.00  0.00    +0.000 A 
ATOM      2  S   UNL     1       2.690   2.701  20.259  0.00  0.00    +0.000 S 
ATOM      3  C   UNL     1       4.307   2.175  20.436  0.00  0.00    +0.000 A 
ATOM      4  N   UNL     1       5.179   2.723  19.627  0.00  0.00    +0.000 NA
ATOM      5  C   UNL     1       4.550   3.653  18.804  0.00  0.00    +0.000 A 
ENDROOT
BRANCH   5   6
ATOM      6  C   UNL     1       5.351   4.361  17.805  0.00  0.00    +0.000 A 
ATOM      7  C   UNL     1       6.102   5.478  18.199  0.00  0.00    +0.000 A 
ATOM      8  C   UNL     1       6.859   6.216  17.273  0.00  0.00    +0.000 A 
ATOM      9  C   UNL     1       6.885   5.800  15.933  0.00  0.00    +0.000 A 
ATOM     10  C   UNL     1       6.140   4.690  15.510  0.00  0.00    +0.000 A 
ATOM     11  C   UNL     1       5.360   3.995  16.453  0.00  0.00    +0.000 A 
BRANCH   8  12
ATOM     12  C   UNL     1       7.606   7.461  17.690  0.00  0.00    +0.000 C 
ATOM     13  F   UNL     1       8.470   7.927  16.746  0.00  0.00    +0.000 F 
ATOM     14  F   UNL     1       6.774   8.498  17.983  0.00  0.00    +0.000 F 
ATOM     15  F   UNL     1       8.353   7.257  18.810  0.00  0.00    +0.000 F 
ENDBRANCH   8  12
BRANCH  10  16
ATOM     16  C   UNL     1       6.139   4.236  14.070  0.00  0.00    +0.000 C 
ATOM     17  F   UNL     1       6.450   2.920  13.916  0.00  0.00    +0.000 F 
ATOM     18  F   UNL     1       4.935   4.411  13.463  0.00  0.00    +0.000 F 
ATOM     19  F   UNL     1       7.042   4.922  13.316  0.00  0.00    +0.000 F 
ENDBRANCH  10  16
ENDBRANCH   5   6
BRANCH   1  21
ATOM     20  O   UNL     1       1.436   4.198  17.554  0.00  0.00    +0.000 OA
ATOM     21  C   UNL     1       2.230   4.676  18.361  0.00  0.00    +0.000 C 
BRANCH  21  22
ATOM     22  C   UNL     1       2.251   6.171  18.526  0.00  0.00    +0.000 A 
ATOM     23  C   UNL     1       2.633   6.992  17.446  0.00  0.00    +0.000 A 
ATOM     24  C   UNL     1       2.641   8.386  17.561  0.00  0.00    +0.000 A 
ATOM     25  C   UNL     1       2.219   8.988  18.741  0.00  0.00    +0.000 A 
ATOM     26  C   UNL     1       1.797   8.196  19.805  0.00  0.00    +0.000 A 
ATOM     27  C   UNL     1       1.819   6.796  19.712  0.00  0.00    +0.000 A 
ATOM     28 CL   UNL     1       1.321   5.951  21.136  0.00  0.00    +0.000 Cl
ENDBRANCH  21  22
ENDBRANCH   1  21
TORSDOF 5
ENDMDL
MODEL 3
REMARK VINA RESULT:      -8.0      0.079      3.307
REMARK  Name = 
REMARK  5 active torsions:
REMARK  status: ('A' for Active; 'I' for Inactive)
REMARK    1  A    between atoms: C_2  and  C_3
REMARK    2  A    between atoms: C_2  and  C_10
REMARK    3  A    between atoms: C_14  and  C_15
REMARK    4  A    between atoms: C_17  and  C_18
REMARK    5  A    between atoms: C_23  and  C_24
REMARK                            x       y       z     vdW  Elec       q    Type
REMARK                         _______ _______ _______ _____ _____    ______ ____
ROOT
ATOM      1  C   UNL     1       3.154   3.851  19.038  0.00  0.00    +0.000 A 
ATOM      2  S   UNL     1       2.679   2.671  20.203  0.00  0.00    +0.000 S 
ATOM      3  C   UNL     1       4.309   2.183  20.368  0.00  0.00    +0.000 A 
ATOM      4  N   UNL     1       5.168   2.783  19.583  0.00  0.00    +0.000 NA
ATOM      5  C   UNL     1       4.518   3.726  18.792  0.00  0.00    +0.000 A 
ENDROOT
BRANCH   5   6
ATOM      6  C   UNL     1       5.303   4.491  17.824  0.00  0.00    +0.000 A 
ATOM      7  C   UNL     1       5.315   4.084  16.481  0.00  0.00    +0.000 A 
ATOM      8  C   UNL     1       6.082   4.760  15.517  0.00  0.00    +0.000 A 
ATOM      9  C   UNL     1       6.822   5.887  15.908  0.00  0.00    +0.000 A 
ATOM     10  C   UNL     1       6.832   6.314  17.243  0.00  0.00    +0.000 A 
ATOM     11  C   UNL     1       6.086   5.593  18.193  0.00  0.00    +0.000 A 
BRANCH   8  12
ATOM     12  C   UNL     1       6.150   4.272  14.089  0.00  0.00    +0.000 C 
ATOM     13  F   UNL     1       6.480   2.956  13.971  0.00  0.00    +0.000 F 
ATOM     14  F   UNL     1       4.972   4.426  13.426  0.00  0.00    +0.000 F 
ATOM     15  F   UNL     1       7.078   4.955  13.361  0.00  0.00    +0.000 F 
ENDBRANCH   8  12
BRANCH  10  16
ATOM     16  C   UNL     1       7.635   7.512  17.689  0.00  0.00    +0.000 C 
ATOM     17  F   UNL     1       6.870   8.597  17.988  0.00  0.00    +0.000 F 
ATOM     18  F   UNL     1       8.384   7.263  18.796  0.00  0.00    +0.000 F 
ATOM     19  F   UNL     1       8.510   7.928  16.730  0.00  0.00    +0.000 F 
ENDBRANCH  10  16
ENDBRANCH   5   6
BRANCH   1  21
ATOM     20  O   UNL     1       1.353   4.223  17.598  0.00  0.00    +0.000 OA
ATOM     21  C   UNL     1       2.173   4.703  18.377  0.00  0.00    +0.000 C 
BRANCH  21  22
ATOM     22  C   UNL     1       2.202   6.198  18.535  0.00  0.00    +0.000 A 
ATOM     23  C   UNL     1       2.560   7.014  17.442  0.00  0.00    +0.000 A 
ATOM     24  C   UNL     1       2.575   8.408  17.551  0.00  0.00    +0.000 A 
ATOM     25  C   UNL     1       2.183   9.016  18.738  0.00  0.00    +0.000 A 
ATOM     26  C   UNL     1       1.784   8.230  19.815  0.00  0.00    +0.000 A 
ATOM     27  C   UNL     1       1.801   6.829  19.728  0.00  0.00    +0.000 A 
ATOM     28 CL   UNL     1       1.335   5.992  21.168  0.00  0.00    +0.000 Cl
ENDBRANCH  21  22
ENDBRANCH   1  21
TORSDOF 5
ENDMDL
MODEL 4
REMARK VINA RESULT:      -8.0      0.079      3.323
REMARK  Name = 
REMARK  5 active torsions:
REMARK  status: ('A' for Active; 'I' for Inactive)
REMARK    1  A    between atoms: C_2  and  C_3
REMARK    2  A    between atoms: C_2  and  C_10
REMARK    3  A    between atoms: C_14  and  C_15
REMARK    4  A    between atoms: C_17  and  C_18
REMARK    5  A    between atoms: C_23  and  C_24
REMARK                            x       y       z     vdW  Elec       q    Type
REMARK                         _______ _______ _______ _____ _____    ______ ____
ROOT
ATOM      1  C   UNL     1       3.173   3.846  19.018  0.00  0.00    +0.000 A 
ATOM      2  S   UNL     1       2.698   2.663  20.179  0.00  0.00    +0.000 S 
ATOM      3  C   UNL     1       4.328   2.176  20.346  0.00  0.00    +0.000 A 
ATOM      4  N   UNL     1       5.189   2.780  19.565  0.00  0.00    +0.000 NA
ATOM      5  C   UNL     1       4.538   3.724  18.775  0.00  0.00    +0.000 A 
ENDROOT
BRANCH   5   6
ATOM      6  C   UNL     1       5.324   4.493  17.810  0.00  0.00    +0.000 A 
ATOM      7  C   UNL     1       5.341   4.089  16.467  0.00  0.00    +0.000 A 
ATOM      8  C   UNL     1       6.109   4.769  15.507  0.00  0.00    +0.000 A 
ATOM      9  C   UNL     1       6.846   5.897  15.902  0.00  0.00    +0.000 A 
ATOM     10  C   UNL     1       6.851   6.320  17.238  0.00  0.00    +0.000 A 
ATOM     11  C   UNL     1       6.104   5.595  18.184  0.00  0.00    +0.000 A 
BRANCH   8  12
ATOM     12  C   UNL     1       6.182   4.284  14.078  0.00  0.00    +0.000 C 
ATOM     13  F   UNL     1       7.109   4.936  13.321  0.00  0.00    +0.000 F 
ATOM     14  F   UNL     1       6.486   2.961  13.988  0.00  0.00    +0.000 F 
ATOM     15  F   UNL     1       4.995   4.438  13.426  0.00  0.00    +0.000 F 
ENDBRANCH   8  12
BRANCH  10  16
ATOM     16  C   UNL     1       7.650   7.519  17.689  0.00  0.00    +0.000 C 
ATOM     17  F   UNL     1       8.404   7.284  18.797  0.00  0.00    +0.000 F 
ATOM     18  F   UNL     1       8.511   7.967  16.736  0.00  0.00    +0.000 F 
ATOM     19  F   UNL     1       6.852   8.579  18.000  0.00  0.00    +0.000 F 
ENDBRANCH  10  16
ENDBRANCH   5   6
BRANCH   1  21
ATOM     20  O   UNL     1       1.385   4.221  17.564  0.00  0.00    +0.000 OA
ATOM     21  C   UNL     1       2.192   4.698  18.357  0.00  0.00    +0.000 C 
BRANCH  21  22
ATOM     22  C   UNL     1       2.209   6.191  18.533  0.00  0.00    +0.000 A 
ATOM     23  C   UNL     1       2.559   7.023  17.449  0.00  0.00    +0.000 A 
ATOM     24  C   UNL     1       2.561   8.416  17.575  0.00  0.00    +0.000 A 
ATOM     25  C   UNL     1       2.163   9.006  18.769  0.00  0.00    +0.000 A 
ATOM     26  C   UNL     1       1.773   8.204  19.837  0.00  0.00    +0.000 A 
ATOM     27  C   UNL     1       1.802   6.805  19.733  0.00  0.00    +0.000 A 
ATOM     28 CL   UNL     1       1.344   5.946  21.163  0.00  0.00    +0.000 Cl
ENDBRANCH  21  22
ENDBRANCH   1  21
TORSDOF 5
ENDMDL
MODEL 5
REMARK VINA RESULT:      -8.0      1.032      1.597
REMARK  Name = 
REMARK  5 active torsions:
REMARK  status: ('A' for Active; 'I' for Inactive)
REMARK    1  A    between atoms: C_2  and  C_3
REMARK    2  A    between atoms: C_2  and  C_10
REMARK    3  A    between atoms: C_14  and  C_15
REMARK    4  A    between atoms: C_17  and  C_18
REMARK    5  A    between atoms: C_23  and  C_24
REMARK                            x       y       z     vdW  Elec       q    Type
REMARK                         _______ _______ _______ _____ _____    ______ ____
ROOT
ATOM      1  C   UNL     1       3.224   3.888  19.286  0.00  0.00    +0.000 A 
ATOM      2  S   UNL     1       2.735   2.753  20.489  0.00  0.00    +0.000 S 
ATOM      3  C   UNL     1       4.331   2.144  20.558  0.00  0.00    +0.000 A 
ATOM      4  N   UNL     1       5.183   2.673  19.717  0.00  0.00    +0.000 NA
ATOM      5  C   UNL     1       4.557   3.659  18.958  0.00  0.00    +0.000 A 
ENDROOT
BRANCH   5   6
ATOM      6  C   UNL     1       5.335   4.357  17.935  0.00  0.00    +0.000 A 
ATOM      7  C   UNL     1       6.101   5.474  18.303  0.00  0.00    +0.000 A 
ATOM      8  C   UNL     1       6.837   6.203  17.355  0.00  0.00    +0.000 A 
ATOM      9  C   UNL     1       6.828   5.778  16.017  0.00  0.00    +0.000 A 
ATOM     10  C   UNL     1       6.069   4.669  15.619  0.00  0.00    +0.000 A 
ATOM     11  C   UNL     1       5.311   3.983  16.585  0.00  0.00    +0.000 A 
BRANCH   8  12
ATOM     12  C   UNL     1       7.598   7.448  17.745  0.00  0.00    +0.000 C 
ATOM     13  F   UNL     1       8.373   7.296  18.854  0.00  0.00    +0.000 F 
ATOM     14  F   UNL     1       8.431   7.883  16.760  0.00  0.00    +0.000 F 
ATOM     15  F   UNL     1       6.765   8.492  18.014  0.00  0.00    +0.000 F 
ENDBRANCH   8  12
BRANCH  10  16
ATOM     16  C   UNL     1       6.031   4.205  14.183  0.00  0.00    +0.000 C 
ATOM     17  F   UNL     1       6.346   2.891  14.028  0.00  0.00    +0.000 F 
ATOM     18  F   UNL     1       4.810   4.370  13.608  0.00  0.00    +0.000 F 
ATOM     19  F   UNL     1       6.909   4.893  13.400  0.00  0.00    +0.000 F 
ENDBRANCH  10  16
ENDBRANCH   5   6
BRANCH   1  21
ATOM     20  O   UNL     1       1.752   4.544  17.596  0.00  0.00    +0.000 OA
ATOM     21  C   UNL     1       2.270   4.808  18.678  0.00  0.00    +0.000 C 
BRANCH  21  22
ATOM     22  C   UNL     1       1.978   6.149  19.291  0.00  0.00    +0.000 A 
ATOM     23  C   UNL     1       1.313   6.225  20.532  0.00  0.00    +0.000 A 
ATOM     24  C   UNL     1       1.048   7.457  21.139  0.00  0.00    +0.000 A 
ATOM     25  C   UNL     1       1.487   8.633  20.544  0.00  0.00    +0.000 A 
ATOM     26  C   UNL     1       2.183   8.578  19.340  0.00  0.00    +0.000 A 
ATOM     27  C   UNL     1       2.423   7.350  18.705  0.00  0.00    +0.000 A 
ATOM     28 CL   UNL     1       3.248   7.449  17.188  0.00  0.00    +0.000 Cl
ENDBRANCH  21  22
ENDBRANCH   1  21
TORSDOF 5
ENDMDL
MODEL 6
REMARK VINA RESULT:      -7.9      1.032      1.748
REMARK  Name = 
REMARK  5 active torsions:
REMARK  status: ('A' for Active; 'I' for Inactive)
REMARK    1  A    between atoms: C_2  and  C_3
REMARK    2  A    between atoms: C_2  and  C_10
REMARK    3  A    between atoms: C_14  and  C_15
REMARK    4  A    between atoms: C_17  and  C_18
REMARK    5  A    between atoms: C_23  and  C_24
REMARK                            x       y       z     vdW  Elec       q    Type
REMARK                         _______ _______ _______ _____ _____    ______ ____
ROOT
ATOM      1  C   UNL     1       3.225   3.891  19.284  0.00  0.00    +0.000 A 
ATOM      2  S   UNL     1       2.737   2.757  20.489  0.00  0.00    +0.000 S 
ATOM      3  C   UNL     1       4.333   2.147  20.556  0.00  0.00    +0.000 A 
ATOM      4  N   UNL     1       5.184   2.677  19.713  0.00  0.00    +0.000 NA
ATOM      5  C   UNL     1       4.557   3.662  18.955  0.00  0.00    +0.000 A 
ENDROOT
BRANCH   5   6
ATOM      6  C   UNL     1       5.334   4.361  17.931  0.00  0.00    +0.000 A 
ATOM      7  C   UNL     1       6.096   5.481  18.297  0.00  0.00    +0.000 A 
ATOM      8  C   UNL     1       6.830   6.210  17.348  0.00  0.00    +0.000 A 
ATOM      9  C   UNL     1       6.825   5.782  16.011  0.00  0.00    +0.000 A 
ATOM     10  C   UNL     1       6.070   4.669  15.615  0.00  0.00    +0.000 A 
ATOM     11  C   UNL     1       5.313   3.983  16.582  0.00  0.00    +0.000 A 
BRANCH   8  12
ATOM     12  C   UNL     1       7.587   7.459  17.735  0.00  0.00    +0.000 C 
ATOM     13  F   UNL     1       8.439   7.908  16.773  0.00  0.00    +0.000 F 
ATOM     14  F   UNL     1       6.763   8.503  18.025  0.00  0.00    +0.000 F 
ATOM     15  F   UNL     1       8.350   7.268  18.848  0.00  0.00    +0.000 F 
ENDBRANCH   8  12
BRANCH  10  16
ATOM     16  C   UNL     1       6.035   4.201  14.180  0.00  0.00    +0.000 C 
ATOM     17  F   UNL     1       6.917   4.853  13.375  0.00  0.00    +0.000 F 
ATOM     18  F   UNL     1       6.315   2.877  14.050  0.00  0.00    +0.000 F 
ATOM     19  F   UNL     1       4.810   4.382  13.612  0.00  0.00    +0.000 F 
ENDBRANCH  10  16
ENDBRANCH   5   6
BRANCH   1  21
ATOM     20  O   UNL     1       1.755   4.550  17.594  0.00  0.00    +0.000 OA
ATOM     21  C   UNL     1       2.270   4.811  18.677  0.00  0.00    +0.000 C 
BRANCH  21  22
ATOM     22  C   UNL     1       1.974   6.150  19.295  0.00  0.00    +0.000 A 
ATOM     23  C   UNL     1       1.308   6.220  20.536  0.00  0.00    +0.000 A 
ATOM     24  C   UNL     1       1.039   7.449  21.146  0.00  0.00    +0.000 A 
ATOM     25  C   UNL     1       1.474   8.629  20.554  0.00  0.00    +0.000 A 
ATOM     26  C   UNL     1       2.171   8.579  19.351  0.00  0.00    +0.000 A 
ATOM     27  C   UNL     1       2.415   7.354  18.711  0.00  0.00    +0.000 A 
ATOM     28 CL   UNL     1       3.239   7.460  17.195  0.00  0.00    +0.000 Cl
ENDBRANCH  21  22
ENDBRANCH   1  21
TORSDOF 5
ENDMDL
MODEL 7
REMARK VINA RESULT:      -7.9      1.030      3.611
REMARK  Name = 
REMARK  5 active torsions:
REMARK  status: ('A' for Active; 'I' for Inactive)
REMARK    1  A    between atoms: C_2  and  C_3
REMARK    2  A    between atoms: C_2  and  C_10
REMARK    3  A    between atoms: C_14  and  C_15
REMARK    4  A    between atoms: C_17  and  C_18
REMARK    5  A    between atoms: C_23  and  C_24
REMARK                            x       y       z     vdW  Elec       q    Type
REMARK                         _______ _______ _______ _____ _____    ______ ____
ROOT
ATOM      1  C   UNL     1       3.199   3.910  19.284  0.00  0.00    +0.000 A 
ATOM      2  S   UNL     1       2.746   2.720  20.448  0.00  0.00    +0.000 S 
ATOM      3  C   UNL     1       4.359   2.158  20.497  0.00  0.00    +0.000 A 
ATOM      4  N   UNL     1       5.194   2.742  19.674  0.00  0.00    +0.000 NA
ATOM      5  C   UNL     1       4.538   3.733  18.949  0.00  0.00    +0.000 A 
ENDROOT
BRANCH   5   6
ATOM      6  C   UNL     1       5.294   4.489  17.951  0.00  0.00    +0.000 A 
ATOM      7  C   UNL     1       5.271   4.067  16.613  0.00  0.00    +0.000 A 
ATOM      8  C   UNL     1       6.010   4.735  15.621  0.00  0.00    +0.000 A 
ATOM      9  C   UNL     1       6.756   5.869  15.979  0.00  0.00    +0.000 A 
ATOM     10  C   UNL     1       6.801   6.310  17.309  0.00  0.00    +0.000 A 
ATOM     11  C   UNL     1       6.083   5.597  18.287  0.00  0.00    +0.000 A 
BRANCH   8  12
ATOM     12  C   UNL     1       6.041   4.231  14.198  0.00  0.00    +0.000 C 
ATOM     13  F   UNL     1       6.373   2.915  14.085  0.00  0.00    +0.000 F 
ATOM     14  F   UNL     1       4.844   4.372  13.565  0.00  0.00    +0.000 F 
ATOM     15  F   UNL     1       6.945   4.909  13.437  0.00  0.00    +0.000 F 
ENDBRANCH   8  12
BRANCH  10  16
ATOM     16  C   UNL     1       7.612   7.516  17.720  0.00  0.00    +0.000 C 
ATOM     17  F   UNL     1       8.486   7.933  16.764  0.00  0.00    +0.000 F 
ATOM     18  F   UNL     1       6.839   8.594  18.019  0.00  0.00    +0.000 F 
ATOM     19  F   UNL     1       8.363   7.274  18.831  0.00  0.00    +0.000 F 
ENDBRANCH  10  16
ENDBRANCH   5   6
BRANCH   1  21
ATOM     20  O   UNL     1       1.666   4.552  17.643  0.00  0.00    +0.000 OA
ATOM     21  C   UNL     1       2.217   4.820  18.707  0.00  0.00    +0.000 C 
BRANCH  21  22
ATOM     22  C   UNL     1       1.931   6.159  19.330  0.00  0.00    +0.000 A 
ATOM     23  C   UNL     1       1.280   6.228  20.579  0.00  0.00    +0.000 A 
ATOM     24  C   UNL     1       1.022   7.457  21.195  0.00  0.00    +0.000 A 
ATOM     25  C   UNL     1       1.454   8.637  20.600  0.00  0.00    +0.000 A 
ATOM     26  C   UNL     1       2.136   8.587  19.389  0.00  0.00    +0.000 A 
ATOM     27  C   UNL     1       2.369   7.362  18.744  0.00  0.00    +0.000 A 
ATOM     28 CL   UNL     1       3.177   7.469  17.219  0.00  0.00    +0.000 Cl
ENDBRANCH  21  22
ENDBRANCH   1  21
TORSDOF 5
ENDMDL
MODEL 8
REMARK VINA RESULT:      -7.9      1.586      3.632
REMARK  Name = 
REMARK  5 active torsions:
REMARK  status: ('A' for Active; 'I' for Inactive)
REMARK    1  A    between atoms: C_2  and  C_3
REMARK    2  A    between atoms: C_2  and  C_10
REMARK    3  A    between atoms: C_14  and  C_15
REMARK    4  A    between atoms: C_17  and  C_18
REMARK    5  A    between atoms: C_23  and  C_24
REMARK                            x       y       z     vdW  Elec       q    Type
REMARK                         _______ _______ _______ _____ _____    ______ ____
ROOT
ATOM      1  C   UNL     1       2.342   4.188  19.365  0.00  0.00    +0.000 A 
ATOM      2  S   UNL     1       0.897   3.277  19.609  0.00  0.00    +0.000 S 
ATOM      3  C   UNL     1       1.440   2.117  18.476  0.00  0.00    +0.000 A 
ATOM      4  N   UNL     1       2.579   2.383  17.887  0.00  0.00    +0.000 NA
ATOM      5  C   UNL     1       3.098   3.583  18.365  0.00  0.00    +0.000 A 
ENDROOT
BRANCH   5   6
ATOM      6  C   UNL     1       4.360   4.073  17.811  0.00  0.00    +0.000 A 
ATOM      7  C   UNL     1       4.560   4.026  16.423  0.00  0.00    +0.000 A 
ATOM      8  C   UNL     1       5.767   4.448  15.841  0.00  0.00    +0.000 A 
ATOM      9  C   UNL     1       6.778   4.958  16.671  0.00  0.00    +0.000 A 
ATOM     10  C   UNL     1       6.608   5.013  18.061  0.00  0.00    +0.000 A 
ATOM     11  C   UNL     1       5.403   4.546  18.618  0.00  0.00    +0.000 A 
BRANCH   8  12
ATOM     12  C   UNL     1       6.004   4.325  14.354  0.00  0.00    +0.000 C 
ATOM     13  F   UNL     1       6.783   5.314  13.836  0.00  0.00    +0.000 F 
ATOM     14  F   UNL     1       6.608   3.153  14.015  0.00  0.00    +0.000 F 
ATOM     15  F   UNL     1       4.839   4.360  13.648  0.00  0.00    +0.000 F 
ENDBRANCH   8  12
BRANCH  10  16
ATOM     16  C   UNL     1       7.688   5.541  18.974  0.00  0.00    +0.000 C 
ATOM     17  F   UNL     1       8.787   4.742  19.034  0.00  0.00    +0.000 F 
ATOM     18  F   UNL     1       8.136   6.771  18.604  0.00  0.00    +0.000 F 
ATOM     19  F   UNL     1       7.253   5.673  20.259  0.00  0.00    +0.000 F 
ENDBRANCH  10  16
ENDBRANCH   5   6
BRANCH   1  21
ATOM     20  O   UNL     1       2.798   5.473  21.260  0.00  0.00    +0.000 OA
ATOM     21  C   UNL     1       2.567   5.452  20.054  0.00  0.00    +0.000 C 
BRANCH  21  22
ATOM     22  C   UNL     1       2.414   6.768  19.343  0.00  0.00    +0.000 A 
ATOM     23  C   UNL     1       2.973   6.944  18.061  0.00  0.00    +0.000 A 
ATOM     24  C   UNL     1       2.828   8.148  17.365  0.00  0.00    +0.000 A 
ATOM     25  C   UNL     1       2.078   9.182  17.914  0.00  0.00    +0.000 A 
ATOM     26  C   UNL     1       1.482   9.014  19.160  0.00  0.00    +0.000 A 
ATOM     27  C   UNL     1       1.652   7.822  19.883  0.00  0.00    +0.000 A 
ATOM     28 CL   UNL     1       0.899   7.787  21.440  0.00  0.00    +0.000 Cl
ENDBRANCH  21  22
ENDBRANCH   1  21
TORSDOF 5
ENDMDL
MODEL 9
REMARK VINA RESULT:      -7.9      1.578      3.635
REMARK  Name = 
REMARK  5 active torsions:
REMARK  status: ('A' for Active; 'I' for Inactive)
REMARK    1  A    between atoms: C_2  and  C_3
REMARK    2  A    between atoms: C_2  and  C_10
REMARK    3  A    between atoms: C_14  and  C_15
REMARK    4  A    between atoms: C_17  and  C_18
REMARK    5  A    between atoms: C_23  and  C_24
REMARK                            x       y       z     vdW  Elec       q    Type
REMARK                         _______ _______ _______ _____ _____    ______ ____
ROOT
ATOM      1  C   UNL     1       2.371   4.196  19.316  0.00  0.00    +0.000 A 
ATOM      2  S   UNL     1       0.926   3.285  19.553  0.00  0.00    +0.000 S 
ATOM      3  C   UNL     1       1.468   2.133  18.413  0.00  0.00    +0.000 A 
ATOM      4  N   UNL     1       2.608   2.401  17.826  0.00  0.00    +0.000 NA
ATOM      5  C   UNL     1       3.128   3.598  18.313  0.00  0.00    +0.000 A 
ENDROOT
BRANCH   5   6
ATOM      6  C   UNL     1       4.391   4.089  17.763  0.00  0.00    +0.000 A 
ATOM      7  C   UNL     1       4.593   4.049  16.375  0.00  0.00    +0.000 A 
ATOM      8  C   UNL     1       5.801   4.473  15.797  0.00  0.00    +0.000 A 
ATOM      9  C   UNL     1       6.811   4.980  16.631  0.00  0.00    +0.000 A 
ATOM     10  C   UNL     1       6.638   5.028  18.022  0.00  0.00    +0.000 A 
ATOM     11  C   UNL     1       5.433   4.558  18.574  0.00  0.00    +0.000 A 
BRANCH   8  12
ATOM     12  C   UNL     1       6.040   4.357  14.311  0.00  0.00    +0.000 C 
ATOM     13  F   UNL     1       6.560   3.158  13.928  0.00  0.00    +0.000 F 
ATOM     14  F   UNL     1       4.903   4.524  13.582  0.00  0.00    +0.000 F 
ATOM     15  F   UNL     1       6.913   5.302  13.859  0.00  0.00    +0.000 F 
ENDBRANCH   8  12
BRANCH  10  16
ATOM     16  C   UNL     1       7.717   5.552  18.939  0.00  0.00    +0.000 C 
ATOM     17  F   UNL     1       7.305   5.712  20.226  0.00  0.00    +0.000 F 
ATOM     18  F   UNL     1       8.806   4.738  18.991  0.00  0.00    +0.000 F 
ATOM     19  F   UNL     1       8.180   6.770  18.541  0.00  0.00    +0.000 F 
ENDBRANCH  10  16
ENDBRANCH   5   6
BRANCH   1  21
ATOM     20  O   UNL     1       2.849   5.466  21.217  0.00  0.00    +0.000 OA
ATOM     21  C   UNL     1       2.598   5.455  20.015  0.00  0.00    +0.000 C 
BRANCH  21  22
ATOM     22  C   UNL     1       2.422   6.777  19.320  0.00  0.00    +0.000 A 
ATOM     23  C   UNL     1       2.925   6.959  18.015  0.00  0.00    +0.000 A 
ATOM     24  C   UNL     1       2.756   8.168  17.335  0.00  0.00    +0.000 A 
ATOM     25  C   UNL     1       2.037   9.202  17.923  0.00  0.00    +0.000 A 
ATOM     26  C   UNL     1       1.495   9.029  19.192  0.00  0.00    +0.000 A 
ATOM     27  C   UNL     1       1.689   7.832  19.899  0.00  0.00    +0.000 A 
ATOM     28 CL   UNL     1       1.005   7.789  21.487  0.00  0.00    +0.000 Cl
ENDBRANCH  21  22
ENDBRANCH   1  21
TORSDOF 5
ENDMDL
