MODEL 1
REMARK VINA RESULT:      -7.9      0.000      0.000
REMARK  Name = 
REMARK  6 active torsions:
REMARK  status: ('A' for Active; 'I' for Inactive)
REMARK    1  A    between atoms: C_2  and  C_19
REMARK    2  A    between atoms: N_3  and  C_4
REMARK    3  A    between atoms: C_7  and  S_8
REMARK    4  A    between atoms: S_8  and  N_11
REMARK    5  A    between atoms: C_20  and  C_21
REMARK    6  A    between atoms: C_21  and  O_23
REMARK                            x       y       z     vdW  Elec       q    Type
REMARK                         _______ _______ _______ _____ _____    ______ ____
ROOT
ATOM      1  O   UNL     1       0.487   9.602  17.681  0.00  0.00    +0.000 OA
ATOM      2  C   UNL     1       0.586   9.733  18.896  0.00  0.00    +0.000 C 
ATOM      3  N   UNL     1       1.436   8.984  19.703  0.00  0.00    +0.000 N 
ATOM      4  H   UNL     1       1.580   9.303  20.655  0.00  0.00    +0.000 HD
ENDROOT
BRANCH   2   5
ATOM      5  C   UNL     1      -0.188  10.832  19.630  0.00  0.00    +0.000 C 
ATOM      6  C   UNL     1       0.400  12.248  19.427  0.00  0.00    +0.000 C 
ATOM      7  C   UNL     1       0.778  12.652  20.857  0.00  0.00    +0.000 C 
ATOM      8  C   UNL     1      -0.417  12.921  21.767  0.00  0.00    +0.000 C 
ATOM      9  C   UNL     1      -1.019  11.526  21.922  0.00  0.00    +0.000 C 
ATOM     10  C   UNL     1      -0.022  10.657  21.152  0.00  0.00    +0.000 C 
ATOM     11  O   UNL     1       1.213  11.384  21.389  0.00  0.00    +0.000 OA
BRANCH   6  12
ATOM     12  C   UNL     1      -0.568  13.204  18.779  0.00  0.00    +0.000 C 
ATOM     13  O   UNL     1      -0.347  14.392  18.607  0.00  0.00    +0.000 OA
BRANCH  12  14
ATOM     14  O   UNL     1      -1.760  12.651  18.468  0.00  0.00    +0.000 OA
ATOM     15  H   UNL     1      -1.942  12.528  17.516  0.00  0.00    +0.000 HD
ENDBRANCH  12  14
ENDBRANCH   6  12
ENDBRANCH   2   5
BRANCH   3  16
ATOM     16  C   UNL     1       2.197   7.853  19.297  0.00  0.00    +0.000 A 
ATOM     17  C   UNL     1       2.900   7.778  18.088  0.00  0.00    +0.000 A 
ATOM     18  C   UNL     1       3.684   6.660  17.770  0.00  0.00    +0.000 A 
ATOM     19  C   UNL     1       3.778   5.598  18.668  0.00  0.00    +0.000 A 
ATOM     20  C   UNL     1       2.998   5.610  19.830  0.00  0.00    +0.000 A 
ATOM     21  C   UNL     1       2.232   6.744  20.153  0.00  0.00    +0.000 A 
BRANCH  19  22
ATOM     22  S   UNL     1       4.801   4.184  18.275  0.00  0.00    +0.000 S 
ATOM     23  O   UNL     1       5.554   4.542  17.093  0.00  0.00    +0.000 OA
ATOM     24  O   UNL     1       5.480   3.807  19.499  0.00  0.00    +0.000 OA
BRANCH  22  25
ATOM     25  N   UNL     1       3.756   2.921  17.859  0.00  0.00    +0.000 NA
ATOM     26  C   UNL     1       2.545   3.191  17.047  0.00  0.00    +0.000 C 
ATOM     27  C   UNL     1       1.342   3.468  17.952  0.00  0.00    +0.000 C 
ATOM     28  O   UNL     1       1.126   2.417  18.907  0.00  0.00    +0.000 OA
ATOM     29  C   UNL     1       2.295   2.121  19.688  0.00  0.00    +0.000 C 
ATOM     30  C   UNL     1       3.505   1.807  18.807  0.00  0.00    +0.000 C 
ENDBRANCH  22  25
ENDBRANCH  19  22
ENDBRANCH   3  16
TORSDOF 6
ENDMDL
MODEL 2
REMARK VINA RESULT:      -7.8      1.179      1.763
REMARK  Name = 
REMARK  6 active torsions:
REMARK  status: ('A' for Active; 'I' for Inactive)
REMARK    1  A    between atoms: C_2  and  C_19
REMARK    2  A    between atoms: N_3  and  C_4
REMARK    3  A    between atoms: C_7  and  S_8
REMARK    4  A    between atoms: S_8  and  N_11
REMARK    5  A    between atoms: C_20  and  C_21
REMARK    6  A    between atoms: C_21  and  O_23
REMARK                            x       y       z     vdW  Elec       q    Type
REMARK                         _______ _______ _______ _____ _____    ______ ____
ROOT
ATOM      1  O   UNL     1       0.665   8.974  21.257  0.00  0.00    +0.000 OA
ATOM      2  C   UNL     1       0.685   9.601  20.203  0.00  0.00    +0.000 C 
ATOM      3  N   UNL     1       1.320   9.172  19.042  0.00  0.00    +0.000 N 
ATOM      4  H   UNL     1       1.112   9.669  18.183  0.00  0.00    +0.000 HD
ENDROOT
BRANCH   2   5
ATOM      5  C   UNL     1      -0.091  10.913  20.059  0.00  0.00    +0.000 C 
ATOM      6  C   UNL     1      -0.187  11.422  18.602  0.00  0.00    +0.000 C 
ATOM      7  C   UNL     1       0.535  12.772  18.680  0.00  0.00    +0.000 C 
ATOM      8  C   UNL     1      -0.227  13.846  19.452  0.00  0.00    +0.000 C 
ATOM      9  C   UNL     1      -0.170  13.310  20.881  0.00  0.00    +0.000 C 
ATOM     10  C   UNL     1       0.697  12.059  20.722  0.00  0.00    +0.000 C 
ATOM     11  O   UNL     1       1.571  12.469  19.636  0.00  0.00    +0.000 OA
BRANCH   6  12
ATOM     12  C   UNL     1      -1.606  11.538  18.107  0.00  0.00    +0.000 C 
ATOM     13  O   UNL     1      -2.590  11.263  18.777  0.00  0.00    +0.000 OA
BRANCH  12  14
ATOM     14  O   UNL     1      -1.708  11.901  16.811  0.00  0.00    +0.000 OA
ATOM     15  H   UNL     1      -1.270  11.314  16.164  0.00  0.00    +0.000 HD
ENDBRANCH  12  14
ENDBRANCH   6  12
ENDBRANCH   2   5
BRANCH   3  16
ATOM     16  C   UNL     1       2.175   8.042  18.923  0.00  0.00    +0.000 A 
ATOM     17  C   UNL     1       2.284   7.039  19.894  0.00  0.00    +0.000 A 
ATOM     18  C   UNL     1       3.099   5.916  19.693  0.00  0.00    +0.000 A 
ATOM     19  C   UNL     1       3.816   5.780  18.505  0.00  0.00    +0.000 A 
ATOM     20  C   UNL     1       3.803   6.824  17.573  0.00  0.00    +0.000 A 
ATOM     21  C   UNL     1       2.966   7.936  17.771  0.00  0.00    +0.000 A 
BRANCH  19  22
ATOM     22  S   UNL     1       4.833   4.334  18.237  0.00  0.00    +0.000 S 
ATOM     23  O   UNL     1       5.614   4.599  17.048  0.00  0.00    +0.000 OA
ATOM     24  O   UNL     1       5.482   4.041  19.499  0.00  0.00    +0.000 OA
BRANCH  22  25
ATOM     25  N   UNL     1       3.785   3.052  17.891  0.00  0.00    +0.000 NA
ATOM     26  C   UNL     1       2.563   3.284  17.084  0.00  0.00    +0.000 C 
ATOM     27  C   UNL     1       1.371   3.599  17.992  0.00  0.00    +0.000 C 
ATOM     28  O   UNL     1       1.170   2.591  18.995  0.00  0.00    +0.000 OA
ATOM     29  C   UNL     1       2.350   2.331  19.773  0.00  0.00    +0.000 C 
ATOM     30  C   UNL     1       3.549   1.980  18.889  0.00  0.00    +0.000 C 
ENDBRANCH  22  25
ENDBRANCH  19  22
ENDBRANCH   3  16
TORSDOF 6
ENDMDL
MODEL 3
REMARK VINA RESULT:      -7.8      2.754      9.262
REMARK  Name = 
REMARK  6 active torsions:
REMARK  status: ('A' for Active; 'I' for Inactive)
REMARK    1  A    between atoms: C_2  and  C_19
REMARK    2  A    between atoms: N_3  and  C_4
REMARK    3  A    between atoms: C_7  and  S_8
REMARK    4  A    between atoms: S_8  and  N_11
REMARK    5  A    between atoms: C_20  and  C_21
REMARK    6  A    between atoms: C_21  and  O_23
REMARK                            x       y       z     vdW  Elec       q    Type
REMARK                         _______ _______ _______ _____ _____    ______ ____
ROOT
ATOM      1  O   UNL     1       1.417   5.166  20.217  0.00  0.00    +0.000 OA
ATOM      2  C   UNL     1       2.241   5.645  19.447  0.00  0.00    +0.000 C 
ATOM      3  N   UNL     1       2.512   7.004  19.328  0.00  0.00    +0.000 N 
ATOM      4  H   UNL     1       3.339   7.273  18.806  0.00  0.00    +0.000 HD
ENDROOT
BRANCH   2   5
ATOM      5  C   UNL     1       3.125   4.739  18.585  0.00  0.00    +0.000 C 
ATOM      6  C   UNL     1       4.256   4.040  19.376  0.00  0.00    +0.000 C 
ATOM      7  C   UNL     1       5.516   4.589  18.698  0.00  0.00    +0.000 C 
ATOM      8  C   UNL     1       5.740   4.071  17.280  0.00  0.00    +0.000 C 
ATOM      9  C   UNL     1       4.591   4.727  16.517  0.00  0.00    +0.000 C 
ATOM     10  C   UNL     1       3.940   5.595  17.597  0.00  0.00    +0.000 C 
ATOM     11  O   UNL     1       5.098   5.938  18.405  0.00  0.00    +0.000 OA
BRANCH   6  12
ATOM     12  C   UNL     1       4.167   2.536  19.330  0.00  0.00    +0.000 C 
ATOM     13  O   UNL     1       3.276   1.919  18.768  0.00  0.00    +0.000 OA
BRANCH  12  14
ATOM     14  O   UNL     1       5.126   1.907  20.042  0.00  0.00    +0.000 OA
ATOM     15  H   UNL     1       4.944   0.979  20.285  0.00  0.00    +0.000 HD
ENDBRANCH  12  14
ENDBRANCH   6  12
ENDBRANCH   2   5
BRANCH   3  16
ATOM     16  C   UNL     1       1.786   8.061  19.941  0.00  0.00    +0.000 A 
ATOM     17  C   UNL     1       1.593   8.177  21.324  0.00  0.00    +0.000 A 
ATOM     18  C   UNL     1       0.921   9.275  21.877  0.00  0.00    +0.000 A 
ATOM     19  C   UNL     1       0.433  10.282  21.045  0.00  0.00    +0.000 A 
ATOM     20  C   UNL     1       0.520  10.129  19.657  0.00  0.00    +0.000 A 
ATOM     21  C   UNL     1       1.217   9.036  19.111  0.00  0.00    +0.000 A 
BRANCH  19  22
ATOM     22  S   UNL     1      -0.401  11.698  21.752  0.00  0.00    +0.000 S 
ATOM     23  O   UNL     1      -1.508  12.001  20.872  0.00  0.00    +0.000 OA
ATOM     24  O   UNL     1      -0.629  11.392  23.150  0.00  0.00    +0.000 OA
BRANCH  22  25
ATOM     25  N   UNL     1       0.684  12.994  21.682  0.00  0.00    +0.000 NA
ATOM     26  C   UNL     1       0.251  14.353  22.085  0.00  0.00    +0.000 C 
ATOM     27  C   UNL     1      -0.269  15.133  20.875  0.00  0.00    +0.000 C 
ATOM     28  O   UNL     1       0.683  15.169  19.801  0.00  0.00    +0.000 OA
ATOM     29  C   UNL     1       1.137  13.863  19.410  0.00  0.00    +0.000 C 
ATOM     30  C   UNL     1       1.694  13.074  20.597  0.00  0.00    +0.000 C 
ENDBRANCH  22  25
ENDBRANCH  19  22
ENDBRANCH   3  16
TORSDOF 6
ENDMDL
MODEL 4
REMARK VINA RESULT:      -7.8      2.192      3.214
REMARK  Name = 
REMARK  6 active torsions:
REMARK  status: ('A' for Active; 'I' for Inactive)
REMARK    1  A    between atoms: C_2  and  C_19
REMARK    2  A    between atoms: N_3  and  C_4
REMARK    3  A    between atoms: C_7  and  S_8
REMARK    4  A    between atoms: S_8  and  N_11
REMARK    5  A    between atoms: C_20  and  C_21
REMARK    6  A    between atoms: C_21  and  O_23
REMARK                            x       y       z     vdW  Elec       q    Type
REMARK                         _______ _______ _______ _____ _____    ______ ____
ROOT
ATOM      1  O   UNL     1       1.139  10.040  21.934  0.00  0.00    +0.000 OA
ATOM      2  C   UNL     1       0.506  10.315  20.921  0.00  0.00    +0.000 C 
ATOM      3  N   UNL     1       0.567   9.594  19.733  0.00  0.00    +0.000 N 
ATOM      4  H   UNL     1      -0.136   9.790  19.029  0.00  0.00    +0.000 HD
ENDROOT
BRANCH   2   5
ATOM      5  C   UNL     1      -0.501  11.468  20.917  0.00  0.00    +0.000 C 
ATOM      6  C   UNL     1      -0.259  12.501  19.791  0.00  0.00    +0.000 C 
ATOM      7  C   UNL     1       0.016  13.785  20.580  0.00  0.00    +0.000 C 
ATOM      8  C   UNL     1      -1.207  14.358  21.291  0.00  0.00    +0.000 C 
ATOM      9  C   UNL     1      -1.468  13.307  22.370  0.00  0.00    +0.000 C 
ATOM     10  C   UNL     1      -0.297  12.342  22.169  0.00  0.00    +0.000 C 
ATOM     11  O   UNL     1       0.736  13.256  21.713  0.00  0.00    +0.000 OA
BRANCH   6  12
ATOM     12  C   UNL     1      -1.425  12.628  18.844  0.00  0.00    +0.000 C 
ATOM     13  O   UNL     1      -2.552  12.225  19.086  0.00  0.00    +0.000 OA
BRANCH  12  14
ATOM     14  O   UNL     1      -1.103  13.160  17.645  0.00  0.00    +0.000 OA
ATOM     15  H   UNL     1      -1.606  12.825  16.877  0.00  0.00    +0.000 HD
ENDBRANCH  12  14
ENDBRANCH   6  12
ENDBRANCH   2   5
BRANCH   3  16
ATOM     16  C   UNL     1       1.474   8.539  19.438  0.00  0.00    +0.000 A 
ATOM     17  C   UNL     1       1.733   7.468  20.302  0.00  0.00    +0.000 A 
ATOM     18  C   UNL     1       2.591   6.423  19.931  0.00  0.00    +0.000 A 
ATOM     19  C   UNL     1       3.200   6.436  18.677  0.00  0.00    +0.000 A 
ATOM     20  C   UNL     1       3.038   7.551  17.846  0.00  0.00    +0.000 A 
ATOM     21  C   UNL     1       2.158   8.583  18.217  0.00  0.00    +0.000 A 
BRANCH  19  22
ATOM     22  S   UNL     1       4.273   5.089  18.192  0.00  0.00    +0.000 S 
ATOM     23  O   UNL     1       4.739   4.477  19.417  0.00  0.00    +0.000 OA
ATOM     24  O   UNL     1       3.548   4.314  17.206  0.00  0.00    +0.000 OA
BRANCH  22  25
ATOM     25  N   UNL     1       5.610   5.779  17.419  0.00  0.00    +0.000 NA
ATOM     26  C   UNL     1       5.790   5.622  15.956  0.00  0.00    +0.000 C 
ATOM     27  C   UNL     1       6.645   4.390  15.649  0.00  0.00    +0.000 C 
ATOM     28  O   UNL     1       7.900   4.412  16.345  0.00  0.00    +0.000 OA
ATOM     29  C   UNL     1       7.752   4.589  17.763  0.00  0.00    +0.000 C 
ATOM     30  C   UNL     1       6.929   5.834  18.098  0.00  0.00    +0.000 C 
ENDBRANCH  22  25
ENDBRANCH  19  22
ENDBRANCH   3  16
TORSDOF 6
ENDMDL
MODEL 5
REMARK VINA RESULT:      -7.7      1.969      2.954
REMARK  Name = 
REMARK  6 active torsions:
REMARK  status: ('A' for Active; 'I' for Inactive)
REMARK    1  A    between atoms: C_2  and  C_19
REMARK    2  A    between atoms: N_3  and  C_4
REMARK    3  A    between atoms: C_7  and  S_8
REMARK    4  A    between atoms: S_8  and  N_11
REMARK    5  A    between atoms: C_20  and  C_21
REMARK    6  A    between atoms: C_21  and  O_23
REMARK                            x       y       z     vdW  Elec       q    Type
REMARK                         _______ _______ _______ _____ _____    ______ ____
ROOT
ATOM      1  O   UNL     1      -0.384  10.010  18.391  0.00  0.00    +0.000 OA
ATOM      2  C   UNL     1      -0.171  10.137  19.592  0.00  0.00    +0.000 C 
ATOM      3  N   UNL     1       0.806   9.443  20.297  0.00  0.00    +0.000 N 
ATOM      4  H   UNL     1       1.023   9.763  21.235  0.00  0.00    +0.000 HD
ENDROOT
BRANCH   2   5
ATOM      5  C   UNL     1      -0.941  11.173  20.417  0.00  0.00    +0.000 C 
ATOM      6  C   UNL     1      -0.348  12.599  20.334  0.00  0.00    +0.000 C 
ATOM      7  C   UNL     1       0.031  12.879  21.793  0.00  0.00    +0.000 C 
ATOM      8  C   UNL     1      -1.162  13.074  22.723  0.00  0.00    +0.000 C 
ATOM      9  C   UNL     1      -1.769  11.673  22.760  0.00  0.00    +0.000 C 
ATOM     10  C   UNL     1      -0.776  10.869  21.918  0.00  0.00    +0.000 C 
ATOM     11  O   UNL     1       0.462  11.568  22.215  0.00  0.00    +0.000 OA
BRANCH   6  12
ATOM     12  C   UNL     1      -1.314  13.610  19.770  0.00  0.00    +0.000 C 
ATOM     13  O   UNL     1      -1.127  14.816  19.782  0.00  0.00    +0.000 OA
BRANCH  12  14
ATOM     14  O   UNL     1      -2.464  13.073  19.313  0.00  0.00    +0.000 OA
ATOM     15  H   UNL     1      -2.479  12.100  19.219  0.00  0.00    +0.000 HD
ENDBRANCH  12  14
ENDBRANCH   6  12
ENDBRANCH   2   5
BRANCH   3  16
ATOM     16  C   UNL     1       1.598   8.372  19.800  0.00  0.00    +0.000 A 
ATOM     17  C   UNL     1       1.811   7.172  20.490  0.00  0.00    +0.000 A 
ATOM     18  C   UNL     1       2.551   6.126  19.922  0.00  0.00    +0.000 A 
ATOM     19  C   UNL     1       3.087   6.268  18.643  0.00  0.00    +0.000 A 
ATOM     20  C   UNL     1       2.976   7.498  17.985  0.00  0.00    +0.000 A 
ATOM     21  C   UNL     1       2.212   8.534  18.552  0.00  0.00    +0.000 A 
BRANCH  19  22
ATOM     22  S   UNL     1       4.007   4.923  17.907  0.00  0.00    +0.000 S 
ATOM     23  O   UNL     1       4.563   4.160  19.003  0.00  0.00    +0.000 OA
ATOM     24  O   UNL     1       3.128   4.296  16.940  0.00  0.00    +0.000 OA
BRANCH  22  25
ATOM     25  N   UNL     1       5.294   5.615  17.055  0.00  0.00    +0.000 NA
ATOM     26  C   UNL     1       5.559   5.220  15.651  0.00  0.00    +0.000 C 
ATOM     27  C   UNL     1       6.559   4.062  15.598  0.00  0.00    +0.000 C 
ATOM     28  O   UNL     1       7.770   4.357  16.310  0.00  0.00    +0.000 OA
ATOM     29  C   UNL     1       7.537   4.768  17.667  0.00  0.00    +0.000 C 
ATOM     30  C   UNL     1       6.565   5.946  17.746  0.00  0.00    +0.000 C 
ENDBRANCH  22  25
ENDBRANCH  19  22
ENDBRANCH   3  16
TORSDOF 6
ENDMDL
MODEL 6
REMARK VINA RESULT:      -7.7      2.866      9.081
REMARK  Name = 
REMARK  6 active torsions:
REMARK  status: ('A' for Active; 'I' for Inactive)
REMARK    1  A    between atoms: C_2  and  C_19
REMARK    2  A    between atoms: N_3  and  C_4
REMARK    3  A    between atoms: C_7  and  S_8
REMARK    4  A    between atoms: S_8  and  N_11
REMARK    5  A    between atoms: C_20  and  C_21
REMARK    6  A    between atoms: C_21  and  O_23
REMARK                            x       y       z     vdW  Elec       q    Type
REMARK                         _______ _______ _______ _____ _____    ______ ____
ROOT
ATOM      1  O   UNL     1       1.998   5.365  17.700  0.00  0.00    +0.000 OA
ATOM      2  C   UNL     1       3.106   5.867  17.857  0.00  0.00    +0.000 C 
ATOM      3  N   UNL     1       3.331   7.118  18.422  0.00  0.00    +0.000 N 
ATOM      4  H   UNL     1       4.284   7.350  18.680  0.00  0.00    +0.000 HD
ENDROOT
BRANCH   2   5
ATOM      5  C   UNL     1       4.375   5.086  17.506  0.00  0.00    +0.000 C 
ATOM      6  C   UNL     1       5.666   5.699  18.099  0.00  0.00    +0.000 C 
ATOM      7  C   UNL     1       6.473   6.038  16.840  0.00  0.00    +0.000 C 
ATOM      8  C   UNL     1       7.004   4.820  16.090  0.00  0.00    +0.000 C 
ATOM      9  C   UNL     1       5.719   4.194  15.550  0.00  0.00    +0.000 C 
ATOM     10  C   UNL     1       4.657   5.203  15.997  0.00  0.00    +0.000 C 
ATOM     11  O   UNL     1       5.417   6.440  15.943  0.00  0.00    +0.000 OA
BRANCH   6  12
ATOM     12  C   UNL     1       6.392   4.763  19.032  0.00  0.00    +0.000 C 
ATOM     13  O   UNL     1       7.463   5.016  19.560  0.00  0.00    +0.000 OA
BRANCH  12  14
ATOM     14  O   UNL     1       5.792   3.563  19.180  0.00  0.00    +0.000 OA
ATOM     15  H   UNL     1       5.680   3.034  18.366  0.00  0.00    +0.000 HD
ENDBRANCH  12  14
ENDBRANCH   6  12
ENDBRANCH   2   5
BRANCH   3  16
ATOM     16  C   UNL     1       2.338   8.079  18.755  0.00  0.00    +0.000 A 
ATOM     17  C   UNL     1       1.788   8.222  20.035  0.00  0.00    +0.000 A 
ATOM     18  C   UNL     1       0.856   9.230  20.319  0.00  0.00    +0.000 A 
ATOM     19  C   UNL     1       0.465  10.117  19.318  0.00  0.00    +0.000 A 
ATOM     20  C   UNL     1       0.921   9.922  18.010  0.00  0.00    +0.000 A 
ATOM     21  C   UNL     1       1.873   8.923  17.738  0.00  0.00    +0.000 A 
BRANCH  19  22
ATOM     22  S   UNL     1      -0.703  11.421  19.687  0.00  0.00    +0.000 S 
ATOM     23  O   UNL     1      -1.336  11.769  18.434  0.00  0.00    +0.000 OA
ATOM     24  O   UNL     1      -1.493  10.967  20.814  0.00  0.00    +0.000 OA
BRANCH  22  25
ATOM     25  N   UNL     1       0.197  12.758  20.200  0.00  0.00    +0.000 NA
ATOM     26  C   UNL     1      -0.410  14.111  20.203  0.00  0.00    +0.000 C 
ATOM     27  C   UNL     1      -0.132  14.828  18.879  0.00  0.00    +0.000 C 
ATOM     28  O   UNL     1       1.269  14.869  18.567  0.00  0.00    +0.000 OA
ATOM     29  C   UNL     1       1.885  13.570  18.583  0.00  0.00    +0.000 C 
ATOM     30  C   UNL     1       1.650  12.845  19.909  0.00  0.00    +0.000 C 
ENDBRANCH  22  25
ENDBRANCH  19  22
ENDBRANCH   3  16
TORSDOF 6
ENDMDL
MODEL 7
REMARK VINA RESULT:      -7.7      2.224      2.949
REMARK  Name = 
REMARK  6 active torsions:
REMARK  status: ('A' for Active; 'I' for Inactive)
REMARK    1  A    between atoms: C_2  and  C_19
REMARK    2  A    between atoms: N_3  and  C_4
REMARK    3  A    between atoms: C_7  and  S_8
REMARK    4  A    between atoms: S_8  and  N_11
REMARK    5  A    between atoms: C_20  and  C_21
REMARK    6  A    between atoms: C_21  and  O_23
REMARK                            x       y       z     vdW  Elec       q    Type
REMARK                         _______ _______ _______ _____ _____    ______ ____
ROOT
ATOM      1  O   UNL     1      -1.281  10.002  18.868  0.00  0.00    +0.000 OA
ATOM      2  C   UNL     1      -0.549  10.633  19.623  0.00  0.00    +0.000 C 
ATOM      3  N   UNL     1       0.788  10.332  19.858  0.00  0.00    +0.000 N 
ATOM      4  H   UNL     1       1.345  11.026  20.344  0.00  0.00    +0.000 HD
ENDROOT
BRANCH   2   5
ATOM      5  C   UNL     1      -1.053  11.898  20.324  0.00  0.00    +0.000 C 
ATOM      6  C   UNL     1       0.039  12.974  20.526  0.00  0.00    +0.000 C 
ATOM      7  C   UNL     1       0.095  13.099  22.053  0.00  0.00    +0.000 C 
ATOM      8  C   UNL     1      -1.133  13.759  22.672  0.00  0.00    +0.000 C 
ATOM      9  C   UNL     1      -2.216  12.711  22.425  0.00  0.00    +0.000 C 
ATOM     10  C   UNL     1      -1.421  11.571  21.784  0.00  0.00    +0.000 C 
ATOM     11  O   UNL     1      -0.137  11.730  22.444  0.00  0.00    +0.000 OA
BRANCH   6  12
ATOM     12  C   UNL     1      -0.279  14.277  19.838  0.00  0.00    +0.000 C 
ATOM     13  O   UNL     1       0.453  15.254  19.849  0.00  0.00    +0.000 OA
BRANCH  12  14
ATOM     14  O   UNL     1      -1.499  14.309  19.261  0.00  0.00    +0.000 OA
ATOM     15  H   UNL     1      -1.676  13.622  18.589  0.00  0.00    +0.000 HD
ENDBRANCH  12  14
ENDBRANCH   6  12
ENDBRANCH   2   5
BRANCH   3  16
ATOM     16  C   UNL     1       1.480   9.176  19.406  0.00  0.00    +0.000 A 
ATOM     17  C   UNL     1       2.033   9.046  18.126  0.00  0.00    +0.000 A 
ATOM     18  C   UNL     1       2.758   7.905  17.757  0.00  0.00    +0.000 A 
ATOM     19  C   UNL     1       2.945   6.873  18.676  0.00  0.00    +0.000 A 
ATOM     20  C   UNL     1       2.308   6.938  19.920  0.00  0.00    +0.000 A 
ATOM     21  C   UNL     1       1.602   8.096  20.291  0.00  0.00    +0.000 A 
BRANCH  19  22
ATOM     22  S   UNL     1       3.895   5.429  18.215  0.00  0.00    +0.000 S 
ATOM     23  O   UNL     1       4.445   4.894  19.441  0.00  0.00    +0.000 OA
ATOM     24  O   UNL     1       3.038   4.618  17.373  0.00  0.00    +0.000 OA
BRANCH  22  25
ATOM     25  N   UNL     1       5.184   5.971  17.263  0.00  0.00    +0.000 NA
ATOM     26  C   UNL     1       5.338   5.488  15.870  0.00  0.00    +0.000 C 
ATOM     27  C   UNL     1       6.238   4.250  15.826  0.00  0.00    +0.000 C 
ATOM     28  O   UNL     1       7.506   4.477  16.459  0.00  0.00    +0.000 OA
ATOM     29  C   UNL     1       7.382   4.971  17.803  0.00  0.00    +0.000 C 
ATOM     30  C   UNL     1       6.513   6.228  17.870  0.00  0.00    +0.000 C 
ENDBRANCH  22  25
ENDBRANCH  19  22
ENDBRANCH   3  16
TORSDOF 6
ENDMDL
MODEL 8
REMARK VINA RESULT:      -7.7      2.597      9.224
REMARK  Name = 
REMARK  6 active torsions:
REMARK  status: ('A' for Active; 'I' for Inactive)
REMARK    1  A    between atoms: C_2  and  C_19
REMARK    2  A    between atoms: N_3  and  C_4
REMARK    3  A    between atoms: C_7  and  S_8
REMARK    4  A    between atoms: S_8  and  N_11
REMARK    5  A    between atoms: C_20  and  C_21
REMARK    6  A    between atoms: C_21  and  O_23
REMARK                            x       y       z     vdW  Elec       q    Type
REMARK                         _______ _______ _______ _____ _____    ______ ____
ROOT
ATOM      1  O   UNL     1       1.251   5.177  20.829  0.00  0.00    +0.000 OA
ATOM      2  C   UNL     1       2.125   5.336  19.985  0.00  0.00    +0.000 C 
ATOM      3  N   UNL     1       2.529   6.573  19.492  0.00  0.00    +0.000 N 
ATOM      4  H   UNL     1       3.383   6.603  18.946  0.00  0.00    +0.000 HD
ENDROOT
BRANCH   2   5
ATOM      5  C   UNL     1       2.926   4.144  19.454  0.00  0.00    +0.000 C 
ATOM      6  C   UNL     1       3.611   4.412  18.093  0.00  0.00    +0.000 C 
ATOM      7  C   UNL     1       2.953   3.367  17.185  0.00  0.00    +0.000 C 
ATOM      8  C   UNL     1       3.367   1.929  17.482  0.00  0.00    +0.000 C 
ATOM      9  C   UNL     1       2.727   1.690  18.848  0.00  0.00    +0.000 C 
ATOM     10  C   UNL     1       1.966   2.998  19.081  0.00  0.00    +0.000 C 
ATOM     11  O   UNL     1       1.612   3.354  17.718  0.00  0.00    +0.000 OA
BRANCH   6  12
ATOM     12  C   UNL     1       5.112   4.283  18.151  0.00  0.00    +0.000 C 
ATOM     13  O   UNL     1       5.861   4.584  17.236  0.00  0.00    +0.000 OA
BRANCH  12  14
ATOM     14  O   UNL     1       5.571   3.720  19.289  0.00  0.00    +0.000 OA
ATOM     15  H   UNL     1       6.541   3.626  19.362  0.00  0.00    +0.000 HD
ENDBRANCH  12  14
ENDBRANCH   6  12
ENDBRANCH   2   5
BRANCH   3  16
ATOM     16  C   UNL     1       1.903   7.823  19.748  0.00  0.00    +0.000 A 
ATOM     17  C   UNL     1       1.425   8.213  21.006  0.00  0.00    +0.000 A 
ATOM     18  C   UNL     1       0.873   9.485  21.213  0.00  0.00    +0.000 A 
ATOM     19  C   UNL     1       0.796  10.390  20.155  0.00  0.00    +0.000 A 
ATOM     20  C   UNL     1       1.168   9.979  18.870  0.00  0.00    +0.000 A 
ATOM     21  C   UNL     1       1.742   8.710  18.676  0.00  0.00    +0.000 A 
BRANCH  19  22
ATOM     22  S   UNL     1       0.117  12.023  20.425  0.00  0.00    +0.000 S 
ATOM     23  O   UNL     1      -1.317  11.899  20.273  0.00  0.00    +0.000 OA
ATOM     24  O   UNL     1       0.690  12.513  21.663  0.00  0.00    +0.000 OA
BRANCH  22  25
ATOM     25  N   UNL     1       0.686  13.006  19.172  0.00  0.00    +0.000 NA
ATOM     26  C   UNL     1       2.073  13.528  19.204  0.00  0.00    +0.000 C 
ATOM     27  C   UNL     1       2.115  14.902  19.878  0.00  0.00    +0.000 C 
ATOM     28  O   UNL     1       1.205  15.833  19.273  0.00  0.00    +0.000 OA
ATOM     29  C   UNL     1      -0.142  15.338  19.207  0.00  0.00    +0.000 C 
ATOM     30  C   UNL     1      -0.216  13.979  18.508  0.00  0.00    +0.000 C 
ENDBRANCH  22  25
ENDBRANCH  19  22
ENDBRANCH   3  16
TORSDOF 6
ENDMDL
MODEL 9
REMARK VINA RESULT:      -7.7      3.331      9.358
REMARK  Name = 
REMARK  6 active torsions:
REMARK  status: ('A' for Active; 'I' for Inactive)
REMARK    1  A    between atoms: C_2  and  C_19
REMARK    2  A    between atoms: N_3  and  C_4
REMARK    3  A    between atoms: C_7  and  S_8
REMARK    4  A    between atoms: S_8  and  N_11
REMARK    5  A    between atoms: C_20  and  C_21
REMARK    6  A    between atoms: C_21  and  O_23
REMARK                            x       y       z     vdW  Elec       q    Type
REMARK                         _______ _______ _______ _____ _____    ______ ____
ROOT
ATOM      1  O   UNL     1       2.446   7.627  18.857  0.00  0.00    +0.000 OA
ATOM      2  C   UNL     1       2.211   6.926  19.835  0.00  0.00    +0.000 C 
ATOM      3  N   UNL     1       1.418   7.313  20.910  0.00  0.00    +0.000 N 
ATOM      4  H   UNL     1       1.134   6.593  21.565  0.00  0.00    +0.000 HD
ENDROOT
BRANCH   2   5
ATOM      5  C   UNL     1       2.726   5.485  19.906  0.00  0.00    +0.000 C 
ATOM      6  C   UNL     1       2.485   4.674  18.611  0.00  0.00    +0.000 C 
ATOM      7  C   UNL     1       1.578   3.541  19.101  0.00  0.00    +0.000 C 
ATOM      8  C   UNL     1       2.276   2.523  19.998  0.00  0.00    +0.000 C 
ATOM      9  C   UNL     1       2.553   3.346  21.255  0.00  0.00    +0.000 C 
ATOM     10  C   UNL     1       1.887   4.683  20.919  0.00  0.00    +0.000 C 
ATOM     11  O   UNL     1       0.785   4.236  20.085  0.00  0.00    +0.000 OA
BRANCH   6  12
ATOM     12  C   UNL     1       3.760   4.180  17.977  0.00  0.00    +0.000 C 
ATOM     13  O   UNL     1       3.804   3.527  16.946  0.00  0.00    +0.000 OA
BRANCH  12  14
ATOM     14  O   UNL     1       4.870   4.449  18.695  0.00  0.00    +0.000 OA
ATOM     15  H   UNL     1       5.469   3.695  18.863  0.00  0.00    +0.000 HD
ENDBRANCH  12  14
ENDBRANCH   6  12
ENDBRANCH   2   5
BRANCH   3  16
ATOM     16  C   UNL     1       0.889   8.613  21.138  0.00  0.00    +0.000 A 
ATOM     17  C   UNL     1       0.760   9.589  20.141  0.00  0.00    +0.000 A 
ATOM     18  C   UNL     1       0.174  10.833  20.412  0.00  0.00    +0.000 A 
ATOM     19  C   UNL     1      -0.298  11.116  21.693  0.00  0.00    +0.000 A 
ATOM     20  C   UNL     1      -0.079  10.196  22.724  0.00  0.00    +0.000 A 
ATOM     21  C   UNL     1       0.489   8.941  22.439  0.00  0.00    +0.000 A 
BRANCH  19  22
ATOM     22  S   UNL     1      -1.071  12.693  22.032  0.00  0.00    +0.000 S 
ATOM     23  O   UNL     1      -0.510  13.163  23.279  0.00  0.00    +0.000 OA
ATOM     24  O   UNL     1      -0.953  13.483  20.823  0.00  0.00    +0.000 OA
BRANCH  22  25
ATOM     25  N   UNL     1      -2.716  12.390  22.287  0.00  0.00    +0.000 NA
ATOM     26  C   UNL     1      -3.727  12.913  21.337  0.00  0.00    +0.000 C 
ATOM     27  C   UNL     1      -4.232  14.285  21.791  0.00  0.00    +0.000 C 
ATOM     28  O   UNL     1      -4.722  14.265  23.141  0.00  0.00    +0.000 OA
ATOM     29  C   UNL     1      -3.767  13.737  24.076  0.00  0.00    +0.000 C 
ATOM     30  C   UNL     1      -3.271  12.351  23.663  0.00  0.00    +0.000 C 
ENDBRANCH  22  25
ENDBRANCH  19  22
ENDBRANCH   3  16
TORSDOF 6
ENDMDL
