MODEL 1
REMARK VINA RESULT:      -6.8      0.000      0.000
REMARK  Name = 
REMARK  1 active torsions:
REMARK  status: ('A' for Active; 'I' for Inactive)
REMARK    1  A    between atoms: C_8  and  C_9
REMARK                            x       y       z     vdW  Elec       q    Type
REMARK                         _______ _______ _______ _____ _____    ______ ____
ROOT
ATOM      1  O   UNL     1       3.180   1.356  18.177  0.00  0.00    +0.000 OA
ATOM      2  C   UNL     1       2.704   2.334  18.760  0.00  0.00    +0.000 C 
ATOM      3  C   UNL     1       1.306   2.279  19.339  0.00  0.00    +0.000 C 
ATOM      4  C   UNL     1       1.143   3.159  20.566  0.00  0.00    +0.000 C 
ATOM      5  C   UNL     1       1.570   4.584  20.257  0.00  0.00    +0.000 C 
ATOM      6  C   UNL     1       3.047   4.632  19.881  0.00  0.00    +0.000 C 
ATOM      7  C   UNL     1       3.449   3.636  18.826  0.00  0.00    +0.000 C 
ATOM      8  C   UNL     1       4.450   3.813  17.945  0.00  0.00    +0.000 C 
ENDROOT
BRANCH   8   9
ATOM      9  C   UNL     1       5.316   4.996  17.927  0.00  0.00    +0.000 A 
ATOM     10  C   UNL     1       5.000   6.094  17.115  0.00  0.00    +0.000 A 
ATOM     11  C   UNL     1       5.856   7.196  17.054  0.00  0.00    +0.000 A 
ATOM     12  C   UNL     1       7.022   7.206  17.816  0.00  0.00    +0.000 A 
ATOM     13 BR   UNL     1       8.182   8.697  17.734  0.00  0.00    +0.000 Br
ATOM     14  C   UNL     1       7.341   6.124  18.636  0.00  0.00    +0.000 A 
ATOM     15  C   UNL     1       6.488   5.019  18.689  0.00  0.00    +0.000 A 
ENDBRANCH   8   9
TORSDOF 1
ENDMDL
MODEL 2
REMARK VINA RESULT:      -6.8      0.263      1.272
REMARK  Name = 
REMARK  1 active torsions:
REMARK  status: ('A' for Active; 'I' for Inactive)
REMARK    1  A    between atoms: C_8  and  C_9
REMARK                            x       y       z     vdW  Elec       q    Type
REMARK                         _______ _______ _______ _____ _____    ______ ____
ROOT
ATOM      1  O   UNL     1       2.826   1.524  17.915  0.00  0.00    +0.000 OA
ATOM      2  C   UNL     1       2.461   2.506  18.567  0.00  0.00    +0.000 C 
ATOM      3  C   UNL     1       1.099   2.528  19.228  0.00  0.00    +0.000 C 
ATOM      4  C   UNL     1       1.075   3.360  20.499  0.00  0.00    +0.000 C 
ATOM      5  C   UNL     1       1.592   4.762  20.224  0.00  0.00    +0.000 C 
ATOM      6  C   UNL     1       3.044   4.717  19.761  0.00  0.00    +0.000 C 
ATOM      7  C   UNL     1       3.307   3.744  18.643  0.00  0.00    +0.000 C 
ATOM      8  C   UNL     1       4.267   3.888  17.710  0.00  0.00    +0.000 C 
ENDROOT
BRANCH   8   9
ATOM      9  C   UNL     1       5.219   5.002  17.689  0.00  0.00    +0.000 A 
ATOM     10  C   UNL     1       6.437   4.906  18.375  0.00  0.00    +0.000 A 
ATOM     11  C   UNL     1       7.319   5.990  18.403  0.00  0.00    +0.000 A 
ATOM     12  C   UNL     1       6.986   7.166  17.734  0.00  0.00    +0.000 A 
ATOM     13 BR   UNL     1       8.176   8.634  17.772  0.00  0.00    +0.000 Br
ATOM     14  C   UNL     1       5.781   7.269  17.039  0.00  0.00    +0.000 A 
ATOM     15  C   UNL     1       4.897   6.186  17.019  0.00  0.00    +0.000 A 
ENDBRANCH   8   9
TORSDOF 1
ENDMDL
MODEL 3
REMARK VINA RESULT:      -6.6      3.564      4.391
REMARK  Name = 
REMARK  1 active torsions:
REMARK  status: ('A' for Active; 'I' for Inactive)
REMARK    1  A    between atoms: C_8  and  C_9
REMARK                            x       y       z     vdW  Elec       q    Type
REMARK                         _______ _______ _______ _____ _____    ______ ____
ROOT
ATOM      1  O   UNL     1       5.245   3.960  19.348  0.00  0.00    +0.000 OA
ATOM      2  C   UNL     1       4.076   3.709  19.041  0.00  0.00    +0.000 C 
ATOM      3  C   UNL     1       3.682   2.320  18.587  0.00  0.00    +0.000 C 
ATOM      4  C   UNL     1       2.247   1.970  18.944  0.00  0.00    +0.000 C 
ATOM      5  C   UNL     1       1.296   3.030  18.413  0.00  0.00    +0.000 C 
ATOM      6  C   UNL     1       1.586   4.382  19.055  0.00  0.00    +0.000 C 
ATOM      7  C   UNL     1       3.035   4.789  19.008  0.00  0.00    +0.000 C 
ATOM      8  C   UNL     1       3.473   6.061  18.965  0.00  0.00    +0.000 C 
ENDROOT
BRANCH   8   9
ATOM      9  C   UNL     1       2.586   7.228  19.000  0.00  0.00    +0.000 A 
ATOM     10  C   UNL     1       2.368   7.988  17.843  0.00  0.00    +0.000 A 
ATOM     11  C   UNL     1       1.569   9.133  17.891  0.00  0.00    +0.000 A 
ATOM     12  C   UNL     1       0.976   9.510  19.094  0.00  0.00    +0.000 A 
ATOM     13 BR   UNL     1      -0.105  11.059  19.161  0.00  0.00    +0.000 Br
ATOM     14  C   UNL     1       1.176   8.754  20.249  0.00  0.00    +0.000 A 
ATOM     15  C   UNL     1       1.983   7.614  20.201  0.00  0.00    +0.000 A 
ENDBRANCH   8   9
TORSDOF 1
ENDMDL
MODEL 4
REMARK VINA RESULT:      -6.5      4.286      6.285
REMARK  Name = 
REMARK  1 active torsions:
REMARK  status: ('A' for Active; 'I' for Inactive)
REMARK    1  A    between atoms: C_8  and  C_9
REMARK                            x       y       z     vdW  Elec       q    Type
REMARK                         _______ _______ _______ _____ _____    ______ ____
ROOT
ATOM      1  O   UNL     1       8.628   5.834  13.689  0.00  0.00    +0.000 OA
ATOM      2  C   UNL     1       7.622   5.167  13.427  0.00  0.00    +0.000 C 
ATOM      3  C   UNL     1       7.358   4.697  12.013  0.00  0.00    +0.000 C 
ATOM      4  C   UNL     1       6.595   3.384  11.963  0.00  0.00    +0.000 C 
ATOM      5  C   UNL     1       5.314   3.485  12.774  0.00  0.00    +0.000 C 
ATOM      6  C   UNL     1       5.627   3.750  14.242  0.00  0.00    +0.000 C 
ATOM      7  C   UNL     1       6.582   4.890  14.474  0.00  0.00    +0.000 C 
ATOM      8  C   UNL     1       6.593   5.672  15.569  0.00  0.00    +0.000 C 
ENDROOT
BRANCH   8   9
ATOM      9  C   UNL     1       5.691   5.484  16.710  0.00  0.00    +0.000 A 
ATOM     10  C   UNL     1       5.956   4.497  17.668  0.00  0.00    +0.000 A 
ATOM     11  C   UNL     1       5.066   4.280  18.723  0.00  0.00    +0.000 A 
ATOM     12  C   UNL     1       3.915   5.059  18.825  0.00  0.00    +0.000 A 
ATOM     13 BR   UNL     1       2.709   4.765  20.250  0.00  0.00    +0.000 Br
ATOM     14  C   UNL     1       3.647   6.052  17.884  0.00  0.00    +0.000 A 
ATOM     15  C   UNL     1       4.535   6.262  16.825  0.00  0.00    +0.000 A 
ENDBRANCH   8   9
TORSDOF 1
ENDMDL
MODEL 5
REMARK VINA RESULT:      -6.5      4.301      6.189
REMARK  Name = 
REMARK  1 active torsions:
REMARK  status: ('A' for Active; 'I' for Inactive)
REMARK    1  A    between atoms: C_8  and  C_9
REMARK                            x       y       z     vdW  Elec       q    Type
REMARK                         _______ _______ _______ _____ _____    ______ ____
ROOT
ATOM      1  O   UNL     1       8.580   5.808  13.684  0.00  0.00    +0.000 OA
ATOM      2  C   UNL     1       7.581   5.145  13.393  0.00  0.00    +0.000 C 
ATOM      3  C   UNL     1       7.348   4.693  11.967  0.00  0.00    +0.000 C 
ATOM      4  C   UNL     1       6.586   3.380  11.884  0.00  0.00    +0.000 C 
ATOM      5  C   UNL     1       5.288   3.471  12.668  0.00  0.00    +0.000 C 
ATOM      6  C   UNL     1       5.569   3.717  14.146  0.00  0.00    +0.000 C 
ATOM      7  C   UNL     1       6.519   4.854  14.413  0.00  0.00    +0.000 C 
ATOM      8  C   UNL     1       6.505   5.622  15.518  0.00  0.00    +0.000 C 
ENDROOT
BRANCH   8   9
ATOM      9  C   UNL     1       5.579   5.419  16.636  0.00  0.00    +0.000 A 
ATOM     10  C   UNL     1       4.441   6.227  16.770  0.00  0.00    +0.000 A 
ATOM     11  C   UNL     1       3.590   6.072  17.867  0.00  0.00    +0.000 A 
ATOM     12  C   UNL     1       3.871   5.099  18.825  0.00  0.00    +0.000 A 
ATOM     13 BR   UNL     1       2.721   4.889  20.310  0.00  0.00    +0.000 Br
ATOM     14  C   UNL     1       4.994   4.282  18.696  0.00  0.00    +0.000 A 
ATOM     15  C   UNL     1       5.848   4.445  17.602  0.00  0.00    +0.000 A 
ENDBRANCH   8   9
TORSDOF 1
ENDMDL
MODEL 6
REMARK VINA RESULT:      -6.5      3.475      4.374
REMARK  Name = 
REMARK  1 active torsions:
REMARK  status: ('A' for Active; 'I' for Inactive)
REMARK    1  A    between atoms: C_8  and  C_9
REMARK                            x       y       z     vdW  Elec       q    Type
REMARK                         _______ _______ _______ _____ _____    ______ ____
ROOT
ATOM      1  O   UNL     1       5.310   3.761  18.906  0.00  0.00    +0.000 OA
ATOM      2  C   UNL     1       4.107   3.566  18.712  0.00  0.00    +0.000 C 
ATOM      3  C   UNL     1       3.609   2.203  18.281  0.00  0.00    +0.000 C 
ATOM      4  C   UNL     1       2.202   1.908  18.773  0.00  0.00    +0.000 C 
ATOM      5  C   UNL     1       1.251   3.016  18.351  0.00  0.00    +0.000 C 
ATOM      6  C   UNL     1       1.662   4.344  18.979  0.00  0.00    +0.000 C 
ATOM      7  C   UNL     1       3.115   4.690  18.796  0.00  0.00    +0.000 C 
ATOM      8  C   UNL     1       3.603   5.943  18.726  0.00  0.00    +0.000 C 
ENDROOT
BRANCH   8   9
ATOM      9  C   UNL     1       2.775   7.145  18.863  0.00  0.00    +0.000 A 
ATOM     10  C   UNL     1       2.132   7.428  20.075  0.00  0.00    +0.000 A 
ATOM     11  C   UNL     1       1.297   8.542  20.187  0.00  0.00    +0.000 A 
ATOM     12  C   UNL     1       1.116   9.381  19.090  0.00  0.00    +0.000 A 
ATOM     13 BR   UNL     1      -0.014  10.889  19.240  0.00  0.00    +0.000 Br
ATOM     14  C   UNL     1       1.761   9.116  17.882  0.00  0.00    +0.000 A 
ATOM     15  C   UNL     1       2.589   7.996  17.769  0.00  0.00    +0.000 A 
ENDBRANCH   8   9
TORSDOF 1
ENDMDL
MODEL 7
REMARK VINA RESULT:      -6.4      2.550      3.006
REMARK  Name = 
REMARK  1 active torsions:
REMARK  status: ('A' for Active; 'I' for Inactive)
REMARK    1  A    between atoms: C_8  and  C_9
REMARK                            x       y       z     vdW  Elec       q    Type
REMARK                         _______ _______ _______ _____ _____    ______ ____
ROOT
ATOM      1  O   UNL     1       2.008   5.980  20.536  0.00  0.00    +0.000 OA
ATOM      2  C   UNL     1       1.910   4.893  19.958  0.00  0.00    +0.000 C 
ATOM      3  C   UNL     1       1.051   3.789  20.538  0.00  0.00    +0.000 C 
ATOM      4  C   UNL     1       0.454   2.887  19.471  0.00  0.00    +0.000 C 
ATOM      5  C   UNL     1       1.548   2.338  18.569  0.00  0.00    +0.000 C 
ATOM      6  C   UNL     1       2.256   3.471  17.835  0.00  0.00    +0.000 C 
ATOM      7  C   UNL     1       2.713   4.595  18.725  0.00  0.00    +0.000 C 
ATOM      8  C   UNL     1       3.781   5.378  18.487  0.00  0.00    +0.000 C 
ENDROOT
BRANCH   8   9
ATOM      9  C   UNL     1       4.623   5.261  17.292  0.00  0.00    +0.000 A 
ATOM     10  C   UNL     1       4.750   6.340  16.407  0.00  0.00    +0.000 A 
ATOM     11  C   UNL     1       5.505   6.209  15.239  0.00  0.00    +0.000 A 
ATOM     12  C   UNL     1       6.144   5.002  14.962  0.00  0.00    +0.000 A 
ATOM     13 BR   UNL     1       7.165   4.823  13.382  0.00  0.00    +0.000 Br
ATOM     14  C   UNL     1       6.033   3.925  15.842  0.00  0.00    +0.000 A 
ATOM     15  C   UNL     1       5.270   4.056  17.006  0.00  0.00    +0.000 A 
ENDBRANCH   8   9
TORSDOF 1
ENDMDL
MODEL 8
REMARK VINA RESULT:      -6.3      2.491      3.110
REMARK  Name = 
REMARK  1 active torsions:
REMARK  status: ('A' for Active; 'I' for Inactive)
REMARK    1  A    between atoms: C_8  and  C_9
REMARK                            x       y       z     vdW  Elec       q    Type
REMARK                         _______ _______ _______ _____ _____    ______ ____
ROOT
ATOM      1  O   UNL     1       2.193   5.716  20.754  0.00  0.00    +0.000 OA
ATOM      2  C   UNL     1       2.024   4.677  20.110  0.00  0.00    +0.000 C 
ATOM      3  C   UNL     1       1.147   3.570  20.653  0.00  0.00    +0.000 C 
ATOM      4  C   UNL     1       0.466   2.767  19.557  0.00  0.00    +0.000 C 
ATOM      5  C   UNL     1       1.494   2.241  18.570  0.00  0.00    +0.000 C 
ATOM      6  C   UNL     1       2.216   3.394  17.881  0.00  0.00    +0.000 C 
ATOM      7  C   UNL     1       2.758   4.435  18.823  0.00  0.00    +0.000 C 
ATOM      8  C   UNL     1       3.846   5.191  18.587  0.00  0.00    +0.000 C 
ENDROOT
BRANCH   8   9
ATOM      9  C   UNL     1       4.628   5.126  17.348  0.00  0.00    +0.000 A 
ATOM     10  C   UNL     1       5.366   3.976  17.036  0.00  0.00    +0.000 A 
ATOM     11  C   UNL     1       6.156   3.936  15.885  0.00  0.00    +0.000 A 
ATOM     12  C   UNL     1       6.199   5.042  15.039  0.00  0.00    +0.000 A 
ATOM     13 BR   UNL     1       7.269   4.990  13.482  0.00  0.00    +0.000 Br
ATOM     14  C   UNL     1       5.458   6.187  15.334  0.00  0.00    +0.000 A 
ATOM     15  C   UNL     1       4.675   6.228  16.490  0.00  0.00    +0.000 A 
ENDBRANCH   8   9
TORSDOF 1
ENDMDL
MODEL 9
REMARK VINA RESULT:      -6.3      4.025      4.897
REMARK  Name = 
REMARK  1 active torsions:
REMARK  status: ('A' for Active; 'I' for Inactive)
REMARK    1  A    between atoms: C_8  and  C_9
REMARK                            x       y       z     vdW  Elec       q    Type
REMARK                         _______ _______ _______ _____ _____    ______ ____
ROOT
ATOM      1  O   UNL     1       5.284   5.073  17.318  0.00  0.00    +0.000 OA
ATOM      2  C   UNL     1       4.140   4.638  17.480  0.00  0.00    +0.000 C 
ATOM      3  C   UNL     1       3.776   3.244  17.017  0.00  0.00    +0.000 C 
ATOM      4  C   UNL     1       2.692   2.606  17.869  0.00  0.00    +0.000 C 
ATOM      5  C   UNL     1       1.475   3.512  17.945  0.00  0.00    +0.000 C 
ATOM      6  C   UNL     1       1.832   4.835  18.614  0.00  0.00    +0.000 C 
ATOM      7  C   UNL     1       3.053   5.506  18.045  0.00  0.00    +0.000 C 
ATOM      8  C   UNL     1       3.259   6.836  18.024  0.00  0.00    +0.000 C 
ENDROOT
BRANCH   8   9
ATOM      9  C   UNL     1       2.328   7.811  18.600  0.00  0.00    +0.000 A 
ATOM     10  C   UNL     1       1.755   8.804  17.795  0.00  0.00    +0.000 A 
ATOM     11  C   UNL     1       0.913   9.768  18.356  0.00  0.00    +0.000 A 
ATOM     12  C   UNL     1       0.635   9.730  19.720  0.00  0.00    +0.000 A 
ATOM     13 BR   UNL     1      -0.503  11.034  20.481  0.00  0.00    +0.000 Br
ATOM     14  C   UNL     1       1.190   8.739  20.529  0.00  0.00    +0.000 A 
ATOM     15  C   UNL     1       2.039   7.781  19.968  0.00  0.00    +0.000 A 
ENDBRANCH   8   9
TORSDOF 1
ENDMDL
