MODEL 1
REMARK VINA RESULT:      -8.4      0.000      0.000
REMARK  Name = 
REMARK  5 active torsions:
REMARK  status: ('A' for Active; 'I' for Inactive)
REMARK    1  A    between atoms: C_1  and  O_2
REMARK    2  A    between atoms: O_2  and  C_3
REMARK    3  A    between atoms: C_8  and  C_9
REMARK    4  A    between atoms: C_12  and  N_13
REMARK    5  A    between atoms: C_14  and  C_15
REMARK                            x       y       z     vdW  Elec       q    Type
REMARK                         _______ _______ _______ _____ _____    ______ ____
ROOT
ATOM      1  C   UNL     1       4.149   4.864  17.926  0.00  0.00    +0.000 A 
ATOM      2  C   UNL     1       3.633   3.744  18.569  0.00  0.00    +0.000 A 
ATOM      3  N   UNL     1       2.626   3.753  19.474  0.00  0.00    +0.000 NA
ATOM      4  C   UNL     1       2.077   4.940  19.788  0.00  0.00    +0.000 A 
ATOM      5  C   UNL     1       2.522   6.167  19.266  0.00  0.00    +0.000 A 
ATOM      6  C   UNL     1       3.569   6.082  18.319  0.00  0.00    +0.000 A 
ENDROOT
BRANCH   5   7
ATOM      7  C   UNL     1       1.954   7.495  19.636  0.00  0.00    +0.000 A 
ATOM      8  C   UNL     1       1.746   8.505  18.672  0.00  0.00    +0.000 A 
ATOM      9  C   UNL     1       1.212   9.754  19.014  0.00  0.00    +0.000 A 
ATOM     10  C   UNL     1       0.825  10.008  20.330  0.00  0.00    +0.000 A 
ATOM     11  C   UNL     1       0.996   9.021  21.307  0.00  0.00    +0.000 A 
ATOM     12  C   UNL     1       1.607   7.808  20.963  0.00  0.00    +0.000 A 
ATOM     13  C   UNL     1       0.559   9.280  22.727  0.00  0.00    +0.000 C 
ATOM     14  C   UNL     1      -0.612  10.257  22.737  0.00  0.00    +0.000 C 
ATOM     15  N   UNL     1      -0.325  11.427  21.940  0.00  0.00    +0.000 N 
ATOM     16  C   UNL     1       0.223  11.321  20.682  0.00  0.00    +0.000 C 
ATOM     17  O   UNL     1       0.210  12.266  19.900  0.00  0.00    +0.000 OA
ATOM     18  H   UNL     1      -0.827  12.292  22.103  0.00  0.00    +0.000 HD
ENDBRANCH   5   7
BRANCH   1  24
ATOM     19  C   UNL     1       6.610   4.719  17.234  0.00  0.00    +0.000 A 
ATOM     20  C   UNL     1       7.567   4.650  16.216  0.00  0.00    +0.000 A 
ATOM     21  C   UNL     1       7.139   4.661  14.901  0.00  0.00    +0.000 A 
ATOM     22  N   UNL     1       5.847   4.738  14.543  0.00  0.00    +0.000 NA
ATOM     23  C   UNL     1       4.942   4.806  15.549  0.00  0.00    +0.000 A 
ATOM     24  C   UNL     1       5.236   4.795  16.919  0.00  0.00    +0.000 A 
BRANCH  19  26
ATOM     25  C   UNL     1       7.608   5.759  19.122  0.00  0.00    +0.000 C 
ATOM     26  O   UNL     1       6.959   4.623  18.560  0.00  0.00    +0.000 OA
ENDBRANCH  19  26
ENDBRANCH   1  24
BRANCH   4  27
ATOM     27  N   UNL     1       1.026   4.832  20.701  0.00  0.00    +0.000 N 
ATOM     28  H   UNL     1       0.445   5.656  20.570  0.00  0.00    +0.000 HD
ATOM     29  H   UNL     1       1.377   4.756  21.650  0.00  0.00    +0.000 HD
ENDBRANCH   4  27
TORSDOF 4
ENDMDL
MODEL 2
REMARK VINA RESULT:      -8.2      0.882      1.733
REMARK  Name = 
REMARK  5 active torsions:
REMARK  status: ('A' for Active; 'I' for Inactive)
REMARK    1  A    between atoms: C_1  and  O_2
REMARK    2  A    between atoms: O_2  and  C_3
REMARK    3  A    between atoms: C_8  and  C_9
REMARK    4  A    between atoms: C_12  and  N_13
REMARK    5  A    between atoms: C_14  and  C_15
REMARK                            x       y       z     vdW  Elec       q    Type
REMARK                         _______ _______ _______ _____ _____    ______ ____
ROOT
ATOM      1  C   UNL     1       4.044   4.627  17.802  0.00  0.00    +0.000 A 
ATOM      2  C   UNL     1       3.461   3.470  18.307  0.00  0.00    +0.000 A 
ATOM      3  N   UNL     1       2.430   3.429  19.184  0.00  0.00    +0.000 NA
ATOM      4  C   UNL     1       1.925   4.600  19.612  0.00  0.00    +0.000 A 
ATOM      5  C   UNL     1       2.438   5.854  19.235  0.00  0.00    +0.000 A 
ATOM      6  C   UNL     1       3.508   5.822  18.311  0.00  0.00    +0.000 A 
ENDROOT
BRANCH   5   7
ATOM      7  C   UNL     1       1.919   7.160  19.733  0.00  0.00    +0.000 A 
ATOM      8  C   UNL     1       1.589   7.355  21.092  0.00  0.00    +0.000 A 
ATOM      9  C   UNL     1       1.102   8.580  21.565  0.00  0.00    +0.000 A 
ATOM     10  C   UNL     1       0.978   9.662  20.694  0.00  0.00    +0.000 A 
ATOM     11  C   UNL     1       1.318   9.511  19.345  0.00  0.00    +0.000 A 
ATOM     12  C   UNL     1       1.726   8.257  18.873  0.00  0.00    +0.000 A 
ATOM     13  C   UNL     1       1.210  10.683  18.403  0.00  0.00    +0.000 C 
ATOM     14  C   UNL     1       1.429  11.984  19.168  0.00  0.00    +0.000 C 
ATOM     15  N   UNL     1       0.599  12.043  20.350  0.00  0.00    +0.000 N 
ATOM     16  C   UNL     1       0.497  10.972  21.208  0.00  0.00    +0.000 C 
ATOM     17  O   UNL     1       0.033  11.102  22.336  0.00  0.00    +0.000 OA
ATOM     18  H   UNL     1       0.372  12.936  20.771  0.00  0.00    +0.000 HD
ENDBRANCH   5   7
BRANCH   1  24
ATOM     19  C   UNL     1       6.524   4.647  17.165  0.00  0.00    +0.000 A 
ATOM     20  C   UNL     1       7.506   4.626  16.169  0.00  0.00    +0.000 A 
ATOM     21  C   UNL     1       7.109   4.575  14.846  0.00  0.00    +0.000 A 
ATOM     22  N   UNL     1       5.823   4.548  14.459  0.00  0.00    +0.000 NA
ATOM     23  C   UNL     1       4.893   4.572  15.444  0.00  0.00    +0.000 A 
ATOM     24  C   UNL     1       5.156   4.615  16.820  0.00  0.00    +0.000 A 
BRANCH  19  26
ATOM     25  C   UNL     1       7.660   5.676  18.980  0.00  0.00    +0.000 C 
ATOM     26  O   UNL     1       6.849   4.608  18.499  0.00  0.00    +0.000 OA
ENDBRANCH  19  26
ENDBRANCH   1  24
BRANCH   4  27
ATOM     27  N   UNL     1       0.845   4.445  20.482  0.00  0.00    +0.000 N 
ATOM     28  H   UNL     1       0.313   5.311  20.440  0.00  0.00    +0.000 HD
ATOM     29  H   UNL     1       1.164   4.235  21.422  0.00  0.00    +0.000 HD
ENDBRANCH   4  27
TORSDOF 4
ENDMDL
MODEL 3
REMARK VINA RESULT:      -7.6      1.385      2.180
REMARK  Name = 
REMARK  5 active torsions:
REMARK  status: ('A' for Active; 'I' for Inactive)
REMARK    1  A    between atoms: C_1  and  O_2
REMARK    2  A    between atoms: O_2  and  C_3
REMARK    3  A    between atoms: C_8  and  C_9
REMARK    4  A    between atoms: C_12  and  N_13
REMARK    5  A    between atoms: C_14  and  C_15
REMARK                            x       y       z     vdW  Elec       q    Type
REMARK                         _______ _______ _______ _____ _____    ______ ____
ROOT
ATOM      1  C   UNL     1       4.505   4.361  16.821  0.00  0.00    +0.000 A 
ATOM      2  C   UNL     1       4.155   3.152  17.413  0.00  0.00    +0.000 A 
ATOM      3  N   UNL     1       3.272   3.004  18.429  0.00  0.00    +0.000 NA
ATOM      4  C   UNL     1       2.684   4.111  18.915  0.00  0.00    +0.000 A 
ATOM      5  C   UNL     1       2.972   5.410  18.460  0.00  0.00    +0.000 A 
ATOM      6  C   UNL     1       3.895   5.491  17.392  0.00  0.00    +0.000 A 
ENDROOT
BRANCH   5   7
ATOM      7  C   UNL     1       2.362   6.652  19.017  0.00  0.00    +0.000 A 
ATOM      8  C   UNL     1       1.950   6.733  20.364  0.00  0.00    +0.000 A 
ATOM      9  C   UNL     1       1.378   7.897  20.893  0.00  0.00    +0.000 A 
ATOM     10  C   UNL     1       1.249   9.032  20.094  0.00  0.00    +0.000 A 
ATOM     11  C   UNL     1       1.668   8.995  18.760  0.00  0.00    +0.000 A 
ATOM     12  C   UNL     1       2.163   7.798  18.226  0.00  0.00    +0.000 A 
ATOM     13  C   UNL     1       1.554  10.226  17.897  0.00  0.00    +0.000 C 
ATOM     14  C   UNL     1       1.666  11.477  18.763  0.00  0.00    +0.000 C 
ATOM     15  N   UNL     1       0.772  11.412  19.896  0.00  0.00    +0.000 N 
ATOM     16  C   UNL     1       0.676  10.279  20.670  0.00  0.00    +0.000 C 
ATOM     17  O   UNL     1       0.145  10.305  21.775  0.00  0.00    +0.000 OA
ATOM     18  H   UNL     1       0.478  12.262  20.364  0.00  0.00    +0.000 HD
ENDBRANCH   5   7
BRANCH   1  24
ATOM     19  C   UNL     1       6.706   5.125  15.756  0.00  0.00    +0.000 A 
ATOM     20  C   UNL     1       7.545   5.167  14.639  0.00  0.00    +0.000 A 
ATOM     21  C   UNL     1       7.129   4.554  13.472  0.00  0.00    +0.000 A 
ATOM     22  N   UNL     1       5.953   3.917  13.349  0.00  0.00    +0.000 NA
ATOM     23  C   UNL     1       5.158   3.894  14.446  0.00  0.00    +0.000 A 
ATOM     24  C   UNL     1       5.460   4.466  15.690  0.00  0.00    +0.000 A 
BRANCH  19  26
ATOM     25  C   UNL     1       7.678   4.711  17.885  0.00  0.00    +0.000 C 
ATOM     26  O   UNL     1       7.095   5.636  16.971  0.00  0.00    +0.000 OA
ENDBRANCH  19  26
ENDBRANCH   1  24
BRANCH   4  27
ATOM     27  N   UNL     1       1.767   3.842  19.933  0.00  0.00    +0.000 N 
ATOM     28  H   UNL     1       1.679   4.698  20.476  0.00  0.00    +0.000 HD
ATOM     29  H   UNL     1       2.073   3.058  20.499  0.00  0.00    +0.000 HD
ENDBRANCH   4  27
TORSDOF 4
ENDMDL
MODEL 4
REMARK VINA RESULT:      -7.5      2.126      8.092
REMARK  Name = 
REMARK  5 active torsions:
REMARK  status: ('A' for Active; 'I' for Inactive)
REMARK    1  A    between atoms: C_1  and  O_2
REMARK    2  A    between atoms: O_2  and  C_3
REMARK    3  A    between atoms: C_8  and  C_9
REMARK    4  A    between atoms: C_12  and  N_13
REMARK    5  A    between atoms: C_14  and  C_15
REMARK                            x       y       z     vdW  Elec       q    Type
REMARK                         _______ _______ _______ _____ _____    ______ ____
ROOT
ATOM      1  C   UNL     1       0.862   9.489  19.700  0.00  0.00    +0.000 A 
ATOM      2  C   UNL     1       0.439   8.742  20.795  0.00  0.00    +0.000 A 
ATOM      3  N   UNL     1       0.927   7.532  21.154  0.00  0.00    +0.000 NA
ATOM      4  C   UNL     1       1.898   6.996  20.393  0.00  0.00    +0.000 A 
ATOM      5  C   UNL     1       2.394   7.601  19.224  0.00  0.00    +0.000 A 
ATOM      6  C   UNL     1       1.847   8.867  18.914  0.00  0.00    +0.000 A 
ENDROOT
BRANCH   5   7
ATOM      7  C   UNL     1       3.438   7.001  18.345  0.00  0.00    +0.000 A 
ATOM      8  C   UNL     1       3.584   7.394  16.997  0.00  0.00    +0.000 A 
ATOM      9  C   UNL     1       4.564   6.835  16.167  0.00  0.00    +0.000 A 
ATOM     10  C   UNL     1       5.459   5.897  16.681  0.00  0.00    +0.000 A 
ATOM     11  C   UNL     1       5.357   5.501  18.019  0.00  0.00    +0.000 A 
ATOM     12  C   UNL     1       4.321   6.010  18.813  0.00  0.00    +0.000 A 
ATOM     13  C   UNL     1       6.335   4.505  18.588  0.00  0.00    +0.000 C 
ATOM     14  C   UNL     1       7.671   4.618  17.861  0.00  0.00    +0.000 C 
ATOM     15  N   UNL     1       7.492   4.581  16.427  0.00  0.00    +0.000 N 
ATOM     16  C   UNL     1       6.521   5.333  15.806  0.00  0.00    +0.000 C 
ATOM     17  O   UNL     1       6.541   5.524  14.595  0.00  0.00    +0.000 OA
ATOM     18  H   UNL     1       8.259   4.311  15.823  0.00  0.00    +0.000 HD
ENDBRANCH   5   7
BRANCH   1  24
ATOM     19  C   UNL     1      -0.787  11.043  18.507  0.00  0.00    +0.000 A 
ATOM     20  C   UNL     1      -1.242  12.342  18.255  0.00  0.00    +0.000 A 
ATOM     21  C   UNL     1      -0.593  13.402  18.860  0.00  0.00    +0.000 A 
ATOM     22  N   UNL     1       0.459  13.255  19.681  0.00  0.00    +0.000 NA
ATOM     23  C   UNL     1       0.880  11.986  19.906  0.00  0.00    +0.000 A 
ATOM     24  C   UNL     1       0.312  10.825  19.366  0.00  0.00    +0.000 A 
BRANCH  19  26
ATOM     25  C   UNL     1      -2.134  10.123  16.780  0.00  0.00    +0.000 C 
ATOM     26  O   UNL     1      -1.440   9.941  18.010  0.00  0.00    +0.000 OA
ENDBRANCH  19  26
ENDBRANCH   1  24
BRANCH   4  27
ATOM     27  N   UNL     1       2.353   5.766  20.871  0.00  0.00    +0.000 N 
ATOM     28  H   UNL     1       2.734   5.941  21.798  0.00  0.00    +0.000 HD
ATOM     29  H   UNL     1       3.040   5.365  20.243  0.00  0.00    +0.000 HD
ENDBRANCH   4  27
TORSDOF 4
ENDMDL
MODEL 5
REMARK VINA RESULT:      -7.3      2.163      8.185
REMARK  Name = 
REMARK  5 active torsions:
REMARK  status: ('A' for Active; 'I' for Inactive)
REMARK    1  A    between atoms: C_1  and  O_2
REMARK    2  A    between atoms: O_2  and  C_3
REMARK    3  A    between atoms: C_8  and  C_9
REMARK    4  A    between atoms: C_12  and  N_13
REMARK    5  A    between atoms: C_14  and  C_15
REMARK                            x       y       z     vdW  Elec       q    Type
REMARK                         _______ _______ _______ _____ _____    ______ ____
ROOT
ATOM      1  C   UNL     1       0.816   9.710  19.657  0.00  0.00    +0.000 A 
ATOM      2  C   UNL     1       0.487   9.078  20.852  0.00  0.00    +0.000 A 
ATOM      3  N   UNL     1       0.950   7.871  21.254  0.00  0.00    +0.000 NA
ATOM      4  C   UNL     1       1.793   7.218  20.434  0.00  0.00    +0.000 A 
ATOM      5  C   UNL     1       2.180   7.699  19.171  0.00  0.00    +0.000 A 
ATOM      6  C   UNL     1       1.667   8.969  18.819  0.00  0.00    +0.000 A 
ENDROOT
BRANCH   5   7
ATOM      7  C   UNL     1       3.079   6.969  18.231  0.00  0.00    +0.000 A 
ATOM      8  C   UNL     1       4.052   7.645  17.465  0.00  0.00    +0.000 A 
ATOM      9  C   UNL     1       4.900   6.964  16.582  0.00  0.00    +0.000 A 
ATOM     10  C   UNL     1       4.827   5.575  16.480  0.00  0.00    +0.000 A 
ATOM     11  C   UNL     1       3.889   4.870  17.242  0.00  0.00    +0.000 A 
ATOM     12  C   UNL     1       2.994   5.575  18.059  0.00  0.00    +0.000 A 
ATOM     13  C   UNL     1       3.819   3.367  17.154  0.00  0.00    +0.000 C 
ATOM     14  C   UNL     1       5.196   2.805  16.815  0.00  0.00    +0.000 C 
ATOM     15  N   UNL     1       5.771   3.480  15.674  0.00  0.00    +0.000 N 
ATOM     16  C   UNL     1       5.755   4.852  15.569  0.00  0.00    +0.000 C 
ATOM     17  O   UNL     1       6.471   5.438  14.765  0.00  0.00    +0.000 OA
ATOM     18  H   UNL     1       6.494   3.029  15.126  0.00  0.00    +0.000 HD
ENDBRANCH   5   7
BRANCH   1  24
ATOM     19  C   UNL     1      -0.771  11.266  18.386  0.00  0.00    +0.000 A 
ATOM     20  C   UNL     1      -1.193  12.567  18.091  0.00  0.00    +0.000 A 
ATOM     21  C   UNL     1      -0.538  13.629  18.686  0.00  0.00    +0.000 A 
ATOM     22  N   UNL     1       0.492  13.482  19.536  0.00  0.00    +0.000 NA
ATOM     23  C   UNL     1       0.881  12.211  19.802  0.00  0.00    +0.000 A 
ATOM     24  C   UNL     1       0.302  11.048  19.276  0.00  0.00    +0.000 A 
BRANCH  19  26
ATOM     25  C   UNL     1      -2.852  10.267  17.825  0.00  0.00    +0.000 C 
ATOM     26  O   UNL     1      -1.434  10.165  17.900  0.00  0.00    +0.000 OA
ENDBRANCH  19  26
ENDBRANCH   1  24
BRANCH   4  27
ATOM     27  N   UNL     1       2.237   6.004  20.960  0.00  0.00    +0.000 N 
ATOM     28  H   UNL     1       1.816   5.917  21.882  0.00  0.00    +0.000 HD
ATOM     29  H   UNL     1       3.250   5.972  20.996  0.00  0.00    +0.000 HD
ENDBRANCH   4  27
TORSDOF 4
ENDMDL
MODEL 6
REMARK VINA RESULT:      -7.3      2.291      3.061
REMARK  Name = 
REMARK  5 active torsions:
REMARK  status: ('A' for Active; 'I' for Inactive)
REMARK    1  A    between atoms: C_1  and  O_2
REMARK    2  A    between atoms: O_2  and  C_3
REMARK    3  A    between atoms: C_8  and  C_9
REMARK    4  A    between atoms: C_12  and  N_13
REMARK    5  A    between atoms: C_14  and  C_15
REMARK                            x       y       z     vdW  Elec       q    Type
REMARK                         _______ _______ _______ _____ _____    ______ ____
ROOT
ATOM      1  C   UNL     1       4.016   6.101  18.166  0.00  0.00    +0.000 A 
ATOM      2  C   UNL     1       3.842   5.456  19.386  0.00  0.00    +0.000 A 
ATOM      3  N   UNL     1       2.972   5.831  20.354  0.00  0.00    +0.000 NA
ATOM      4  C   UNL     1       2.214   6.919  20.129  0.00  0.00    +0.000 A 
ATOM      5  C   UNL     1       2.310   7.709  18.969  0.00  0.00    +0.000 A 
ATOM      6  C   UNL     1       3.230   7.254  17.997  0.00  0.00    +0.000 A 
ENDROOT
BRANCH   5   7
ATOM      7  C   UNL     1       1.509   8.942  18.722  0.00  0.00    +0.000 A 
ATOM      8  C   UNL     1       2.057  10.229  18.909  0.00  0.00    +0.000 A 
ATOM      9  C   UNL     1       1.309  11.390  18.677  0.00  0.00    +0.000 A 
ATOM     10  C   UNL     1       0.001  11.292  18.203  0.00  0.00    +0.000 A 
ATOM     11  C   UNL     1      -0.566  10.032  17.985  0.00  0.00    +0.000 A 
ATOM     12  C   UNL     1       0.168   8.881  18.300  0.00  0.00    +0.000 A 
ATOM     13  C   UNL     1      -1.971   9.919  17.451  0.00  0.00    +0.000 C 
ATOM     14  C   UNL     1      -2.293  11.130  16.582  0.00  0.00    +0.000 C 
ATOM     15  N   UNL     1      -1.973  12.364  17.263  0.00  0.00    +0.000 N 
ATOM     16  C   UNL     1      -0.776  12.529  17.922  0.00  0.00    +0.000 C 
ATOM     17  O   UNL     1      -0.381  13.640  18.255  0.00  0.00    +0.000 OA
ATOM     18  H   UNL     1      -2.418  13.231  16.985  0.00  0.00    +0.000 HD
ENDBRANCH   5   7
BRANCH   1  24
ATOM     19  C   UNL     1       4.829   4.423  16.411  0.00  0.00    +0.000 A 
ATOM     20  C   UNL     1       5.771   4.065  15.441  0.00  0.00    +0.000 A 
ATOM     21  C   UNL     1       6.834   4.916  15.202  0.00  0.00    +0.000 A 
ATOM     22  N   UNL     1       7.016   6.075  15.855  0.00  0.00    +0.000 NA
ATOM     23  C   UNL     1       6.090   6.396  16.791  0.00  0.00    +0.000 A 
ATOM     24  C   UNL     1       4.964   5.631  17.127  0.00  0.00    +0.000 A 
BRANCH  19  26
ATOM     25  C   UNL     1       3.868   2.528  17.474  0.00  0.00    +0.000 C 
ATOM     26  O   UNL     1       3.703   3.668  16.636  0.00  0.00    +0.000 OA
ENDBRANCH  19  26
ENDBRANCH   1  24
BRANCH   4  27
ATOM     27  N   UNL     1       1.329   7.195  21.172  0.00  0.00    +0.000 N 
ATOM     28  H   UNL     1       0.633   7.836  20.799  0.00  0.00    +0.000 HD
ATOM     29  H   UNL     1       1.820   7.584  21.970  0.00  0.00    +0.000 HD
ENDBRANCH   4  27
TORSDOF 4
ENDMDL
MODEL 7
REMARK VINA RESULT:      -7.3      1.963      8.093
REMARK  Name = 
REMARK  5 active torsions:
REMARK  status: ('A' for Active; 'I' for Inactive)
REMARK    1  A    between atoms: C_1  and  O_2
REMARK    2  A    between atoms: O_2  and  C_3
REMARK    3  A    between atoms: C_8  and  C_9
REMARK    4  A    between atoms: C_12  and  N_13
REMARK    5  A    between atoms: C_14  and  C_15
REMARK                            x       y       z     vdW  Elec       q    Type
REMARK                         _______ _______ _______ _____ _____    ______ ____
ROOT
ATOM      1  C   UNL     1       2.567   6.214  19.770  0.00  0.00    +0.000 A 
ATOM      2  C   UNL     1       2.538   5.030  20.498  0.00  0.00    +0.000 A 
ATOM      3  N   UNL     1       3.267   3.923  20.224  0.00  0.00    +0.000 NA
ATOM      4  C   UNL     1       4.087   3.959  19.158  0.00  0.00    +0.000 A 
ATOM      5  C   UNL     1       4.190   5.063  18.292  0.00  0.00    +0.000 A 
ATOM      6  C   UNL     1       3.408   6.187  18.644  0.00  0.00    +0.000 A 
ENDROOT
BRANCH   5   7
ATOM      7  C   UNL     1       5.060   5.105  17.083  0.00  0.00    +0.000 A 
ATOM      8  C   UNL     1       6.343   5.691  17.115  0.00  0.00    +0.000 A 
ATOM      9  C   UNL     1       7.165   5.732  15.981  0.00  0.00    +0.000 A 
ATOM     10  C   UNL     1       6.740   5.140  14.792  0.00  0.00    +0.000 A 
ATOM     11  C   UNL     1       5.482   4.530  14.731  0.00  0.00    +0.000 A 
ATOM     12  C   UNL     1       4.640   4.569  15.850  0.00  0.00    +0.000 A 
ATOM     13  C   UNL     1       5.025   3.868  13.456  0.00  0.00    +0.000 C 
ATOM     14  C   UNL     1       6.232   3.350  12.681  0.00  0.00    +0.000 C 
ATOM     15  N   UNL     1       7.241   4.374  12.536  0.00  0.00    +0.000 N 
ATOM     16  C   UNL     1       7.631   5.152  13.602  0.00  0.00    +0.000 C 
ATOM     17  O   UNL     1       8.661   5.817  13.562  0.00  0.00    +0.000 OA
ATOM     18  H   UNL     1       7.926   4.314  11.792  0.00  0.00    +0.000 HD
ENDBRANCH   5   7
BRANCH   1  24
ATOM     19  C   UNL     1       1.606   8.541  19.300  0.00  0.00    +0.000 A 
ATOM     20  C   UNL     1       0.825   9.622  19.721  0.00  0.00    +0.000 A 
ATOM     21  C   UNL     1       0.218   9.560  20.961  0.00  0.00    +0.000 A 
ATOM     22  N   UNL     1       0.339   8.513  21.794  0.00  0.00    +0.000 NA
ATOM     23  C   UNL     1       1.104   7.481  21.362  0.00  0.00    +0.000 A 
ATOM     24  C   UNL     1       1.767   7.410  20.129  0.00  0.00    +0.000 A 
BRANCH  19  26
ATOM     25  C   UNL     1       2.479   9.756  17.454  0.00  0.00    +0.000 C 
ATOM     26  O   UNL     1       2.165   8.499  18.045  0.00  0.00    +0.000 OA
ENDBRANCH  19  26
ENDBRANCH   1  24
BRANCH   4  27
ATOM     27  N   UNL     1       4.817   2.782  18.988  0.00  0.00    +0.000 N 
ATOM     28  H   UNL     1       4.287   2.205  18.339  0.00  0.00    +0.000 HD
ATOM     29  H   UNL     1       4.969   2.318  19.877  0.00  0.00    +0.000 HD
ENDBRANCH   4  27
TORSDOF 4
ENDMDL
MODEL 8
REMARK VINA RESULT:      -7.3      1.929      2.914
REMARK  Name = 
REMARK  5 active torsions:
REMARK  status: ('A' for Active; 'I' for Inactive)
REMARK    1  A    between atoms: C_1  and  O_2
REMARK    2  A    between atoms: O_2  and  C_3
REMARK    3  A    between atoms: C_8  and  C_9
REMARK    4  A    between atoms: C_12  and  N_13
REMARK    5  A    between atoms: C_14  and  C_15
REMARK                            x       y       z     vdW  Elec       q    Type
REMARK                         _______ _______ _______ _____ _____    ______ ____
ROOT
ATOM      1  C   UNL     1       5.138   4.587  15.987  0.00  0.00    +0.000 A 
ATOM      2  C   UNL     1       4.828   3.367  16.579  0.00  0.00    +0.000 A 
ATOM      3  N   UNL     1       3.938   3.187  17.582  0.00  0.00    +0.000 NA
ATOM      4  C   UNL     1       3.299   4.271  18.057  0.00  0.00    +0.000 A 
ATOM      5  C   UNL     1       3.540   5.579  17.601  0.00  0.00    +0.000 A 
ATOM      6  C   UNL     1       4.475   5.693  16.545  0.00  0.00    +0.000 A 
ENDROOT
BRANCH   5   7
ATOM      7  C   UNL     1       2.874   6.797  18.144  0.00  0.00    +0.000 A 
ATOM      8  C   UNL     1       2.663   7.943  17.348  0.00  0.00    +0.000 A 
ATOM      9  C   UNL     1       2.036   9.089  17.854  0.00  0.00    +0.000 A 
ATOM     10  C   UNL     1       1.558   9.099  19.164  0.00  0.00    +0.000 A 
ATOM     11  C   UNL     1       1.730   7.972  19.975  0.00  0.00    +0.000 A 
ATOM     12  C   UNL     1       2.431   6.865  19.478  0.00  0.00    +0.000 A 
ATOM     13  C   UNL     1       1.195   7.967  21.384  0.00  0.00    +0.000 C 
ATOM     14  C   UNL     1      -0.031   8.870  21.475  0.00  0.00    +0.000 C 
ATOM     15  N   UNL     1       0.232  10.170  20.903  0.00  0.00    +0.000 N 
ATOM     16  C   UNL     1       0.859  10.304  19.685  0.00  0.00    +0.000 C 
ATOM     17  O   UNL     1       0.837  11.364  19.070  0.00  0.00    +0.000 OA
ATOM     18  H   UNL     1      -0.329  10.970  21.172  0.00  0.00    +0.000 HD
ENDBRANCH   5   7
BRANCH   1  24
ATOM     19  C   UNL     1       5.904   4.205  13.573  0.00  0.00    +0.000 A 
ATOM     20  C   UNL     1       6.869   4.393  12.578  0.00  0.00    +0.000 A 
ATOM     21  C   UNL     1       8.018   5.095  12.891  0.00  0.00    +0.000 A 
ATOM     22  N   UNL     1       8.264   5.609  14.107  0.00  0.00    +0.000 NA
ATOM     23  C   UNL     1       7.313   5.411  15.053  0.00  0.00    +0.000 A 
ATOM     24  C   UNL     1       6.104   4.727  14.869  0.00  0.00    +0.000 A 
BRANCH  19  26
ATOM     25  C   UNL     1       4.469   3.232  11.950  0.00  0.00    +0.000 C 
ATOM     26  O   UNL     1       4.702   3.595  13.307  0.00  0.00    +0.000 OA
ENDBRANCH  19  26
ENDBRANCH   1  24
BRANCH   4  27
ATOM     27  N   UNL     1       2.379   3.968  19.062  0.00  0.00    +0.000 N 
ATOM     28  H   UNL     1       1.507   3.732  18.594  0.00  0.00    +0.000 HD
ATOM     29  H   UNL     1       2.272   4.747  19.702  0.00  0.00    +0.000 HD
ENDBRANCH   4  27
TORSDOF 4
ENDMDL
MODEL 9
REMARK VINA RESULT:      -7.3      2.249      2.742
REMARK  Name = 
REMARK  5 active torsions:
REMARK  status: ('A' for Active; 'I' for Inactive)
REMARK    1  A    between atoms: C_1  and  O_2
REMARK    2  A    between atoms: O_2  and  C_3
REMARK    3  A    between atoms: C_8  and  C_9
REMARK    4  A    between atoms: C_12  and  N_13
REMARK    5  A    between atoms: C_14  and  C_15
REMARK                            x       y       z     vdW  Elec       q    Type
REMARK                         _______ _______ _______ _____ _____    ______ ____
ROOT
ATOM      1  C   UNL     1       4.068   6.017  17.874  0.00  0.00    +0.000 A 
ATOM      2  C   UNL     1       3.930   5.339  19.081  0.00  0.00    +0.000 A 
ATOM      3  N   UNL     1       3.102   5.696  20.090  0.00  0.00    +0.000 NA
ATOM      4  C   UNL     1       2.350   6.799  19.925  0.00  0.00    +0.000 A 
ATOM      5  C   UNL     1       2.415   7.622  18.786  0.00  0.00    +0.000 A 
ATOM      6  C   UNL     1       3.293   7.184  17.767  0.00  0.00    +0.000 A 
ENDROOT
BRANCH   5   7
ATOM      7  C   UNL     1       1.623   8.871  18.604  0.00  0.00    +0.000 A 
ATOM      8  C   UNL     1       2.199  10.146  18.790  0.00  0.00    +0.000 A 
ATOM      9  C   UNL     1       1.460  11.323  18.620  0.00  0.00    +0.000 A 
ATOM     10  C   UNL     1       0.129  11.255  18.209  0.00  0.00    +0.000 A 
ATOM     11  C   UNL     1      -0.469  10.008  17.993  0.00  0.00    +0.000 A 
ATOM     12  C   UNL     1       0.262   8.840  18.247  0.00  0.00    +0.000 A 
ATOM     13  C   UNL     1      -1.900   9.927  17.526  0.00  0.00    +0.000 C 
ATOM     14  C   UNL     1      -2.245  11.161  16.700  0.00  0.00    +0.000 C 
ATOM     15  N   UNL     1      -1.872  12.375  17.389  0.00  0.00    +0.000 N 
ATOM     16  C   UNL     1      -0.642  12.508  17.992  0.00  0.00    +0.000 C 
ATOM     17  O   UNL     1      -0.214  13.607  18.329  0.00  0.00    +0.000 OA
ATOM     18  H   UNL     1      -2.316  13.254  17.153  0.00  0.00    +0.000 HD
ENDBRANCH   5   7
BRANCH   1  24
ATOM     19  C   UNL     1       6.120   6.269  16.362  0.00  0.00    +0.000 A 
ATOM     20  C   UNL     1       6.919   5.764  15.332  0.00  0.00    +0.000 A 
ATOM     21  C   UNL     1       6.560   4.567  14.740  0.00  0.00    +0.000 A 
ATOM     22  N   UNL     1       5.477   3.858  15.099  0.00  0.00    +0.000 NA
ATOM     23  C   UNL     1       4.720   4.373  16.098  0.00  0.00    +0.000 A 
ATOM     24  C   UNL     1       4.972   5.567  16.787  0.00  0.00    +0.000 A 
BRANCH  19  26
ATOM     25  C   UNL     1       7.699   7.357  17.766  0.00  0.00    +0.000 C 
ATOM     26  O   UNL     1       6.467   7.406  17.053  0.00  0.00    +0.000 OA
ENDBRANCH  19  26
ENDBRANCH   1  24
BRANCH   4  27
ATOM     27  N   UNL     1       1.508   7.056  21.008  0.00  0.00    +0.000 N 
ATOM     28  H   UNL     1       0.573   6.785  20.716  0.00  0.00    +0.000 HD
ATOM     29  H   UNL     1       1.558   8.031  21.282  0.00  0.00    +0.000 HD
ENDBRANCH   4  27
TORSDOF 4
ENDMDL
