MODEL 1
REMARK VINA RESULT:      -7.1      0.000      0.000
REMARK  Name = 
REMARK  5 active torsions:
REMARK  status: ('A' for Active; 'I' for Inactive)
REMARK    1  A    between atoms: C_4  and  C_5
REMARK    2  A    between atoms: C_8  and  O_9
REMARK    3  A    between atoms: C_10  and  O_11
REMARK    4  A    between atoms: C_18  and  C_19
REMARK    5  A    between atoms: C_19  and  C_20
REMARK                            x       y       z     vdW  Elec       q    Type
REMARK                         _______ _______ _______ _____ _____    ______ ____
ROOT
ATOM      1  N   UNL     1      -2.150  12.232  18.755  0.00  0.00    +0.000 NA
ATOM      2  C   UNL     1      -1.144  12.068  19.561  0.00  0.00    +0.000 C 
ATOM      3  C   UNL     1      -0.004  13.053  19.708  0.00  0.00    +0.000 C 
ATOM      4  C   UNL     1       0.293  13.987  18.779  0.00  0.00    +0.000 C 
ATOM      5  C   UNL     1       0.899  12.752  20.871  0.00  0.00    +0.000 C 
ATOM      6  O   UNL     1       2.119  12.757  20.778  0.00  0.00    +0.000 OA
ATOM      7  N   UNL     1       0.263  12.262  21.998  0.00  0.00    +0.000 NA
ATOM      8  C   UNL     1      -0.541  11.297  21.703  0.00  0.00    +0.000 C 
ATOM      9  S   UNL     1      -0.478   9.850  22.668  0.00  0.00    +0.000 S 
ATOM     10  C   UNL     1       0.074   9.207  21.108  0.00  0.00    +0.000 C 
ATOM     11  N   UNL     1      -0.437   9.771  20.034  0.00  0.00    +0.000 NA
ATOM     12  N   UNL     1      -1.049  10.985  20.460  0.00  0.00    +0.000 N 
ATOM     13  H   UNL     1      -2.100  13.112  18.236  0.00  0.00    +0.000 HD
ENDROOT
BRANCH   4  14
ATOM     14  C   UNL     1       1.550  14.759  18.749  0.00  0.00    +0.000 A 
ATOM     15  C   UNL     1       2.700  14.295  18.088  0.00  0.00    +0.000 A 
ATOM     16  C   UNL     1       3.852  15.093  18.032  0.00  0.00    +0.000 A 
ATOM     17  C   UNL     1       3.845  16.345  18.636  0.00  0.00    +0.000 A 
ATOM     18  C   UNL     1       2.703  16.803  19.288  0.00  0.00    +0.000 A 
ATOM     19  C   UNL     1       1.559  16.018  19.350  0.00  0.00    +0.000 A 
BRANCH  17  20
ATOM     20  O   UNL     1       4.935  17.170  18.614  0.00  0.00    +0.000 OA
ATOM     21  H   UNL     1       5.026  17.526  17.713  0.00  0.00    +0.000 HD
ENDBRANCH  17  20
BRANCH  18  22
ATOM     22  O   UNL     1       2.696  18.040  19.865  0.00  0.00    +0.000 OA
ATOM     23  H   UNL     1       3.271  17.946  20.652  0.00  0.00    +0.000 HD
ENDBRANCH  18  22
ENDBRANCH   4  14
BRANCH  10  24
ATOM     24  C   UNL     1       1.414   8.547  21.051  0.00  0.00    +0.000 C 
BRANCH  24  25
ATOM     25  C   UNL     1       1.914   7.971  19.758  0.00  0.00    +0.000 C 
ATOM     26  O   UNL     1       2.276   8.675  18.819  0.00  0.00    +0.000 OA
ATOM     27  N   UNL     1       1.983   6.587  19.723  0.00  0.00    +0.000 N 
ATOM     28  C   UNL     1       1.593   5.649  20.766  0.00  0.00    +0.000 C 
ATOM     29  C   UNL     1       2.596   4.526  20.598  0.00  0.00    +0.000 C 
ATOM     30  C   UNL     1       2.806   4.455  19.089  0.00  0.00    +0.000 C 
ATOM     31  C   UNL     1       2.512   5.868  18.578  0.00  0.00    +0.000 C 
ENDBRANCH  24  25
ENDBRANCH  10  24
TORSDOF 5
ENDMDL
MODEL 2
REMARK VINA RESULT:      -7.0      5.369      8.470
REMARK  Name = 
REMARK  5 active torsions:
REMARK  status: ('A' for Active; 'I' for Inactive)
REMARK    1  A    between atoms: C_4  and  C_5
REMARK    2  A    between atoms: C_8  and  O_9
REMARK    3  A    between atoms: C_10  and  O_11
REMARK    4  A    between atoms: C_18  and  C_19
REMARK    5  A    between atoms: C_19  and  C_20
REMARK                            x       y       z     vdW  Elec       q    Type
REMARK                         _______ _______ _______ _____ _____    ______ ____
ROOT
ATOM      1  N   UNL     1       2.993   3.303  19.422  0.00  0.00    +0.000 NA
ATOM      2  C   UNL     1       3.667   4.238  18.821  0.00  0.00    +0.000 C 
ATOM      3  C   UNL     1       3.394   5.718  18.979  0.00  0.00    +0.000 C 
ATOM      4  C   UNL     1       2.221   6.211  19.433  0.00  0.00    +0.000 C 
ATOM      5  C   UNL     1       4.460   6.589  18.377  0.00  0.00    +0.000 C 
ATOM      6  O   UNL     1       4.202   7.551  17.665  0.00  0.00    +0.000 OA
ATOM      7  N   UNL     1       5.752   6.111  18.504  0.00  0.00    +0.000 NA
ATOM      8  C   UNL     1       5.833   4.873  18.149  0.00  0.00    +0.000 C 
ATOM      9  S   UNL     1       7.125   4.407  17.081  0.00  0.00    +0.000 S 
ATOM     10  C   UNL     1       5.727   4.103  16.029  0.00  0.00    +0.000 C 
ATOM     11  N   UNL     1       4.624   3.711  16.629  0.00  0.00    +0.000 NA
ATOM     12  N   UNL     1       4.797   3.973  18.018  0.00  0.00    +0.000 N 
ATOM     13  H   UNL     1       2.259   3.676  20.030  0.00  0.00    +0.000 HD
ENDROOT
BRANCH   4  14
ATOM     14  C   UNL     1       1.818   7.626  19.326  0.00  0.00    +0.000 A 
ATOM     15  C   UNL     1       1.547   8.238  18.091  0.00  0.00    +0.000 A 
ATOM     16  C   UNL     1       1.105   9.569  18.045  0.00  0.00    +0.000 A 
ATOM     17  C   UNL     1       0.938  10.274  19.231  0.00  0.00    +0.000 A 
ATOM     18  C   UNL     1       1.204   9.664  20.453  0.00  0.00    +0.000 A 
ATOM     19  C   UNL     1       1.644   8.347  20.508  0.00  0.00    +0.000 A 
BRANCH  17  20
ATOM     20  O   UNL     1       0.507  11.572  19.252  0.00  0.00    +0.000 OA
ATOM     21  H   UNL     1       1.067  12.085  18.644  0.00  0.00    +0.000 HD
ENDBRANCH  17  20
BRANCH  18  22
ATOM     22  O   UNL     1       1.022  10.355  21.616  0.00  0.00    +0.000 OA
ATOM     23  H   UNL     1       1.927  10.487  21.966  0.00  0.00    +0.000 HD
ENDBRANCH  18  22
ENDBRANCH   4  14
BRANCH  10  24
ATOM     24  C   UNL     1       5.662   4.818  14.717  0.00  0.00    +0.000 C 
BRANCH  24  25
ATOM     25  C   UNL     1       6.800   4.709  13.744  0.00  0.00    +0.000 C 
ATOM     26  O   UNL     1       7.872   5.283  13.918  0.00  0.00    +0.000 OA
ATOM     27  N   UNL     1       6.567   3.873  12.664  0.00  0.00    +0.000 N 
ATOM     28  C   UNL     1       5.350   3.138  12.353  0.00  0.00    +0.000 C 
ATOM     29  C   UNL     1       5.879   1.872  11.709  0.00  0.00    +0.000 C 
ATOM     30  C   UNL     1       7.096   2.350  10.924  0.00  0.00    +0.000 C 
ATOM     31  C   UNL     1       7.586   3.597  11.666  0.00  0.00    +0.000 C 
ENDBRANCH  24  25
ENDBRANCH  10  24
TORSDOF 5
ENDMDL
MODEL 3
REMARK VINA RESULT:      -7.0      0.559      1.261
REMARK  Name = 
REMARK  5 active torsions:
REMARK  status: ('A' for Active; 'I' for Inactive)
REMARK    1  A    between atoms: C_4  and  C_5
REMARK    2  A    between atoms: C_8  and  O_9
REMARK    3  A    between atoms: C_10  and  O_11
REMARK    4  A    between atoms: C_18  and  C_19
REMARK    5  A    between atoms: C_19  and  C_20
REMARK                            x       y       z     vdW  Elec       q    Type
REMARK                         _______ _______ _______ _____ _____    ______ ____
ROOT
ATOM      1  N   UNL     1      -2.245  12.209  18.736  0.00  0.00    +0.000 NA
ATOM      2  C   UNL     1      -1.219  12.056  19.519  0.00  0.00    +0.000 C 
ATOM      3  C   UNL     1      -0.147  13.104  19.730  0.00  0.00    +0.000 C 
ATOM      4  C   UNL     1       0.073  14.122  18.869  0.00  0.00    +0.000 C 
ATOM      5  C   UNL     1       0.789  12.781  20.859  0.00  0.00    +0.000 C 
ATOM      6  O   UNL     1       2.005  12.877  20.757  0.00  0.00    +0.000 OA
ATOM      7  N   UNL     1       0.203  12.167  21.953  0.00  0.00    +0.000 NA
ATOM      8  C   UNL     1      -0.538  11.174  21.594  0.00  0.00    +0.000 C 
ATOM      9  S   UNL     1      -0.364   9.668  22.448  0.00  0.00    +0.000 S 
ATOM     10  C   UNL     1       0.210   9.181  20.840  0.00  0.00    +0.000 C 
ATOM     11  N   UNL     1      -0.352   9.785  19.816  0.00  0.00    +0.000 NA
ATOM     12  N   UNL     1      -1.040  10.919  20.335  0.00  0.00    +0.000 N 
ATOM     13  H   UNL     1      -2.261  13.127  18.283  0.00  0.00    +0.000 HD
ENDROOT
BRANCH   4  14
ATOM     14  C   UNL     1       1.274  14.978  18.887  0.00  0.00    +0.000 A 
ATOM     15  C   UNL     1       1.373  16.116  19.706  0.00  0.00    +0.000 A 
ATOM     16  C   UNL     1       2.560  16.862  19.736  0.00  0.00    +0.000 A 
ATOM     17  C   UNL     1       3.635  16.466  18.949  0.00  0.00    +0.000 A 
ATOM     18  C   UNL     1       3.535  15.338  18.140  0.00  0.00    +0.000 A 
ATOM     19  C   UNL     1       2.363  14.594  18.103  0.00  0.00    +0.000 A 
BRANCH  17  20
ATOM     20  O   UNL     1       4.819  17.151  18.936  0.00  0.00    +0.000 OA
ATOM     21  H   UNL     1       5.518  16.540  18.646  0.00  0.00    +0.000 HD
ENDBRANCH  17  20
BRANCH  18  22
ATOM     22  O   UNL     1       4.599  14.944  17.382  0.00  0.00    +0.000 OA
ATOM     23  H   UNL     1       5.214  14.528  18.020  0.00  0.00    +0.000 HD
ENDBRANCH  18  22
ENDBRANCH   4  14
BRANCH  10  24
ATOM     24  C   UNL     1       1.591   8.620  20.724  0.00  0.00    +0.000 C 
BRANCH  24  25
ATOM     25  C   UNL     1       2.015   7.921  19.464  0.00  0.00    +0.000 C 
ATOM     26  O   UNL     1       2.347   8.532  18.452  0.00  0.00    +0.000 OA
ATOM     27  N   UNL     1       2.051   6.538  19.547  0.00  0.00    +0.000 N 
ATOM     28  C   UNL     1       1.690   5.705  20.684  0.00  0.00    +0.000 C 
ATOM     29  C   UNL     1       2.657   4.544  20.569  0.00  0.00    +0.000 C 
ATOM     30  C   UNL     1       2.793   4.338  19.064  0.00  0.00    +0.000 C 
ATOM     31  C   UNL     1       2.507   5.710  18.445  0.00  0.00    +0.000 C 
ENDBRANCH  24  25
ENDBRANCH  10  24
TORSDOF 5
ENDMDL
MODEL 4
REMARK VINA RESULT:      -6.8      2.634      8.282
REMARK  Name = 
REMARK  5 active torsions:
REMARK  status: ('A' for Active; 'I' for Inactive)
REMARK    1  A    between atoms: C_4  and  C_5
REMARK    2  A    between atoms: C_8  and  O_9
REMARK    3  A    between atoms: C_10  and  O_11
REMARK    4  A    between atoms: C_18  and  C_19
REMARK    5  A    between atoms: C_19  and  C_20
REMARK                            x       y       z     vdW  Elec       q    Type
REMARK                         _______ _______ _______ _____ _____    ______ ____
ROOT
ATOM      1  N   UNL     1       0.860   8.972  21.937  0.00  0.00    +0.000 NA
ATOM      2  C   UNL     1       0.974   9.357  20.701  0.00  0.00    +0.000 C 
ATOM      3  C   UNL     1       1.482   8.475  19.579  0.00  0.00    +0.000 C 
ATOM      4  C   UNL     1       2.213   7.359  19.787  0.00  0.00    +0.000 C 
ATOM      5  C   UNL     1       1.288   9.074  18.215  0.00  0.00    +0.000 C 
ATOM      6  O   UNL     1       2.173   9.091  17.370  0.00  0.00    +0.000 OA
ATOM      7  N   UNL     1       0.117   9.794  18.049  0.00  0.00    +0.000 NA
ATOM      8  C   UNL     1      -0.061  10.633  19.013  0.00  0.00    +0.000 C 
ATOM      9  S   UNL     1      -0.500  12.267  18.610  0.00  0.00    +0.000 S 
ATOM     10  C   UNL     1       1.101  12.543  19.326  0.00  0.00    +0.000 C 
ATOM     11  N   UNL     1       1.453  11.724  20.294  0.00  0.00    +0.000 NA
ATOM     12  N   UNL     1       0.549  10.624  20.250  0.00  0.00    +0.000 N 
ATOM     13  H   UNL     1       1.138   7.996  22.072  0.00  0.00    +0.000 HD
ENDROOT
BRANCH   4  14
ATOM     14  C   UNL     1       2.960   6.648  18.733  0.00  0.00    +0.000 A 
ATOM     15  C   UNL     1       4.151   7.155  18.184  0.00  0.00    +0.000 A 
ATOM     16  C   UNL     1       4.860   6.411  17.229  0.00  0.00    +0.000 A 
ATOM     17  C   UNL     1       4.374   5.171  16.832  0.00  0.00    +0.000 A 
ATOM     18  C   UNL     1       3.196   4.670  17.379  0.00  0.00    +0.000 A 
ATOM     19  C   UNL     1       2.487   5.400  18.324  0.00  0.00    +0.000 A 
BRANCH  17  20
ATOM     20  O   UNL     1       5.021   4.398  15.907  0.00  0.00    +0.000 OA
ATOM     21  H   UNL     1       4.964   3.471  16.196  0.00  0.00    +0.000 HD
ENDBRANCH  17  20
BRANCH  18  22
ATOM     22  O   UNL     1       2.733   3.444  16.998  0.00  0.00    +0.000 OA
ATOM     23  H   UNL     1       3.526   2.870  17.006  0.00  0.00    +0.000 HD
ENDBRANCH  18  22
ENDBRANCH   4  14
BRANCH  10  24
ATOM     24  C   UNL     1       2.142  13.219  18.491  0.00  0.00    +0.000 C 
BRANCH  24  25
ATOM     25  C   UNL     1       2.258  14.716  18.500  0.00  0.00    +0.000 C 
ATOM     26  O   UNL     1       1.291  15.450  18.682  0.00  0.00    +0.000 OA
ATOM     27  N   UNL     1       3.546  15.202  18.339  0.00  0.00    +0.000 N 
ATOM     28  C   UNL     1       4.765  14.439  18.123  0.00  0.00    +0.000 C 
ATOM     29  C   UNL     1       5.810  15.265  18.846  0.00  0.00    +0.000 C 
ATOM     30  C   UNL     1       5.364  16.702  18.599  0.00  0.00    +0.000 C 
ATOM     31  C   UNL     1       3.848  16.621  18.396  0.00  0.00    +0.000 C 
ENDBRANCH  24  25
ENDBRANCH  10  24
TORSDOF 5
ENDMDL
MODEL 5
REMARK VINA RESULT:      -6.7      7.096      9.882
REMARK  Name = 
REMARK  5 active torsions:
REMARK  status: ('A' for Active; 'I' for Inactive)
REMARK    1  A    between atoms: C_4  and  C_5
REMARK    2  A    between atoms: C_8  and  O_9
REMARK    3  A    between atoms: C_10  and  O_11
REMARK    4  A    between atoms: C_18  and  C_19
REMARK    5  A    between atoms: C_19  and  C_20
REMARK                            x       y       z     vdW  Elec       q    Type
REMARK                         _______ _______ _______ _____ _____    ______ ____
ROOT
ATOM      1  N   UNL     1       9.374  10.111  19.699  0.00  0.00    +0.000 NA
ATOM      2  C   UNL     1       9.483  11.374  19.982  0.00  0.00    +0.000 C 
ATOM      3  C   UNL     1       9.162  11.973  21.335  0.00  0.00    +0.000 C 
ATOM      4  C   UNL     1       8.385  11.356  22.252  0.00  0.00    +0.000 C 
ATOM      5  C   UNL     1       9.601  13.403  21.474  0.00  0.00    +0.000 C 
ATOM      6  O   UNL     1       8.876  14.273  21.940  0.00  0.00    +0.000 OA
ATOM      7  N   UNL     1      10.795  13.716  20.850  0.00  0.00    +0.000 NA
ATOM      8  C   UNL     1      10.818  13.283  19.634  0.00  0.00    +0.000 C 
ATOM      9  S   UNL     1      11.350  14.370  18.384  0.00  0.00    +0.000 S 
ATOM     10  C   UNL     1       9.654  14.152  17.906  0.00  0.00    +0.000 C 
ATOM     11  N   UNL     1       9.125  12.976  18.164  0.00  0.00    +0.000 NA
ATOM     12  N   UNL     1      10.003  12.322  19.075  0.00  0.00    +0.000 N 
ATOM     13  H   UNL     1       9.059   9.554  20.498  0.00  0.00    +0.000 HD
ENDROOT
BRANCH   4  14
ATOM     14  C   UNL     1       7.820  12.020  23.442  0.00  0.00    +0.000 A 
ATOM     15  C   UNL     1       8.510  12.084  24.665  0.00  0.00    +0.000 A 
ATOM     16  C   UNL     1       7.960  12.782  25.750  0.00  0.00    +0.000 A 
ATOM     17  C   UNL     1       6.728  13.409  25.604  0.00  0.00    +0.000 A 
ATOM     18  C   UNL     1       6.048  13.347  24.391  0.00  0.00    +0.000 A 
ATOM     19  C   UNL     1       6.585  12.657  23.312  0.00  0.00    +0.000 A 
BRANCH  17  20
ATOM     20  O   UNL     1       6.141  14.107  26.623  0.00  0.00    +0.000 OA
ATOM     21  H   UNL     1       6.316  15.053  26.481  0.00  0.00    +0.000 HD
ENDBRANCH  17  20
BRANCH  18  22
ATOM     22  O   UNL     1       4.847  13.980  24.247  0.00  0.00    +0.000 OA
ATOM     23  H   UNL     1       4.485  13.628  23.409  0.00  0.00    +0.000 HD
ENDBRANCH  18  22
ENDBRANCH   4  14
BRANCH  10  24
ATOM     24  C   UNL     1       8.787  15.367  17.805  0.00  0.00    +0.000 C 
BRANCH  24  25
ATOM     25  C   UNL     1       7.959  15.798  18.981  0.00  0.00    +0.000 C 
ATOM     26  O   UNL     1       8.421  16.466  19.902  0.00  0.00    +0.000 OA
ATOM     27  N   UNL     1       6.625  15.428  18.922  0.00  0.00    +0.000 N 
ATOM     28  C   UNL     1       5.962  14.648  17.888  0.00  0.00    +0.000 C 
ATOM     29  C   UNL     1       4.574  15.255  17.849  0.00  0.00    +0.000 C 
ATOM     30  C   UNL     1       4.291  15.597  19.308  0.00  0.00    +0.000 C 
ATOM     31  C   UNL     1       5.667  15.825  19.939  0.00  0.00    +0.000 C 
ENDBRANCH  24  25
ENDBRANCH  10  24
TORSDOF 5
ENDMDL
MODEL 6
REMARK VINA RESULT:      -6.7      5.206      7.931
REMARK  Name = 
REMARK  5 active torsions:
REMARK  status: ('A' for Active; 'I' for Inactive)
REMARK    1  A    between atoms: C_4  and  C_5
REMARK    2  A    between atoms: C_8  and  O_9
REMARK    3  A    between atoms: C_10  and  O_11
REMARK    4  A    between atoms: C_18  and  C_19
REMARK    5  A    between atoms: C_19  and  C_20
REMARK                            x       y       z     vdW  Elec       q    Type
REMARK                         _______ _______ _______ _____ _____    ______ ____
ROOT
ATOM      1  N   UNL     1      -3.071  15.876  23.956  0.00  0.00    +0.000 NA
ATOM      2  C   UNL     1      -3.746  14.927  23.379  0.00  0.00    +0.000 C 
ATOM      3  C   UNL     1      -3.122  13.809  22.571  0.00  0.00    +0.000 C 
ATOM      4  C   UNL     1      -1.879  13.879  22.047  0.00  0.00    +0.000 C 
ATOM      5  C   UNL     1      -4.089  12.715  22.220  0.00  0.00    +0.000 C 
ATOM      6  O   UNL     1      -4.174  12.245  21.092  0.00  0.00    +0.000 OA
ATOM      7  N   UNL     1      -5.024  12.418  23.197  0.00  0.00    +0.000 NA
ATOM      8  C   UNL     1      -5.591  13.487  23.645  0.00  0.00    +0.000 C 
ATOM      9  S   UNL     1      -7.325  13.499  23.788  0.00  0.00    +0.000 S 
ATOM     10  C   UNL     1      -7.109  14.736  22.533  0.00  0.00    +0.000 C 
ATOM     11  N   UNL     1      -6.012  15.457  22.612  0.00  0.00    +0.000 NA
ATOM     12  N   UNL     1      -5.143  14.785  23.520  0.00  0.00    +0.000 N 
ATOM     13  H   UNL     1      -2.061  15.780  23.818  0.00  0.00    +0.000 HD
ENDROOT
BRANCH   4  14
ATOM     14  C   UNL     1      -1.355  12.950  21.027  0.00  0.00    +0.000 A 
ATOM     15  C   UNL     1      -0.872  11.671  21.354  0.00  0.00    +0.000 A 
ATOM     16  C   UNL     1      -0.444  10.799  20.343  0.00  0.00    +0.000 A 
ATOM     17  C   UNL     1      -0.501  11.212  19.017  0.00  0.00    +0.000 A 
ATOM     18  C   UNL     1      -0.982  12.478  18.696  0.00  0.00    +0.000 A 
ATOM     19  C   UNL     1      -1.407  13.349  19.691  0.00  0.00    +0.000 A 
BRANCH  17  20
ATOM     20  O   UNL     1      -0.101  10.407  17.986  0.00  0.00    +0.000 OA
ATOM     21  H   UNL     1       0.594  10.874  17.491  0.00  0.00    +0.000 HD
ENDBRANCH  17  20
BRANCH  18  22
ATOM     22  O   UNL     1      -1.052  12.872  17.391  0.00  0.00    +0.000 OA
ATOM     23  H   UNL     1      -0.390  13.589  17.316  0.00  0.00    +0.000 HD
ENDBRANCH  18  22
ENDBRANCH   4  14
BRANCH  10  24
ATOM     24  C   UNL     1      -7.787  14.531  21.216  0.00  0.00    +0.000 C 
BRANCH  24  25
ATOM     25  C   UNL     1      -6.990  14.105  20.018  0.00  0.00    +0.000 C 
ATOM     26  O   UNL     1      -6.263  14.879  19.401  0.00  0.00    +0.000 OA
ATOM     27  N   UNL     1      -7.098  12.762  19.693  0.00  0.00    +0.000 N 
ATOM     28  C   UNL     1      -7.914  11.750  20.346  0.00  0.00    +0.000 C 
ATOM     29  C   UNL     1      -7.067  10.501  20.215  0.00  0.00    +0.000 C 
ATOM     30  C   UNL     1      -6.408  10.656  18.848  0.00  0.00    +0.000 C 
ATOM     31  C   UNL     1      -6.338  12.167  18.608  0.00  0.00    +0.000 C 
ENDBRANCH  24  25
ENDBRANCH  10  24
TORSDOF 5
ENDMDL
MODEL 7
REMARK VINA RESULT:      -6.7      5.532      8.622
REMARK  Name = 
REMARK  5 active torsions:
REMARK  status: ('A' for Active; 'I' for Inactive)
REMARK    1  A    between atoms: C_4  and  C_5
REMARK    2  A    between atoms: C_8  and  O_9
REMARK    3  A    between atoms: C_10  and  O_11
REMARK    4  A    between atoms: C_18  and  C_19
REMARK    5  A    between atoms: C_19  and  C_20
REMARK                            x       y       z     vdW  Elec       q    Type
REMARK                         _______ _______ _______ _____ _____    ______ ____
ROOT
ATOM      1  N   UNL     1       3.250   2.942  19.698  0.00  0.00    +0.000 NA
ATOM      2  C   UNL     1       3.850   3.940  19.120  0.00  0.00    +0.000 C 
ATOM      3  C   UNL     1       3.502   5.394  19.358  0.00  0.00    +0.000 C 
ATOM      4  C   UNL     1       2.321   5.799  19.874  0.00  0.00    +0.000 C 
ATOM      5  C   UNL     1       4.496   6.350  18.763  0.00  0.00    +0.000 C 
ATOM      6  O   UNL     1       4.161   7.328  18.107  0.00  0.00    +0.000 OA
ATOM      7  N   UNL     1       5.817   5.940  18.822  0.00  0.00    +0.000 NA
ATOM      8  C   UNL     1       5.952   4.726  18.406  0.00  0.00    +0.000 C 
ATOM      9  S   UNL     1       7.227   4.383  17.273  0.00  0.00    +0.000 S 
ATOM     10  C   UNL     1       5.810   4.050  16.256  0.00  0.00    +0.000 C 
ATOM     11  N   UNL     1       4.753   3.569  16.873  0.00  0.00    +0.000 NA
ATOM     12  N   UNL     1       4.962   3.776  18.267  0.00  0.00    +0.000 N 
ATOM     13  H   UNL     1       2.519   3.245  20.348  0.00  0.00    +0.000 HD
ENDROOT
BRANCH   4  14
ATOM     14  C   UNL     1       1.839   7.192  19.850  0.00  0.00    +0.000 A 
ATOM     15  C   UNL     1       1.453   7.873  21.017  0.00  0.00    +0.000 A 
ATOM     16  C   UNL     1       1.062   9.219  20.952  0.00  0.00    +0.000 A 
ATOM     17  C   UNL     1       1.060   9.870  19.724  0.00  0.00    +0.000 A 
ATOM     18  C   UNL     1       1.446   9.194  18.571  0.00  0.00    +0.000 A 
ATOM     19  C   UNL     1       1.833   7.861  18.625  0.00  0.00    +0.000 A 
BRANCH  17  20
ATOM     20  O   UNL     1       0.692  11.181  19.597  0.00  0.00    +0.000 OA
ATOM     21  H   UNL     1       1.154  11.693  20.284  0.00  0.00    +0.000 HD
ENDBRANCH  17  20
BRANCH  18  22
ATOM     22  O   UNL     1       1.459   9.844  17.370  0.00  0.00    +0.000 OA
ATOM     23  H   UNL     1       1.154  10.750  17.579  0.00  0.00    +0.000 HD
ENDBRANCH  18  22
ENDBRANCH   4  14
BRANCH  10  24
ATOM     24  C   UNL     1       5.658   4.819  14.983  0.00  0.00    +0.000 C 
BRANCH  24  25
ATOM     25  C   UNL     1       6.760   4.810  13.963  0.00  0.00    +0.000 C 
ATOM     26  O   UNL     1       7.814   5.418  14.127  0.00  0.00    +0.000 OA
ATOM     27  N   UNL     1       6.515   4.026  12.847  0.00  0.00    +0.000 N 
ATOM     28  C   UNL     1       5.317   3.259  12.542  0.00  0.00    +0.000 C 
ATOM     29  C   UNL     1       5.868   2.052  11.810  0.00  0.00    +0.000 C 
ATOM     30  C   UNL     1       7.033   2.622  11.006  0.00  0.00    +0.000 C 
ATOM     31  C   UNL     1       7.503   3.846  11.798  0.00  0.00    +0.000 C 
ENDBRANCH  24  25
ENDBRANCH  10  24
TORSDOF 5
ENDMDL
MODEL 8
REMARK VINA RESULT:      -6.6      2.509      8.436
REMARK  Name = 
REMARK  5 active torsions:
REMARK  status: ('A' for Active; 'I' for Inactive)
REMARK    1  A    between atoms: C_4  and  C_5
REMARK    2  A    between atoms: C_8  and  O_9
REMARK    3  A    between atoms: C_10  and  O_11
REMARK    4  A    between atoms: C_18  and  C_19
REMARK    5  A    between atoms: C_19  and  C_20
REMARK                            x       y       z     vdW  Elec       q    Type
REMARK                         _______ _______ _______ _____ _____    ______ ____
ROOT
ATOM      1  N   UNL     1       0.989   9.170  22.063  0.00  0.00    +0.000 NA
ATOM      2  C   UNL     1       1.013   9.459  20.796  0.00  0.00    +0.000 C 
ATOM      3  C   UNL     1       1.439   8.494  19.711  0.00  0.00    +0.000 C 
ATOM      4  C   UNL     1       2.186   7.393  19.950  0.00  0.00    +0.000 C 
ATOM      5  C   UNL     1       1.146   8.988  18.323  0.00  0.00    +0.000 C 
ATOM      6  O   UNL     1       1.968   8.937  17.417  0.00  0.00    +0.000 OA
ATOM      7  N   UNL     1      -0.034   9.698  18.188  0.00  0.00    +0.000 NA
ATOM      8  C   UNL     1      -0.143  10.608  19.096  0.00  0.00    +0.000 C 
ATOM      9  S   UNL     1      -0.612  12.209  18.603  0.00  0.00    +0.000 S 
ATOM     10  C   UNL     1       1.036  12.532  19.179  0.00  0.00    +0.000 C 
ATOM     11  N   UNL     1       1.458  11.787  20.178  0.00  0.00    +0.000 NA
ATOM     12  N   UNL     1       0.555  10.691  20.283  0.00  0.00    +0.000 N 
ATOM     13  H   UNL     1       1.277   8.206  22.252  0.00  0.00    +0.000 HD
ENDROOT
BRANCH   4  14
ATOM     14  C   UNL     1       2.855   6.601  18.901  0.00  0.00    +0.000 A 
ATOM     15  C   UNL     1       4.115   6.950  18.385  0.00  0.00    +0.000 A 
ATOM     16  C   UNL     1       4.740   6.130  17.435  0.00  0.00    +0.000 A 
ATOM     17  C   UNL     1       4.103   4.971  17.009  0.00  0.00    +0.000 A 
ATOM     18  C   UNL     1       2.856   4.626  17.523  0.00  0.00    +0.000 A 
ATOM     19  C   UNL     1       2.229   5.433  18.463  0.00  0.00    +0.000 A 
BRANCH  17  20
ATOM     20  O   UNL     1       4.662   4.130  16.087  0.00  0.00    +0.000 OA
ATOM     21  H   UNL     1       3.954   3.579  15.712  0.00  0.00    +0.000 HD
ENDBRANCH  17  20
BRANCH  18  22
ATOM     22  O   UNL     1       2.242   3.478  17.114  0.00  0.00    +0.000 OA
ATOM     23  H   UNL     1       1.429   3.783  16.663  0.00  0.00    +0.000 HD
ENDBRANCH  18  22
ENDBRANCH   4  14
BRANCH  10  24
ATOM     24  C   UNL     1       2.012  13.138  18.221  0.00  0.00    +0.000 C 
BRANCH  24  25
ATOM     25  C   UNL     1       2.834  14.324  18.636  0.00  0.00    +0.000 C 
ATOM     26  O   UNL     1       4.059  14.286  18.701  0.00  0.00    +0.000 OA
ATOM     27  N   UNL     1       2.108  15.477  18.890  0.00  0.00    +0.000 N 
ATOM     28  C   UNL     1       0.664  15.649  18.841  0.00  0.00    +0.000 C 
ATOM     29  C   UNL     1       0.513  17.076  18.353  0.00  0.00    +0.000 C 
ATOM     30  C   UNL     1       1.677  17.806  19.014  0.00  0.00    +0.000 C 
ATOM     31  C   UNL     1       2.749  16.735  19.232  0.00  0.00    +0.000 C 
ENDBRANCH  24  25
ENDBRANCH  10  24
TORSDOF 5
ENDMDL
MODEL 9
REMARK VINA RESULT:      -6.6      3.267      7.428
REMARK  Name = 
REMARK  5 active torsions:
REMARK  status: ('A' for Active; 'I' for Inactive)
REMARK    1  A    between atoms: C_4  and  C_5
REMARK    2  A    between atoms: C_8  and  O_9
REMARK    3  A    between atoms: C_10  and  O_11
REMARK    4  A    between atoms: C_18  and  C_19
REMARK    5  A    between atoms: C_19  and  C_20
REMARK                            x       y       z     vdW  Elec       q    Type
REMARK                         _______ _______ _______ _____ _____    ______ ____
ROOT
ATOM      1  N   UNL     1      -1.164  13.064  17.432  0.00  0.00    +0.000 NA
ATOM      2  C   UNL     1      -0.312  13.114  18.412  0.00  0.00    +0.000 C 
ATOM      3  C   UNL     1       0.496  11.930  18.899  0.00  0.00    +0.000 C 
ATOM      4  C   UNL     1       0.158  10.647  18.644  0.00  0.00    +0.000 C 
ATOM      5  C   UNL     1       1.578  12.304  19.872  0.00  0.00    +0.000 C 
ATOM      6  O   UNL     1       1.766  11.694  20.917  0.00  0.00    +0.000 OA
ATOM      7  N   UNL     1       2.209  13.509  19.617  0.00  0.00    +0.000 NA
ATOM      8  C   UNL     1       1.354  14.453  19.403  0.00  0.00    +0.000 C 
ATOM      9  S   UNL     1       1.579  15.967  20.229  0.00  0.00    +0.000 S 
ATOM     10  C   UNL     1       0.058  15.432  20.971  0.00  0.00    +0.000 C 
ATOM     11  N   UNL     1      -0.745  14.726  20.205  0.00  0.00    +0.000 NA
ATOM     12  N   UNL     1       0.022  14.313  19.078  0.00  0.00    +0.000 N 
ATOM     13  H   UNL     1      -1.222  12.133  17.009  0.00  0.00    +0.000 HD
ENDROOT
BRANCH   4  14
ATOM     14  C   UNL     1       0.743   9.482  19.333  0.00  0.00    +0.000 A 
ATOM     15  C   UNL     1       0.323   9.076  20.611  0.00  0.00    +0.000 A 
ATOM     16  C   UNL     1       0.864   7.923  21.199  0.00  0.00    +0.000 A 
ATOM     17  C   UNL     1       1.819   7.188  20.505  0.00  0.00    +0.000 A 
ATOM     18  C   UNL     1       2.231   7.591  19.239  0.00  0.00    +0.000 A 
ATOM     19  C   UNL     1       1.702   8.732  18.650  0.00  0.00    +0.000 A 
BRANCH  17  20
ATOM     20  O   UNL     1       2.381   6.054  21.024  0.00  0.00    +0.000 OA
ATOM     21  H   UNL     1       2.130   5.305  20.456  0.00  0.00    +0.000 HD
ENDBRANCH  17  20
BRANCH  18  22
ATOM     22  O   UNL     1       3.156   6.856  18.555  0.00  0.00    +0.000 OA
ATOM     23  H   UNL     1       2.645   6.113  18.175  0.00  0.00    +0.000 HD
ENDBRANCH  18  22
ENDBRANCH   4  14
BRANCH  10  24
ATOM     24  C   UNL     1       0.014  15.279  22.458  0.00  0.00    +0.000 C 
BRANCH  24  25
ATOM     25  C   UNL     1      -1.293  15.401  23.188  0.00  0.00    +0.000 C 
ATOM     26  O   UNL     1      -1.806  16.487  23.441  0.00  0.00    +0.000 OA
ATOM     27  N   UNL     1      -1.896  14.196  23.510  0.00  0.00    +0.000 N 
ATOM     28  C   UNL     1      -1.394  12.853  23.261  0.00  0.00    +0.000 C 
ATOM     29  C   UNL     1      -2.661  12.065  22.996  0.00  0.00    +0.000 C 
ATOM     30  C   UNL     1      -3.677  12.691  23.946  0.00  0.00    +0.000 C 
ATOM     31  C   UNL     1      -3.198  14.131  24.152  0.00  0.00    +0.000 C 
ENDBRANCH  24  25
ENDBRANCH  10  24
TORSDOF 5
ENDMDL
