MODEL 1
REMARK VINA RESULT:      -9.0      0.000      0.000
REMARK  Name = 
REMARK  7 active torsions:
REMARK  status: ('A' for Active; 'I' for Inactive)
REMARK    1  A    between atoms: C_1  and  N_2
REMARK    2  A    between atoms: N_2  and  C_3
REMARK    3  A    between atoms: N_2  and  C_11
REMARK    4  A    between atoms: C_3  and  C_4
REMARK    5  A    between atoms: C_4  and  C_5
REMARK    6  A    between atoms: C_14  and  O_15
REMARK    7  A    between atoms: O_15  and  C_16
REMARK                            x       y       z     vdW  Elec       q    Type
REMARK                         _______ _______ _______ _____ _____    ______ ____
ROOT
ATOM      1  C   UNL     1       1.044   9.871  18.956  0.00  0.00    +0.000 A 
ATOM      2  C   UNL     1       1.562   9.258  17.801  0.00  0.00    +0.000 A 
ATOM      3  C   UNL     1       2.264   8.042  17.849  0.00  0.00    +0.000 A 
ATOM      4  C   UNL     1       2.459   7.385  19.056  0.00  0.00    +0.000 A 
ATOM      5  C   UNL     1       1.846   7.907  20.186  0.00  0.00    +0.000 A 
ATOM      6  C   UNL     1       1.169   9.133  20.139  0.00  0.00    +0.000 A 
ENDROOT
BRANCH   1   8
ATOM      7  C   UNL     1       1.283  12.295  19.129  0.00  0.00    +0.000 C 
ATOM      8  N   UNL     1       0.411  11.135  18.942  0.00  0.00    +0.000 N 
BRANCH   8   9
ATOM      9  C   UNL     1      -0.968  11.174  19.496  0.00  0.00    +0.000 C 
BRANCH   9  10
ATOM     10  C   UNL     1      -1.871  10.025  19.031  0.00  0.00    +0.000 C 
BRANCH  10  11
ATOM     11  C   UNL     1      -2.617  10.351  17.764  0.00  0.00    +0.000 A 
ATOM     12  C   UNL     1      -2.140   9.882  16.532  0.00  0.00    +0.000 A 
ATOM     13  C   UNL     1      -2.804  10.199  15.350  0.00  0.00    +0.000 A 
ATOM     14  C   UNL     1      -3.956  10.986  15.387  0.00  0.00    +0.000 A 
ATOM     15  C   UNL     1      -4.443  11.446  16.605  0.00  0.00    +0.000 A 
ATOM     16  C   UNL     1      -3.783  11.134  17.791  0.00  0.00    +0.000 A 
ENDBRANCH  10  11
ENDBRANCH   9  10
ENDBRANCH   8   9
ENDBRANCH   1   8
BRANCH   4  17
ATOM     17  O   UNL     1       3.257   6.276  19.012  0.00  0.00    +0.000 OA
BRANCH  17  18
ATOM     18  C   UNL     1       2.699   4.981  19.300  0.00  0.00    +0.000 C 
ATOM     19  C   UNL     1       2.067   4.359  18.031  0.00  0.00    +0.000 C 
ATOM     20  C   UNL     1       1.506   2.966  18.336  0.00  0.00    +0.000 C 
ATOM     21  C   UNL     1       2.672   2.046  18.726  0.00  0.00    +0.000 C 
ATOM     22  C   UNL     1       3.389   2.608  19.964  0.00  0.00    +0.000 C 
ATOM     23  C   UNL     1       2.386   2.631  21.129  0.00  0.00    +0.000 C 
ATOM     24  C   UNL     1       1.213   3.553  20.782  0.00  0.00    +0.000 C 
ATOM     25  C   UNL     1       0.507   3.068  19.503  0.00  0.00    +0.000 C 
ATOM     26  C   UNL     1       1.763   4.958  20.541  0.00  0.00    +0.000 C 
ATOM     27  C   UNL     1       3.888   4.043  19.672  0.00  0.00    +0.000 C 
ENDBRANCH  17  18
ENDBRANCH   4  17
TORSDOF 6
ENDMDL
MODEL 2
REMARK VINA RESULT:      -8.8      0.450      1.031
REMARK  Name = 
REMARK  7 active torsions:
REMARK  status: ('A' for Active; 'I' for Inactive)
REMARK    1  A    between atoms: C_1  and  N_2
REMARK    2  A    between atoms: N_2  and  C_3
REMARK    3  A    between atoms: N_2  and  C_11
REMARK    4  A    between atoms: C_3  and  C_4
REMARK    5  A    between atoms: C_4  and  C_5
REMARK    6  A    between atoms: C_14  and  O_15
REMARK    7  A    between atoms: O_15  and  C_16
REMARK                            x       y       z     vdW  Elec       q    Type
REMARK                         _______ _______ _______ _____ _____    ______ ____
ROOT
ATOM      1  C   UNL     1       1.105  10.001  19.419  0.00  0.00    +0.000 A 
ATOM      2  C   UNL     1       1.550   9.584  18.150  0.00  0.00    +0.000 A 
ATOM      3  C   UNL     1       2.185   8.348  17.947  0.00  0.00    +0.000 A 
ATOM      4  C   UNL     1       2.384   7.473  19.007  0.00  0.00    +0.000 A 
ATOM      5  C   UNL     1       1.839   7.809  20.238  0.00  0.00    +0.000 A 
ATOM      6  C   UNL     1       1.230   9.054  20.442  0.00  0.00    +0.000 A 
ENDROOT
BRANCH   1   8
ATOM      7  C   UNL     1       1.072  12.005  20.814  0.00  0.00    +0.000 C 
ATOM      8  N   UNL     1       0.543  11.275  19.660  0.00  0.00    +0.000 N 
BRANCH   8   9
ATOM      9  C   UNL     1      -0.893  11.425  19.310  0.00  0.00    +0.000 C 
BRANCH   9  10
ATOM     10  C   UNL     1      -1.568  10.134  18.830  0.00  0.00    +0.000 C 
BRANCH  10  11
ATOM     11  C   UNL     1      -2.391  10.339  17.586  0.00  0.00    +0.000 A 
ATOM     12  C   UNL     1      -3.530  11.154  17.628  0.00  0.00    +0.000 A 
ATOM     13  C   UNL     1      -4.316  11.331  16.492  0.00  0.00    +0.000 A 
ATOM     14  C   UNL     1      -3.968  10.696  15.299  0.00  0.00    +0.000 A 
ATOM     15  C   UNL     1      -2.834   9.894  15.244  0.00  0.00    +0.000 A 
ATOM     16  C   UNL     1      -2.043   9.713  16.377  0.00  0.00    +0.000 A 
ENDBRANCH  10  11
ENDBRANCH   9  10
ENDBRANCH   8   9
ENDBRANCH   1   8
BRANCH   4  17
ATOM     17  O   UNL     1       3.117   6.354  18.729  0.00  0.00    +0.000 OA
BRANCH  17  18
ATOM     18  C   UNL     1       2.630   5.060  19.132  0.00  0.00    +0.000 C 
ATOM     19  C   UNL     1       1.864   4.377  17.973  0.00  0.00    +0.000 C 
ATOM     20  C   UNL     1       1.378   2.986  18.396  0.00  0.00    +0.000 C 
ATOM     21  C   UNL     1       2.605   2.105  18.674  0.00  0.00    +0.000 C 
ATOM     22  C   UNL     1       3.454   2.730  19.793  0.00  0.00    +0.000 C 
ATOM     23  C   UNL     1       2.600   2.779  21.070  0.00  0.00    +0.000 C 
ATOM     24  C   UNL     1       1.371   3.663  20.836  0.00  0.00    +0.000 C 
ATOM     25  C   UNL     1       0.526   3.115  19.672  0.00  0.00    +0.000 C 
ATOM     26  C   UNL     1       1.854   5.068  20.478  0.00  0.00    +0.000 C 
ATOM     27  C   UNL     1       3.879   4.161  19.389  0.00  0.00    +0.000 C 
ENDBRANCH  17  18
ENDBRANCH   4  17
TORSDOF 6
ENDMDL
MODEL 3
REMARK VINA RESULT:      -8.7      0.656      1.653
REMARK  Name = 
REMARK  7 active torsions:
REMARK  status: ('A' for Active; 'I' for Inactive)
REMARK    1  A    between atoms: C_1  and  N_2
REMARK    2  A    between atoms: N_2  and  C_3
REMARK    3  A    between atoms: N_2  and  C_11
REMARK    4  A    between atoms: C_3  and  C_4
REMARK    5  A    between atoms: C_4  and  C_5
REMARK    6  A    between atoms: C_14  and  O_15
REMARK    7  A    between atoms: O_15  and  C_16
REMARK                            x       y       z     vdW  Elec       q    Type
REMARK                         _______ _______ _______ _____ _____    ______ ____
ROOT
ATOM      1  C   UNL     1       1.152   9.637  19.594  0.00  0.00    +0.000 A 
ATOM      2  C   UNL     1       1.543   9.288  18.288  0.00  0.00    +0.000 A 
ATOM      3  C   UNL     1       2.225   8.093  18.004  0.00  0.00    +0.000 A 
ATOM      4  C   UNL     1       2.525   7.192  19.017  0.00  0.00    +0.000 A 
ATOM      5  C   UNL     1       2.034   7.456  20.288  0.00  0.00    +0.000 A 
ATOM      6  C   UNL     1       1.378   8.661  20.572  0.00  0.00    +0.000 A 
ENDROOT
BRANCH   1   8
ATOM      7  C   UNL     1       0.217  11.083  21.326  0.00  0.00    +0.000 C 
ATOM      8  N   UNL     1       0.543  10.872  19.915  0.00  0.00    +0.000 N 
BRANCH   8   9
ATOM      9  C   UNL     1      -0.353  11.439  18.875  0.00  0.00    +0.000 C 
BRANCH   9  10
ATOM     10  C   UNL     1      -1.840  11.125  19.077  0.00  0.00    +0.000 C 
BRANCH  10  11
ATOM     11  C   UNL     1      -2.562  10.876  17.779  0.00  0.00    +0.000 A 
ATOM     12  C   UNL     1      -2.023   9.986  16.840  0.00  0.00    +0.000 A 
ATOM     13  C   UNL     1      -2.666   9.767  15.624  0.00  0.00    +0.000 A 
ATOM     14  C   UNL     1      -3.858  10.434  15.336  0.00  0.00    +0.000 A 
ATOM     15  C   UNL     1      -4.406  11.309  16.267  0.00  0.00    +0.000 A 
ATOM     16  C   UNL     1      -3.768  11.533  17.485  0.00  0.00    +0.000 A 
ENDBRANCH  10  11
ENDBRANCH   9  10
ENDBRANCH   8   9
ENDBRANCH   1   8
BRANCH   4  17
ATOM     17  O   UNL     1       3.294   6.121  18.657  0.00  0.00    +0.000 OA
BRANCH  17  18
ATOM     18  C   UNL     1       2.848   4.785  18.957  0.00  0.00    +0.000 C 
ATOM     19  C   UNL     1       3.999   3.944  19.560  0.00  0.00    +0.000 C 
ATOM     20  C   UNL     1       3.508   2.535  19.910  0.00  0.00    +0.000 C 
ATOM     21  C   UNL     1       2.442   2.649  21.009  0.00  0.00    +0.000 C 
ATOM     22  C   UNL     1       1.267   3.507  20.510  0.00  0.00    +0.000 C 
ATOM     23  C   UNL     1       0.637   2.797  19.301  0.00  0.00    +0.000 C 
ATOM     24  C   UNL     1       1.669   2.678  18.176  0.00  0.00    +0.000 C 
ATOM     25  C   UNL     1       2.899   1.886  18.654  0.00  0.00    +0.000 C 
ATOM     26  C   UNL     1       2.110   4.086  17.780  0.00  0.00    +0.000 C 
ATOM     27  C   UNL     1       1.783   4.903  20.090  0.00  0.00    +0.000 C 
ENDBRANCH  17  18
ENDBRANCH   4  17
TORSDOF 6
ENDMDL
MODEL 4
REMARK VINA RESULT:      -8.7      0.558      1.627
REMARK  Name = 
REMARK  7 active torsions:
REMARK  status: ('A' for Active; 'I' for Inactive)
REMARK    1  A    between atoms: C_1  and  N_2
REMARK    2  A    between atoms: N_2  and  C_3
REMARK    3  A    between atoms: N_2  and  C_11
REMARK    4  A    between atoms: C_3  and  C_4
REMARK    5  A    between atoms: C_4  and  C_5
REMARK    6  A    between atoms: C_14  and  O_15
REMARK    7  A    between atoms: O_15  and  C_16
REMARK                            x       y       z     vdW  Elec       q    Type
REMARK                         _______ _______ _______ _____ _____    ______ ____
ROOT
ATOM      1  C   UNL     1       1.002   9.759  19.411  0.00  0.00    +0.000 A 
ATOM      2  C   UNL     1       1.509   9.321  18.174  0.00  0.00    +0.000 A 
ATOM      3  C   UNL     1       2.244   8.130  18.044  0.00  0.00    +0.000 A 
ATOM      4  C   UNL     1       2.484   7.324  19.148  0.00  0.00    +0.000 A 
ATOM      5  C   UNL     1       1.883   7.672  20.350  0.00  0.00    +0.000 A 
ATOM      6  C   UNL     1       1.175   8.873  20.481  0.00  0.00    +0.000 A 
ENDROOT
BRANCH   1   8
ATOM      7  C   UNL     1       1.150  12.102  20.082  0.00  0.00    +0.000 C 
ATOM      8  N   UNL     1       0.336  10.994  19.580  0.00  0.00    +0.000 N 
BRANCH   8   9
ATOM      9  C   UNL     1      -1.092  10.909  19.982  0.00  0.00    +0.000 C 
BRANCH   9  10
ATOM     10  C   UNL     1      -1.993  11.981  19.356  0.00  0.00    +0.000 C 
BRANCH  10  11
ATOM     11  C   UNL     1      -2.688  11.498  18.111  0.00  0.00    +0.000 A 
ATOM     12  C   UNL     1      -1.958  10.842  17.112  0.00  0.00    +0.000 A 
ATOM     13  C   UNL     1      -2.583  10.415  15.943  0.00  0.00    +0.000 A 
ATOM     14  C   UNL     1      -3.950  10.636  15.764  0.00  0.00    +0.000 A 
ATOM     15  C   UNL     1      -4.685  11.276  16.755  0.00  0.00    +0.000 A 
ATOM     16  C   UNL     1      -4.066  11.706  17.926  0.00  0.00    +0.000 A 
ENDBRANCH  10  11
ENDBRANCH   9  10
ENDBRANCH   8   9
ENDBRANCH   1   8
BRANCH   4  17
ATOM     17  O   UNL     1       3.309   6.254  18.939  0.00  0.00    +0.000 OA
BRANCH  17  18
ATOM     18  C   UNL     1       2.871   4.931  19.299  0.00  0.00    +0.000 C 
ATOM     19  C   UNL     1       1.946   4.977  20.540  0.00  0.00    +0.000 C 
ATOM     20  C   UNL     1       1.455   3.570  20.898  0.00  0.00    +0.000 C 
ATOM     21  C   UNL     1       0.591   3.047  19.741  0.00  0.00    +0.000 C 
ATOM     22  C   UNL     1       1.421   3.002  18.447  0.00  0.00    +0.000 C 
ATOM     23  C   UNL     1       2.585   2.020  18.660  0.00  0.00    +0.000 C 
ATOM     24  C   UNL     1       3.479   2.518  19.799  0.00  0.00    +0.000 C 
ATOM     25  C   UNL     1       2.670   2.648  21.102  0.00  0.00    +0.000 C 
ATOM     26  C   UNL     1       4.023   3.893  19.415  0.00  0.00    +0.000 C 
ATOM     27  C   UNL     1       1.974   4.412  18.133  0.00  0.00    +0.000 C 
ENDBRANCH  17  18
ENDBRANCH   4  17
TORSDOF 6
ENDMDL
MODEL 5
REMARK VINA RESULT:      -8.7      0.889      2.123
REMARK  Name = 
REMARK  7 active torsions:
REMARK  status: ('A' for Active; 'I' for Inactive)
REMARK    1  A    between atoms: C_1  and  N_2
REMARK    2  A    between atoms: N_2  and  C_3
REMARK    3  A    between atoms: N_2  and  C_11
REMARK    4  A    between atoms: C_3  and  C_4
REMARK    5  A    between atoms: C_4  and  C_5
REMARK    6  A    between atoms: C_14  and  O_15
REMARK    7  A    between atoms: O_15  and  C_16
REMARK                            x       y       z     vdW  Elec       q    Type
REMARK                         _______ _______ _______ _____ _____    ______ ____
ROOT
ATOM      1  C   UNL     1       0.928   9.662  19.803  0.00  0.00    +0.000 A 
ATOM      2  C   UNL     1       1.330   9.490  18.465  0.00  0.00    +0.000 A 
ATOM      3  C   UNL     1       2.088   8.385  18.047  0.00  0.00    +0.000 A 
ATOM      4  C   UNL     1       2.459   7.398  18.951  0.00  0.00    +0.000 A 
ATOM      5  C   UNL     1       1.963   7.483  20.244  0.00  0.00    +0.000 A 
ATOM      6  C   UNL     1       1.230   8.601  20.664  0.00  0.00    +0.000 A 
ENDROOT
BRANCH   1   8
ATOM      7  C   UNL     1      -0.441  10.679  21.551  0.00  0.00    +0.000 C 
ATOM      8  N   UNL     1       0.240  10.808  20.262  0.00  0.00    +0.000 N 
BRANCH   8   9
ATOM      9  C   UNL     1      -0.368  11.662  19.208  0.00  0.00    +0.000 C 
BRANCH   9  10
ATOM     10  C   UNL     1      -1.895  11.773  19.283  0.00  0.00    +0.000 C 
BRANCH  10  11
ATOM     11  C   UNL     1      -2.572  11.328  18.014  0.00  0.00    +0.000 A 
ATOM     12  C   UNL     1      -3.894  11.712  17.755  0.00  0.00    +0.000 A 
ATOM     13  C   UNL     1      -4.541  11.284  16.598  0.00  0.00    +0.000 A 
ATOM     14  C   UNL     1      -3.869  10.471  15.685  0.00  0.00    +0.000 A 
ATOM     15  C   UNL     1      -2.553  10.095  15.927  0.00  0.00    +0.000 A 
ATOM     16  C   UNL     1      -1.901  10.518  17.083  0.00  0.00    +0.000 A 
ENDBRANCH  10  11
ENDBRANCH   9  10
ENDBRANCH   8   9
ENDBRANCH   1   8
BRANCH   4  17
ATOM     17  O   UNL     1       3.295   6.430  18.470  0.00  0.00    +0.000 OA
BRANCH  17  18
ATOM     18  C   UNL     1       3.029   5.045  18.759  0.00  0.00    +0.000 C 
ATOM     19  C   UNL     1       2.702   4.850  20.260  0.00  0.00    +0.000 C 
ATOM     20  C   UNL     1       2.385   3.379  20.555  0.00  0.00    +0.000 C 
ATOM     21  C   UNL     1       1.112   2.993  19.788  0.00  0.00    +0.000 C 
ATOM     22  C   UNL     1       1.330   3.193  18.279  0.00  0.00    +0.000 C 
ATOM     23  C   UNL     1       2.463   2.255  17.831  0.00  0.00    +0.000 C 
ATOM     24  C   UNL     1       3.756   2.621  18.566  0.00  0.00    +0.000 C 
ATOM     25  C   UNL     1       3.563   2.505  20.088  0.00  0.00    +0.000 C 
ATOM     26  C   UNL     1       4.110   4.067  18.220  0.00  0.00    +0.000 C 
ATOM     27  C   UNL     1       1.722   4.663  17.998  0.00  0.00    +0.000 C 
ENDBRANCH  17  18
ENDBRANCH   4  17
TORSDOF 6
ENDMDL
MODEL 6
REMARK VINA RESULT:      -8.5      1.712      3.257
REMARK  Name = 
REMARK  7 active torsions:
REMARK  status: ('A' for Active; 'I' for Inactive)
REMARK    1  A    between atoms: C_1  and  N_2
REMARK    2  A    between atoms: N_2  and  C_3
REMARK    3  A    between atoms: N_2  and  C_11
REMARK    4  A    between atoms: C_3  and  C_4
REMARK    5  A    between atoms: C_4  and  C_5
REMARK    6  A    between atoms: C_14  and  O_15
REMARK    7  A    between atoms: O_15  and  C_16
REMARK                            x       y       z     vdW  Elec       q    Type
REMARK                         _______ _______ _______ _____ _____    ______ ____
ROOT
ATOM      1  C   UNL     1       1.049   9.783  18.773  0.00  0.00    +0.000 A 
ATOM      2  C   UNL     1       1.766   9.164  17.732  0.00  0.00    +0.000 A 
ATOM      3  C   UNL     1       2.506   7.986  17.929  0.00  0.00    +0.000 A 
ATOM      4  C   UNL     1       2.541   7.373  19.174  0.00  0.00    +0.000 A 
ATOM      5  C   UNL     1       1.738   7.895  20.178  0.00  0.00    +0.000 A 
ATOM      6  C   UNL     1       1.023   9.084  19.986  0.00  0.00    +0.000 A 
ENDROOT
BRANCH   1   8
ATOM      7  C   UNL     1       1.140  12.218  18.934  0.00  0.00    +0.000 C 
ATOM      8  N   UNL     1       0.371  11.013  18.619  0.00  0.00    +0.000 N 
BRANCH   8   9
ATOM      9  C   UNL     1      -1.085  10.990  18.915  0.00  0.00    +0.000 C 
BRANCH   9  10
ATOM     10  C   UNL     1      -1.661  12.333  19.380  0.00  0.00    +0.000 C 
BRANCH  10  11
ATOM     11  C   UNL     1      -2.132  12.298  20.810  0.00  0.00    +0.000 A 
ATOM     12  C   UNL     1      -1.338  11.690  21.792  0.00  0.00    +0.000 A 
ATOM     13  C   UNL     1      -1.774  11.626  23.113  0.00  0.00    +0.000 A 
ATOM     14  C   UNL     1      -3.007  12.175  23.467  0.00  0.00    +0.000 A 
ATOM     15  C   UNL     1      -3.796  12.790  22.502  0.00  0.00    +0.000 A 
ATOM     16  C   UNL     1      -3.367  12.857  21.178  0.00  0.00    +0.000 A 
ENDBRANCH  10  11
ENDBRANCH   9  10
ENDBRANCH   8   9
ENDBRANCH   1   8
BRANCH   4  17
ATOM     17  O   UNL     1       3.384   6.303  19.291  0.00  0.00    +0.000 OA
BRANCH  17  18
ATOM     18  C   UNL     1       2.844   4.972  19.383  0.00  0.00    +0.000 C 
ATOM     19  C   UNL     1       3.968   3.940  19.645  0.00  0.00    +0.000 C 
ATOM     20  C   UNL     1       3.383   2.529  19.777  0.00  0.00    +0.000 C 
ATOM     21  C   UNL     1       2.474   2.494  21.016  0.00  0.00    +0.000 C 
ATOM     22  C   UNL     1       1.341   3.522  20.862  0.00  0.00    +0.000 C 
ATOM     23  C   UNL     1       0.500   3.127  19.637  0.00  0.00    +0.000 C 
ATOM     24  C   UNL     1       1.371   3.166  18.378  0.00  0.00    +0.000 C 
ATOM     25  C   UNL     1       2.563   2.202  18.517  0.00  0.00    +0.000 C 
ATOM     26  C   UNL     1       1.903   4.589  18.207  0.00  0.00    +0.000 C 
ATOM     27  C   UNL     1       1.941   4.933  20.655  0.00  0.00    +0.000 C 
ENDBRANCH  17  18
ENDBRANCH   4  17
TORSDOF 6
ENDMDL
MODEL 7
REMARK VINA RESULT:      -8.5      0.991      1.648
REMARK  Name = 
REMARK  7 active torsions:
REMARK  status: ('A' for Active; 'I' for Inactive)
REMARK    1  A    between atoms: C_1  and  N_2
REMARK    2  A    between atoms: N_2  and  C_3
REMARK    3  A    between atoms: N_2  and  C_11
REMARK    4  A    between atoms: C_3  and  C_4
REMARK    5  A    between atoms: C_4  and  C_5
REMARK    6  A    between atoms: C_14  and  O_15
REMARK    7  A    between atoms: O_15  and  C_16
REMARK                            x       y       z     vdW  Elec       q    Type
REMARK                         _______ _______ _______ _____ _____    ______ ____
ROOT
ATOM      1  C   UNL     1       1.016   9.821  18.935  0.00  0.00    +0.000 A 
ATOM      2  C   UNL     1       1.655   9.242  17.822  0.00  0.00    +0.000 A 
ATOM      3  C   UNL     1       2.397   8.053  17.919  0.00  0.00    +0.000 A 
ATOM      4  C   UNL     1       2.512   7.389  19.132  0.00  0.00    +0.000 A 
ATOM      5  C   UNL     1       1.783   7.872  20.210  0.00  0.00    +0.000 A 
ATOM      6  C   UNL     1       1.067   9.072  20.116  0.00  0.00    +0.000 A 
ENDROOT
BRANCH   1   8
ATOM      7  C   UNL     1       0.773  12.077  19.837  0.00  0.00    +0.000 C 
ATOM      8  N   UNL     1       0.339  11.060  18.878  0.00  0.00    +0.000 N 
BRANCH   8   9
ATOM      9  C   UNL     1      -1.096  10.996  18.497  0.00  0.00    +0.000 C 
BRANCH   9  10
ATOM     10  C   UNL     1      -2.018  11.887  19.338  0.00  0.00    +0.000 C 
BRANCH  10  11
ATOM     11  C   UNL     1      -3.425  11.932  18.805  0.00  0.00    +0.000 A 
ATOM     12  C   UNL     1      -4.470  12.375  19.627  0.00  0.00    +0.000 A 
ATOM     13  C   UNL     1      -5.781  12.395  19.155  0.00  0.00    +0.000 A 
ATOM     14  C   UNL     1      -6.059  11.976  17.853  0.00  0.00    +0.000 A 
ATOM     15  C   UNL     1      -5.027  11.546  17.027  0.00  0.00    +0.000 A 
ATOM     16  C   UNL     1      -3.715  11.523  17.492  0.00  0.00    +0.000 A 
ENDBRANCH  10  11
ENDBRANCH   9  10
ENDBRANCH   8   9
ENDBRANCH   1   8
BRANCH   4  17
ATOM     17  O   UNL     1       3.352   6.310  19.146  0.00  0.00    +0.000 OA
BRANCH  17  18
ATOM     18  C   UNL     1       2.832   5.001  19.444  0.00  0.00    +0.000 C 
ATOM     19  C   UNL     1       1.872   4.524  18.327  0.00  0.00    +0.000 C 
ATOM     20  C   UNL     1       1.350   3.115  18.632  0.00  0.00    +0.000 C 
ATOM     21  C   UNL     1       2.538   2.142  18.618  0.00  0.00    +0.000 C 
ATOM     22  C   UNL     1       3.570   2.562  19.678  0.00  0.00    +0.000 C 
ATOM     23  C   UNL     1       2.898   2.481  21.059  0.00  0.00    +0.000 C 
ATOM     24  C   UNL     1       1.715   3.452  21.115  0.00  0.00    +0.000 C 
ATOM     25  C   UNL     1       0.686   3.113  20.021  0.00  0.00    +0.000 C 
ATOM     26  C   UNL     1       2.244   4.865  20.876  0.00  0.00    +0.000 C 
ATOM     27  C   UNL     1       4.037   4.011  19.405  0.00  0.00    +0.000 C 
ENDBRANCH  17  18
ENDBRANCH   4  17
TORSDOF 6
ENDMDL
MODEL 8
REMARK VINA RESULT:      -8.4      2.463      3.803
REMARK  Name = 
REMARK  7 active torsions:
REMARK  status: ('A' for Active; 'I' for Inactive)
REMARK    1  A    between atoms: C_1  and  N_2
REMARK    2  A    between atoms: N_2  and  C_3
REMARK    3  A    between atoms: N_2  and  C_11
REMARK    4  A    between atoms: C_3  and  C_4
REMARK    5  A    between atoms: C_4  and  C_5
REMARK    6  A    between atoms: C_14  and  O_15
REMARK    7  A    between atoms: O_15  and  C_16
REMARK                            x       y       z     vdW  Elec       q    Type
REMARK                         _______ _______ _______ _____ _____    ______ ____
ROOT
ATOM      1  C   UNL     1       0.733   9.915  19.451  0.00  0.00    +0.000 A 
ATOM      2  C   UNL     1       1.284   9.474  18.233  0.00  0.00    +0.000 A 
ATOM      3  C   UNL     1       2.061   8.307  18.141  0.00  0.00    +0.000 A 
ATOM      4  C   UNL     1       2.301   7.527  19.264  0.00  0.00    +0.000 A 
ATOM      5  C   UNL     1       1.660   7.874  20.445  0.00  0.00    +0.000 A 
ATOM      6  C   UNL     1       0.909   9.052  20.539  0.00  0.00    +0.000 A 
ENDROOT
BRANCH   1   8
ATOM      7  C   UNL     1       0.660  12.315  19.007  0.00  0.00    +0.000 C 
ATOM      8  N   UNL     1       0.023  11.130  19.583  0.00  0.00    +0.000 N 
BRANCH   8   9
ATOM      9  C   UNL     1      -0.783  11.276  20.823  0.00  0.00    +0.000 C 
BRANCH   9  10
ATOM     10  C   UNL     1      -0.276  12.356  21.786  0.00  0.00    +0.000 C 
BRANCH  10  11
ATOM     11  C   UNL     1      -1.355  12.862  22.708  0.00  0.00    +0.000 A 
ATOM     12  C   UNL     1      -1.170  14.062  23.407  0.00  0.00    +0.000 A 
ATOM     13  C   UNL     1      -2.148  14.528  24.284  0.00  0.00    +0.000 A 
ATOM     14  C   UNL     1      -3.324  13.799  24.465  0.00  0.00    +0.000 A 
ATOM     15  C   UNL     1      -3.521  12.614  23.766  0.00  0.00    +0.000 A 
ATOM     16  C   UNL     1      -2.547  12.142  22.889  0.00  0.00    +0.000 A 
ENDBRANCH  10  11
ENDBRANCH   9  10
ENDBRANCH   8   9
ENDBRANCH   1   8
BRANCH   4  17
ATOM     17  O   UNL     1       3.165   6.482  19.092  0.00  0.00    +0.000 OA
BRANCH  17  18
ATOM     18  C   UNL     1       2.722   5.136  19.347  0.00  0.00    +0.000 C 
ATOM     19  C   UNL     1       1.912   4.587  18.147  0.00  0.00    +0.000 C 
ATOM     20  C   UNL     1       1.473   3.143  18.410  0.00  0.00    +0.000 C 
ATOM     21  C   UNL     1       2.728   2.264  18.515  0.00  0.00    +0.000 C 
ATOM     22  C   UNL     1       3.619   2.761  19.665  0.00  0.00    +0.000 C 
ATOM     23  C   UNL     1       2.828   2.627  20.976  0.00  0.00    +0.000 C 
ATOM     24  C   UNL     1       1.574   3.503  20.914  0.00  0.00    +0.000 C 
ATOM     25  C   UNL     1       0.683   3.087  19.730  0.00  0.00    +0.000 C 
ATOM     26  C   UNL     1       2.012   4.954  20.718  0.00  0.00    +0.000 C 
ATOM     27  C   UNL     1       3.998   4.243  19.429  0.00  0.00    +0.000 C 
ENDBRANCH  17  18
ENDBRANCH   4  17
TORSDOF 6
ENDMDL
MODEL 9
REMARK VINA RESULT:      -8.4      0.941      1.841
REMARK  Name = 
REMARK  7 active torsions:
REMARK  status: ('A' for Active; 'I' for Inactive)
REMARK    1  A    between atoms: C_1  and  N_2
REMARK    2  A    between atoms: N_2  and  C_3
REMARK    3  A    between atoms: N_2  and  C_11
REMARK    4  A    between atoms: C_3  and  C_4
REMARK    5  A    between atoms: C_4  and  C_5
REMARK    6  A    between atoms: C_14  and  O_15
REMARK    7  A    between atoms: O_15  and  C_16
REMARK                            x       y       z     vdW  Elec       q    Type
REMARK                         _______ _______ _______ _____ _____    ______ ____
ROOT
ATOM      1  C   UNL     1       0.673   9.616  19.029  0.00  0.00    +0.000 A 
ATOM      2  C   UNL     1       1.015   8.915  20.200  0.00  0.00    +0.000 A 
ATOM      3  C   UNL     1       1.944   7.861  20.199  0.00  0.00    +0.000 A 
ATOM      4  C   UNL     1       2.579   7.480  19.025  0.00  0.00    +0.000 A 
ATOM      5  C   UNL     1       2.352   8.242  17.887  0.00  0.00    +0.000 A 
ATOM      6  C   UNL     1       1.406   9.274  17.886  0.00  0.00    +0.000 A 
ENDROOT
BRANCH   1   8
ATOM      7  C   UNL     1      -0.202  11.683  19.991  0.00  0.00    +0.000 C 
ATOM      8  N   UNL     1      -0.321  10.620  18.992  0.00  0.00    +0.000 N 
BRANCH   8   9
ATOM      9  C   UNL     1      -1.675  10.173  18.572  0.00  0.00    +0.000 C 
BRANCH   9  10
ATOM     10  C   UNL     1      -2.293  11.000  17.438  0.00  0.00    +0.000 C 
BRANCH  10  11
ATOM     11  C   UNL     1      -3.642  11.563  17.800  0.00  0.00    +0.000 A 
ATOM     12  C   UNL     1      -4.633  11.690  16.817  0.00  0.00    +0.000 A 
ATOM     13  C   UNL     1      -5.876  12.234  17.133  0.00  0.00    +0.000 A 
ATOM     14  C   UNL     1      -6.141  12.654  18.437  0.00  0.00    +0.000 A 
ATOM     15  C   UNL     1      -5.168  12.521  19.421  0.00  0.00    +0.000 A 
ATOM     16  C   UNL     1      -3.924  11.978  19.112  0.00  0.00    +0.000 A 
ENDBRANCH  10  11
ENDBRANCH   9  10
ENDBRANCH   8   9
ENDBRANCH   1   8
BRANCH   4  17
ATOM     17  O   UNL     1       3.371   6.369  19.107  0.00  0.00    +0.000 OA
BRANCH  17  18
ATOM     18  C   UNL     1       2.777   5.084  19.370  0.00  0.00    +0.000 C 
ATOM     19  C   UNL     1       1.934   4.610  18.160  0.00  0.00    +0.000 C 
ATOM     20  C   UNL     1       1.333   3.227  18.433  0.00  0.00    +0.000 C 
ATOM     21  C   UNL     1       2.482   2.216  18.574  0.00  0.00    +0.000 C 
ATOM     22  C   UNL     1       3.401   2.630  19.736  0.00  0.00    +0.000 C 
ATOM     23  C   UNL     1       2.574   2.602  21.032  0.00  0.00    +0.000 C 
ATOM     24  C   UNL     1       1.426   3.611  20.934  0.00  0.00    +0.000 C 
ATOM     25  C   UNL     1       0.517   3.278  19.737  0.00  0.00    +0.000 C 
ATOM     26  C   UNL     1       2.026   5.001  20.728  0.00  0.00    +0.000 C 
ATOM     27  C   UNL     1       3.944   4.057  19.489  0.00  0.00    +0.000 C 
ENDBRANCH  17  18
ENDBRANCH   4  17
TORSDOF 6
ENDMDL
