MODEL 1
REMARK VINA RESULT:      -8.0      0.000      0.000
REMARK  Name = 
REMARK  6 active torsions:
REMARK  status: ('A' for Active; 'I' for Inactive)
REMARK    1  A    between atoms: C_1  and  O_2
REMARK    2  A    between atoms: O_2  and  C_3
REMARK    3  A    between atoms: C_6  and  N_7
REMARK    4  A    between atoms: C_9  and  C_10
REMARK    5  A    between atoms: C_10  and  O_12
REMARK    6  A    between atoms: C_14  and  C_15
REMARK                            x       y       z     vdW  Elec       q    Type
REMARK                         _______ _______ _______ _____ _____    ______ ____
ROOT
ATOM      1  N   UNL     1       3.937   6.169  18.092  0.00  0.00    +0.000 N 
ATOM      2  N   UNL     1       5.027   6.530  17.350  0.00  0.00    +0.000 NA
ATOM      3  C   UNL     1       5.834   5.458  17.396  0.00  0.00    +0.000 A 
ATOM      4  C   UNL     1       5.206   4.367  18.028  0.00  0.00    +0.000 A 
ATOM      5  C   UNL     1       3.950   4.807  18.413  0.00  0.00    +0.000 A 
ENDROOT
BRANCH   1   9
ATOM      6  C   UNL     1       1.239   9.222  19.221  0.00  0.00    +0.000 A 
ATOM      7  C   UNL     1       1.563   8.191  20.110  0.00  0.00    +0.000 A 
ATOM      8  C   UNL     1       2.426   7.162  19.726  0.00  0.00    +0.000 A 
ATOM      9  C   UNL     1       2.991   7.170  18.446  0.00  0.00    +0.000 A 
ATOM     10  C   UNL     1       2.626   8.171  17.536  0.00  0.00    +0.000 A 
ATOM     11  C   UNL     1       1.757   9.196  17.926  0.00  0.00    +0.000 A 
BRANCH   6  13
ATOM     12  C   UNL     1      -0.708  10.528  18.878  0.00  0.00    +0.000 C 
ATOM     13  O   UNL     1       0.387  10.169  19.714  0.00  0.00    +0.000 OA
ENDBRANCH   6  13
ENDBRANCH   1   9
BRANCH   5  14
ATOM     14  C   UNL     1       2.846   4.013  18.983  0.00  0.00    +0.000 A 
ATOM     15  C   UNL     1       2.800   3.757  20.362  0.00  0.00    +0.000 A 
ATOM     16  C   UNL     1       1.748   3.025  20.923  0.00  0.00    +0.000 A 
ATOM     17  C   UNL     1       0.717   2.551  20.118  0.00  0.00    +0.000 A 
ATOM     18  C   UNL     1       0.759   2.769  18.746  0.00  0.00    +0.000 A 
ATOM     19  C   UNL     1       1.833   3.463  18.181  0.00  0.00    +0.000 A 
ENDBRANCH   5  14
BRANCH   3  20
ATOM     20  C   UNL     1       7.182   5.508  16.817  0.00  0.00    +0.000 C 
ATOM     21  O   UNL     1       7.595   6.408  16.100  0.00  0.00    +0.000 OA
BRANCH  20  22
ATOM     22  O   UNL     1       7.928   4.422  17.161  0.00  0.00    +0.000 OA
ATOM     23  H   UNL     1       8.239   4.017  16.317  0.00  0.00    +0.000 HD
ENDBRANCH  20  22
ENDBRANCH   3  20
TORSDOF 5
ENDMDL
MODEL 2
REMARK VINA RESULT:      -8.0      0.586      1.180
REMARK  Name = 
REMARK  6 active torsions:
REMARK  status: ('A' for Active; 'I' for Inactive)
REMARK    1  A    between atoms: C_1  and  O_2
REMARK    2  A    between atoms: O_2  and  C_3
REMARK    3  A    between atoms: C_6  and  N_7
REMARK    4  A    between atoms: C_9  and  C_10
REMARK    5  A    between atoms: C_10  and  O_12
REMARK    6  A    between atoms: C_14  and  C_15
REMARK                            x       y       z     vdW  Elec       q    Type
REMARK                         _______ _______ _______ _____ _____    ______ ____
ROOT
ATOM      1  N   UNL     1       3.845   6.362  18.139  0.00  0.00    +0.000 N 
ATOM      2  N   UNL     1       4.928   6.753  17.402  0.00  0.00    +0.000 NA
ATOM      3  C   UNL     1       5.759   5.699  17.442  0.00  0.00    +0.000 A 
ATOM      4  C   UNL     1       5.154   4.589  18.064  0.00  0.00    +0.000 A 
ATOM      5  C   UNL     1       3.888   4.999  18.450  0.00  0.00    +0.000 A 
ENDROOT
BRANCH   1   9
ATOM      6  C   UNL     1       1.080   9.349  19.283  0.00  0.00    +0.000 A 
ATOM      7  C   UNL     1       1.445   8.336  20.175  0.00  0.00    +0.000 A 
ATOM      8  C   UNL     1       2.332   7.327  19.787  0.00  0.00    +0.000 A 
ATOM      9  C   UNL     1       2.877   7.340  18.499  0.00  0.00    +0.000 A 
ATOM     10  C   UNL     1       2.471   8.323  17.586  0.00  0.00    +0.000 A 
ATOM     11  C   UNL     1       1.579   9.326  17.981  0.00  0.00    +0.000 A 
BRANCH   6  13
ATOM     12  C   UNL     1       0.600  10.925  20.985  0.00  0.00    +0.000 C 
ATOM     13  O   UNL     1       0.209  10.276  19.781  0.00  0.00    +0.000 OA
ENDBRANCH   6  13
ENDBRANCH   1   9
BRANCH   5  14
ATOM     14  C   UNL     1       2.800   4.177  19.011  0.00  0.00    +0.000 A 
ATOM     15  C   UNL     1       1.815   3.640  18.168  0.00  0.00    +0.000 A 
ATOM     16  C   UNL     1       0.788   2.840  18.678  0.00  0.00    +0.000 A 
ATOM     17  C   UNL     1       0.737   2.550  20.039  0.00  0.00    +0.000 A 
ATOM     18  C   UNL     1       1.687   3.095  20.895  0.00  0.00    +0.000 A 
ATOM     19  C   UNL     1       2.687   3.930  20.389  0.00  0.00    +0.000 A 
ENDBRANCH   5  14
BRANCH   3  20
ATOM     20  C   UNL     1       7.106   5.783  16.866  0.00  0.00    +0.000 C 
ATOM     21  O   UNL     1       7.614   6.809  16.439  0.00  0.00    +0.000 OA
BRANCH  20  22
ATOM     22  O   UNL     1       7.733   4.574  16.849  0.00  0.00    +0.000 OA
ATOM     23  H   UNL     1       8.635   4.720  17.221  0.00  0.00    +0.000 HD
ENDBRANCH  20  22
ENDBRANCH   3  20
TORSDOF 5
ENDMDL
MODEL 3
REMARK VINA RESULT:      -7.9      0.239      1.614
REMARK  Name = 
REMARK  6 active torsions:
REMARK  status: ('A' for Active; 'I' for Inactive)
REMARK    1  A    between atoms: C_1  and  O_2
REMARK    2  A    between atoms: O_2  and  C_3
REMARK    3  A    between atoms: C_6  and  N_7
REMARK    4  A    between atoms: C_9  and  C_10
REMARK    5  A    between atoms: C_10  and  O_12
REMARK    6  A    between atoms: C_14  and  C_15
REMARK                            x       y       z     vdW  Elec       q    Type
REMARK                         _______ _______ _______ _____ _____    ______ ____
ROOT
ATOM      1  N   UNL     1       3.937   6.228  18.159  0.00  0.00    +0.000 N 
ATOM      2  N   UNL     1       5.037   6.554  17.416  0.00  0.00    +0.000 NA
ATOM      3  C   UNL     1       5.810   5.458  17.460  0.00  0.00    +0.000 A 
ATOM      4  C   UNL     1       5.150   4.387  18.094  0.00  0.00    +0.000 A 
ATOM      5  C   UNL     1       3.909   4.866  18.481  0.00  0.00    +0.000 A 
ENDROOT
BRANCH   1   9
ATOM      6  C   UNL     1       1.111   9.216  19.137  0.00  0.00    +0.000 A 
ATOM      7  C   UNL     1       1.749   9.218  17.893  0.00  0.00    +0.000 A 
ATOM      8  C   UNL     1       2.710   8.252  17.581  0.00  0.00    +0.000 A 
ATOM      9  C   UNL     1       3.024   7.259  18.515  0.00  0.00    +0.000 A 
ATOM     10  C   UNL     1       2.427   7.287  19.782  0.00  0.00    +0.000 A 
ATOM     11  C   UNL     1       1.469   8.260  20.088  0.00  0.00    +0.000 A 
BRANCH   6  13
ATOM     12  C   UNL     1      -0.797  10.348  18.306  0.00  0.00    +0.000 C 
ATOM     13  O   UNL     1       0.192  10.210  19.321  0.00  0.00    +0.000 OA
ENDBRANCH   6  13
ENDBRANCH   1   9
BRANCH   5  14
ATOM     14  C   UNL     1       2.781   4.108  19.052  0.00  0.00    +0.000 A 
ATOM     15  C   UNL     1       1.805   3.554  18.210  0.00  0.00    +0.000 A 
ATOM     16  C   UNL     1       0.740   2.812  18.731  0.00  0.00    +0.000 A 
ATOM     17  C   UNL     1       0.642   2.599  20.103  0.00  0.00    +0.000 A 
ATOM     18  C   UNL     1       1.582   3.163  20.957  0.00  0.00    +0.000 A 
ATOM     19  C   UNL     1       2.621   3.940  20.437  0.00  0.00    +0.000 A 
ENDBRANCH   5  14
BRANCH   3  20
ATOM     20  C   UNL     1       7.158   5.466  16.880  0.00  0.00    +0.000 C 
ATOM     21  O   UNL     1       7.868   4.477  16.765  0.00  0.00    +0.000 OA
BRANCH  20  22
ATOM     22  O   UNL     1       7.542   6.713  16.489  0.00  0.00    +0.000 OA
ATOM     23  H   UNL     1       6.975   6.952  15.718  0.00  0.00    +0.000 HD
ENDBRANCH  20  22
ENDBRANCH   3  20
TORSDOF 5
ENDMDL
MODEL 4
REMARK VINA RESULT:      -7.9      0.170      1.044
REMARK  Name = 
REMARK  6 active torsions:
REMARK  status: ('A' for Active; 'I' for Inactive)
REMARK    1  A    between atoms: C_1  and  O_2
REMARK    2  A    between atoms: O_2  and  C_3
REMARK    3  A    between atoms: C_6  and  N_7
REMARK    4  A    between atoms: C_9  and  C_10
REMARK    5  A    between atoms: C_10  and  O_12
REMARK    6  A    between atoms: C_14  and  C_15
REMARK                            x       y       z     vdW  Elec       q    Type
REMARK                         _______ _______ _______ _____ _____    ______ ____
ROOT
ATOM      1  N   UNL     1       3.954   6.154  18.107  0.00  0.00    +0.000 N 
ATOM      2  N   UNL     1       5.038   6.482  17.342  0.00  0.00    +0.000 NA
ATOM      3  C   UNL     1       5.809   5.383  17.362  0.00  0.00    +0.000 A 
ATOM      4  C   UNL     1       5.158   4.310  18.003  0.00  0.00    +0.000 A 
ATOM      5  C   UNL     1       3.928   4.790  18.420  0.00  0.00    +0.000 A 
ENDROOT
BRANCH   1   9
ATOM      6  C   UNL     1       1.161   9.145  19.166  0.00  0.00    +0.000 A 
ATOM      7  C   UNL     1       1.775   9.155  17.910  0.00  0.00    +0.000 A 
ATOM      8  C   UNL     1       2.725   8.188  17.571  0.00  0.00    +0.000 A 
ATOM      9  C   UNL     1       3.052   7.185  18.490  0.00  0.00    +0.000 A 
ATOM     10  C   UNL     1       2.480   7.205  19.768  0.00  0.00    +0.000 A 
ATOM     11  C   UNL     1       1.533   8.180  20.102  0.00  0.00    +0.000 A 
BRANCH   6  13
ATOM     12  C   UNL     1      -0.709  10.347  18.344  0.00  0.00    +0.000 C 
ATOM     13  O   UNL     1       0.249  10.141  19.376  0.00  0.00    +0.000 OA
ENDBRANCH   6  13
ENDBRANCH   1   9
BRANCH   5  14
ATOM     14  C   UNL     1       2.810   4.032  19.011  0.00  0.00    +0.000 A 
ATOM     15  C   UNL     1       2.755   3.821  20.398  0.00  0.00    +0.000 A 
ATOM     16  C   UNL     1       1.691   3.124  20.978  0.00  0.00    +0.000 A 
ATOM     17  C   UNL     1       0.657   2.638  20.185  0.00  0.00    +0.000 A 
ATOM     18  C   UNL     1       0.706   2.810  18.806  0.00  0.00    +0.000 A 
ATOM     19  C   UNL     1       1.792   3.470  18.224  0.00  0.00    +0.000 A 
ENDBRANCH   5  14
BRANCH   3  20
ATOM     20  C   UNL     1       7.143   5.390  16.753  0.00  0.00    +0.000 C 
ATOM     21  O   UNL     1       7.564   6.272  16.018  0.00  0.00    +0.000 OA
BRANCH  20  22
ATOM     22  O   UNL     1       7.867   4.286  17.089  0.00  0.00    +0.000 OA
ATOM     23  H   UNL     1       7.948   4.292  18.072  0.00  0.00    +0.000 HD
ENDBRANCH  20  22
ENDBRANCH   3  20
TORSDOF 5
ENDMDL
MODEL 5
REMARK VINA RESULT:      -7.8      0.967      1.069
REMARK  Name = 
REMARK  6 active torsions:
REMARK  status: ('A' for Active; 'I' for Inactive)
REMARK    1  A    between atoms: C_1  and  O_2
REMARK    2  A    between atoms: O_2  and  C_3
REMARK    3  A    between atoms: C_6  and  N_7
REMARK    4  A    between atoms: C_9  and  C_10
REMARK    5  A    between atoms: C_10  and  O_12
REMARK    6  A    between atoms: C_14  and  C_15
REMARK                            x       y       z     vdW  Elec       q    Type
REMARK                         _______ _______ _______ _____ _____    ______ ____
ROOT
ATOM      1  N   UNL     1       3.508   6.438  17.927  0.00  0.00    +0.000 N 
ATOM      2  N   UNL     1       4.361   6.809  16.925  0.00  0.00    +0.000 NA
ATOM      3  C   UNL     1       5.206   5.773  16.803  0.00  0.00    +0.000 A 
ATOM      4  C   UNL     1       4.809   4.687  17.608  0.00  0.00    +0.000 A 
ATOM      5  C   UNL     1       3.668   5.093  18.279  0.00  0.00    +0.000 A 
ENDROOT
BRANCH   1   9
ATOM      6  C   UNL     1       1.027   9.415  19.616  0.00  0.00    +0.000 A 
ATOM      7  C   UNL     1       1.453   8.324  20.380  0.00  0.00    +0.000 A 
ATOM      8  C   UNL     1       2.244   7.321  19.814  0.00  0.00    +0.000 A 
ATOM      9  C   UNL     1       2.632   7.416  18.473  0.00  0.00    +0.000 A 
ATOM     10  C   UNL     1       2.160   8.479  17.691  0.00  0.00    +0.000 A 
ATOM     11  C   UNL     1       1.365   9.477  18.264  0.00  0.00    +0.000 A 
BRANCH   6  13
ATOM     12  C   UNL     1      -0.015  10.042  21.650  0.00  0.00    +0.000 C 
ATOM     13  O   UNL     1       0.261  10.329  20.283  0.00  0.00    +0.000 OA
ENDBRANCH   6  13
ENDBRANCH   1   9
BRANCH   5  14
ATOM     14  C   UNL     1       2.779   4.282  19.132  0.00  0.00    +0.000 A 
ATOM     15  C   UNL     1       3.151   3.980  20.451  0.00  0.00    +0.000 A 
ATOM     16  C   UNL     1       2.311   3.231  21.282  0.00  0.00    +0.000 A 
ATOM     17  C   UNL     1       1.079   2.785  20.813  0.00  0.00    +0.000 A 
ATOM     18  C   UNL     1       0.705   3.050  19.501  0.00  0.00    +0.000 A 
ATOM     19  C   UNL     1       1.564   3.760  18.659  0.00  0.00    +0.000 A 
ENDBRANCH   5  14
BRANCH   3  20
ATOM     20  C   UNL     1       6.364   5.850  15.905  0.00  0.00    +0.000 C 
ATOM     21  O   UNL     1       6.358   5.495  14.735  0.00  0.00    +0.000 OA
BRANCH  20  22
ATOM     22  O   UNL     1       7.464   6.356  16.529  0.00  0.00    +0.000 OA
ATOM     23  H   UNL     1       8.248   5.968  16.073  0.00  0.00    +0.000 HD
ENDBRANCH  20  22
ENDBRANCH   3  20
TORSDOF 5
ENDMDL
MODEL 6
REMARK VINA RESULT:      -7.8      2.666      6.135
REMARK  Name = 
REMARK  6 active torsions:
REMARK  status: ('A' for Active; 'I' for Inactive)
REMARK    1  A    between atoms: C_1  and  O_2
REMARK    2  A    between atoms: O_2  and  C_3
REMARK    3  A    between atoms: C_6  and  N_7
REMARK    4  A    between atoms: C_9  and  C_10
REMARK    5  A    between atoms: C_10  and  O_12
REMARK    6  A    between atoms: C_14  and  C_15
REMARK                            x       y       z     vdW  Elec       q    Type
REMARK                         _______ _______ _______ _____ _____    ______ ____
ROOT
ATOM      1  N   UNL     1       3.489   4.822  19.274  0.00  0.00    +0.000 N 
ATOM      2  N   UNL     1       3.340   3.580  19.824  0.00  0.00    +0.000 NA
ATOM      3  C   UNL     1       2.492   3.766  20.847  0.00  0.00    +0.000 A 
ATOM      4  C   UNL     1       1.981   5.078  20.861  0.00  0.00    +0.000 A 
ATOM      5  C   UNL     1       2.572   5.740  19.798  0.00  0.00    +0.000 A 
ENDROOT
BRANCH   1   9
ATOM      6  C   UNL     1       6.459   5.535  16.351  0.00  0.00    +0.000 A 
ATOM      7  C   UNL     1       5.309   4.805  16.035  0.00  0.00    +0.000 A 
ATOM      8  C   UNL     1       4.343   4.538  17.009  0.00  0.00    +0.000 A 
ATOM      9  C   UNL     1       4.516   5.022  18.310  0.00  0.00    +0.000 A 
ATOM     10  C   UNL     1       5.693   5.707  18.642  0.00  0.00    +0.000 A 
ATOM     11  C   UNL     1       6.658   5.966  17.662  0.00  0.00    +0.000 A 
BRANCH   6  13
ATOM     12  C   UNL     1       7.100   4.947  14.147  0.00  0.00    +0.000 C 
ATOM     13  O   UNL     1       7.326   5.731  15.313  0.00  0.00    +0.000 OA
ENDBRANCH   6  13
ENDBRANCH   1   9
BRANCH   5  14
ATOM     14  C   UNL     1       2.270   7.090  19.287  0.00  0.00    +0.000 A 
ATOM     15  C   UNL     1       1.640   8.032  20.115  0.00  0.00    +0.000 A 
ATOM     16  C   UNL     1       1.366   9.324  19.655  0.00  0.00    +0.000 A 
ATOM     17  C   UNL     1       1.729   9.701  18.366  0.00  0.00    +0.000 A 
ATOM     18  C   UNL     1       2.327   8.773  17.520  0.00  0.00    +0.000 A 
ATOM     19  C   UNL     1       2.561   7.470  17.967  0.00  0.00    +0.000 A 
ENDBRANCH   5  14
BRANCH   3  20
ATOM     20  C   UNL     1       2.184   2.672  21.776  0.00  0.00    +0.000 C 
ATOM     21  O   UNL     1       1.079   2.459  22.254  0.00  0.00    +0.000 OA
BRANCH  20  22
ATOM     22  O   UNL     1       3.280   1.916  22.060  0.00  0.00    +0.000 OA
ATOM     23  H   UNL     1       3.888   2.489  22.585  0.00  0.00    +0.000 HD
ENDBRANCH  20  22
ENDBRANCH   3  20
TORSDOF 5
ENDMDL
MODEL 7
REMARK VINA RESULT:      -7.7      2.665      6.186
REMARK  Name = 
REMARK  6 active torsions:
REMARK  status: ('A' for Active; 'I' for Inactive)
REMARK    1  A    between atoms: C_1  and  O_2
REMARK    2  A    between atoms: O_2  and  C_3
REMARK    3  A    between atoms: C_6  and  N_7
REMARK    4  A    between atoms: C_9  and  C_10
REMARK    5  A    between atoms: C_10  and  O_12
REMARK    6  A    between atoms: C_14  and  C_15
REMARK                            x       y       z     vdW  Elec       q    Type
REMARK                         _______ _______ _______ _____ _____    ______ ____
ROOT
ATOM      1  N   UNL     1       3.523   4.805  19.273  0.00  0.00    +0.000 N 
ATOM      2  N   UNL     1       3.375   3.560  19.819  0.00  0.00    +0.000 NA
ATOM      3  C   UNL     1       2.533   3.742  20.847  0.00  0.00    +0.000 A 
ATOM      4  C   UNL     1       2.024   5.056  20.870  0.00  0.00    +0.000 A 
ATOM      5  C   UNL     1       2.610   5.721  19.806  0.00  0.00    +0.000 A 
ENDROOT
BRANCH   1   9
ATOM      6  C   UNL     1       6.476   5.525  16.335  0.00  0.00    +0.000 A 
ATOM      7  C   UNL     1       5.332   4.782  16.028  0.00  0.00    +0.000 A 
ATOM      8  C   UNL     1       4.372   4.513  17.008  0.00  0.00    +0.000 A 
ATOM      9  C   UNL     1       4.545   5.008  18.304  0.00  0.00    +0.000 A 
ATOM     10  C   UNL     1       5.717   5.705  18.627  0.00  0.00    +0.000 A 
ATOM     11  C   UNL     1       6.675   5.967  17.643  0.00  0.00    +0.000 A 
BRANCH   6  13
ATOM     12  C   UNL     1       7.113   4.931  14.131  0.00  0.00    +0.000 C 
ATOM     13  O   UNL     1       7.338   5.722  15.293  0.00  0.00    +0.000 OA
ENDBRANCH   6  13
ENDBRANCH   1   9
BRANCH   5  14
ATOM     14  C   UNL     1       2.306   7.074  19.303  0.00  0.00    +0.000 A 
ATOM     15  C   UNL     1       2.682   7.443  18.002  0.00  0.00    +0.000 A 
ATOM     16  C   UNL     1       2.383   8.713  17.499  0.00  0.00    +0.000 A 
ATOM     17  C   UNL     1       1.690   9.631  18.283  0.00  0.00    +0.000 A 
ATOM     18  C   UNL     1       1.334   9.295  19.585  0.00  0.00    +0.000 A 
ATOM     19  C   UNL     1       1.672   8.041  20.100  0.00  0.00    +0.000 A 
ENDBRANCH   5  14
BRANCH   3  20
ATOM     20  C   UNL     1       2.228   2.645  21.773  0.00  0.00    +0.000 C 
ATOM     21  O   UNL     1       1.127   2.434  22.258  0.00  0.00    +0.000 OA
BRANCH  20  22
ATOM     22  O   UNL     1       3.325   1.884  22.045  0.00  0.00    +0.000 OA
ATOM     23  H   UNL     1       3.315   1.714  23.017  0.00  0.00    +0.000 HD
ENDBRANCH  20  22
ENDBRANCH   3  20
TORSDOF 5
ENDMDL
MODEL 8
REMARK VINA RESULT:      -7.7      2.665      6.107
REMARK  Name = 
REMARK  6 active torsions:
REMARK  status: ('A' for Active; 'I' for Inactive)
REMARK    1  A    between atoms: C_1  and  O_2
REMARK    2  A    between atoms: O_2  and  C_3
REMARK    3  A    between atoms: C_6  and  N_7
REMARK    4  A    between atoms: C_9  and  C_10
REMARK    5  A    between atoms: C_10  and  O_12
REMARK    6  A    between atoms: C_14  and  C_15
REMARK                            x       y       z     vdW  Elec       q    Type
REMARK                         _______ _______ _______ _____ _____    ______ ____
ROOT
ATOM      1  N   UNL     1       3.412   4.861  19.211  0.00  0.00    +0.000 N 
ATOM      2  N   UNL     1       3.297   3.611  19.752  0.00  0.00    +0.000 NA
ATOM      3  C   UNL     1       2.514   3.783  20.829  0.00  0.00    +0.000 A 
ATOM      4  C   UNL     1       2.007   5.096  20.893  0.00  0.00    +0.000 A 
ATOM      5  C   UNL     1       2.531   5.772  19.804  0.00  0.00    +0.000 A 
ENDROOT
BRANCH   1   9
ATOM      6  C   UNL     1       6.365   5.377  16.229  0.00  0.00    +0.000 A 
ATOM      7  C   UNL     1       6.529   5.938  17.500  0.00  0.00    +0.000 A 
ATOM      8  C   UNL     1       5.538   5.798  18.475  0.00  0.00    +0.000 A 
ATOM      9  C   UNL     1       4.377   5.073  18.187  0.00  0.00    +0.000 A 
ATOM     10  C   UNL     1       4.186   4.558  16.898  0.00  0.00    +0.000 A 
ATOM     11  C   UNL     1       5.181   4.706  15.925  0.00  0.00    +0.000 A 
BRANCH   6  13
ATOM     12  C   UNL     1       7.272   4.998  14.073  0.00  0.00    +0.000 C 
ATOM     13  O   UNL     1       7.403   5.581  15.365  0.00  0.00    +0.000 OA
ENDBRANCH   6  13
ENDBRANCH   1   9
BRANCH   5  14
ATOM     14  C   UNL     1       2.199   7.128  19.331  0.00  0.00    +0.000 A 
ATOM     15  C   UNL     1       1.594   8.049  20.201  0.00  0.00    +0.000 A 
ATOM     16  C   UNL     1       1.292   9.348  19.778  0.00  0.00    +0.000 A 
ATOM     17  C   UNL     1       1.602   9.752  18.483  0.00  0.00    +0.000 A 
ATOM     18  C   UNL     1       2.175   8.846  17.597  0.00  0.00    +0.000 A 
ATOM     19  C   UNL     1       2.436   7.536  18.009  0.00  0.00    +0.000 A 
ENDBRANCH   5  14
BRANCH   3  20
ATOM     20  C   UNL     1       2.264   2.677  21.760  0.00  0.00    +0.000 C 
ATOM     21  O   UNL     1       1.185   2.444  22.286  0.00  0.00    +0.000 OA
BRANCH  20  22
ATOM     22  O   UNL     1       3.383   1.934  21.987  0.00  0.00    +0.000 OA
ATOM     23  H   UNL     1       3.460   1.834  22.966  0.00  0.00    +0.000 HD
ENDBRANCH  20  22
ENDBRANCH   3  20
TORSDOF 5
ENDMDL
MODEL 9
REMARK VINA RESULT:      -7.7      2.663      6.168
REMARK  Name = 
REMARK  6 active torsions:
REMARK  status: ('A' for Active; 'I' for Inactive)
REMARK    1  A    between atoms: C_1  and  O_2
REMARK    2  A    between atoms: O_2  and  C_3
REMARK    3  A    between atoms: C_6  and  N_7
REMARK    4  A    between atoms: C_9  and  C_10
REMARK    5  A    between atoms: C_10  and  O_12
REMARK    6  A    between atoms: C_14  and  C_15
REMARK                            x       y       z     vdW  Elec       q    Type
REMARK                         _______ _______ _______ _____ _____    ______ ____
ROOT
ATOM      1  N   UNL     1       3.399   4.880  19.224  0.00  0.00    +0.000 N 
ATOM      2  N   UNL     1       3.272   3.628  19.758  0.00  0.00    +0.000 NA
ATOM      3  C   UNL     1       2.490   3.800  20.835  0.00  0.00    +0.000 A 
ATOM      4  C   UNL     1       1.994   5.116  20.907  0.00  0.00    +0.000 A 
ATOM      5  C   UNL     1       2.525   5.794  19.822  0.00  0.00    +0.000 A 
ENDROOT
BRANCH   1   9
ATOM      6  C   UNL     1       6.358   5.389  16.248  0.00  0.00    +0.000 A 
ATOM      7  C   UNL     1       6.530   5.934  17.525  0.00  0.00    +0.000 A 
ATOM      8  C   UNL     1       5.537   5.797  18.499  0.00  0.00    +0.000 A 
ATOM      9  C   UNL     1       4.366   5.091  18.202  0.00  0.00    +0.000 A 
ATOM     10  C   UNL     1       4.169   4.592  16.908  0.00  0.00    +0.000 A 
ATOM     11  C   UNL     1       5.165   4.737  15.937  0.00  0.00    +0.000 A 
BRANCH   6  13
ATOM     12  C   UNL     1       7.270   5.003  14.096  0.00  0.00    +0.000 C 
ATOM     13  O   UNL     1       7.399   5.589  15.386  0.00  0.00    +0.000 OA
ENDBRANCH   6  13
ENDBRANCH   1   9
BRANCH   5  14
ATOM     14  C   UNL     1       2.204   7.157  19.357  0.00  0.00    +0.000 A 
ATOM     15  C   UNL     1       2.501   7.541  18.041  0.00  0.00    +0.000 A 
ATOM     16  C   UNL     1       2.184   8.821  17.576  0.00  0.00    +0.000 A 
ATOM     17  C   UNL     1       1.551   9.734  18.414  0.00  0.00    +0.000 A 
ATOM     18  C   UNL     1       1.274   9.383  19.731  0.00  0.00    +0.000 A 
ATOM     19  C   UNL     1       1.631   8.118  20.206  0.00  0.00    +0.000 A 
ENDBRANCH   5  14
BRANCH   3  20
ATOM     20  C   UNL     1       2.229   2.690  21.759  0.00  0.00    +0.000 C 
ATOM     21  O   UNL     1       1.142   2.450  22.264  0.00  0.00    +0.000 OA
BRANCH  20  22
ATOM     22  O   UNL     1       3.348   1.953  22.004  0.00  0.00    +0.000 OA
ATOM     23  H   UNL     1       3.149   1.395  22.793  0.00  0.00    +0.000 HD
ENDBRANCH  20  22
ENDBRANCH   3  20
TORSDOF 5
ENDMDL
