MODEL 1
REMARK VINA RESULT:      -8.7      0.000      0.000
REMARK  Name = 
REMARK  3 active torsions:
REMARK  status: ('A' for Active; 'I' for Inactive)
REMARK    1  A    between atoms: C_2  and  C_3
REMARK    2  A    between atoms: C_4  and  C_5
REMARK    3  A    between atoms: N_10  and  C_11
REMARK                            x       y       z     vdW  Elec       q    Type
REMARK                         _______ _______ _______ _____ _____    ______ ____
ROOT
ATOM      1  C   UNL     1       6.501   6.739  17.079  0.00  0.00    +0.000 A 
ATOM      2  C   UNL     1       6.862   5.609  16.342  0.00  0.00    +0.000 A 
ATOM      3  C   UNL     1       6.107   4.431  16.422  0.00  0.00    +0.000 A 
ATOM      4  C   UNL     1       4.979   4.363  17.235  0.00  0.00    +0.000 A 
ATOM      5  N   UNL     1       4.229   3.184  17.261  0.00  0.00    +0.000 NA
ATOM      6  C   UNL     1       3.147   3.149  17.974  0.00  0.00    +0.000 A 
ATOM      7  N   UNL     1       2.682   4.218  18.712  0.00  0.00    +0.000 N 
ATOM      8  C   UNL     1       3.431   5.392  18.823  0.00  0.00    +0.000 A 
ATOM      9  O   UNL     1       3.143   6.323  19.571  0.00  0.00    +0.000 OA
ATOM     10  C   UNL     1       4.640   5.481  17.988  0.00  0.00    +0.000 A 
ATOM     11  C   UNL     1       5.403   6.657  17.940  0.00  0.00    +0.000 A 
ATOM     12  C   UNL     1       1.516   4.124  19.582  0.00  0.00    +0.000 C 
ATOM     13  C   UNL     1       0.567   2.990  19.240  0.00  0.00    +0.000 C 
ATOM     14  C   UNL     1       1.366   1.711  19.084  0.00  0.00    +0.000 C 
ATOM     15  C   UNL     1       2.323   1.875  17.921  0.00  0.00    +0.000 C 
ENDROOT
BRANCH   1  18
ATOM     16  O   UNL     1       8.570   7.832  18.879  0.00  0.00    +0.000 OA
ATOM     17  C   UNL     1       8.124   8.435  17.912  0.00  0.00    +0.000 C 
ATOM     18  N   UNL     1       7.192   7.968  17.003  0.00  0.00    +0.000 N 
ATOM     19  H   UNL     1       7.054   8.505  16.156  0.00  0.00    +0.000 HD
BRANCH  17  20
ATOM     20  C   UNL     1       8.593   9.808  17.587  0.00  0.00    +0.000 C 
ATOM     21  C   UNL     1       9.252  10.531  18.504  0.00  0.00    +0.000 C 
BRANCH  21  22
ATOM     22  C   UNL     1       9.642  11.869  18.213  0.00  0.00    +0.000 A 
ATOM     23  C   UNL     1      10.788  12.335  17.583  0.00  0.00    +0.000 A 
ATOM     24  C   UNL     1      10.730  13.751  17.557  0.00  0.00    +0.000 A 
ATOM     25  C   UNL     1       9.549  14.087  18.164  0.00  0.00    +0.000 A 
ATOM     26  O   UNL     1       8.887  12.972  18.558  0.00  0.00    +0.000 OA
ENDBRANCH  21  22
ENDBRANCH  17  20
ENDBRANCH   1  18
TORSDOF 3
ENDMDL
MODEL 2
REMARK VINA RESULT:      -8.2      4.704      7.462
REMARK  Name = 
REMARK  3 active torsions:
REMARK  status: ('A' for Active; 'I' for Inactive)
REMARK    1  A    between atoms: C_2  and  C_3
REMARK    2  A    between atoms: C_4  and  C_5
REMARK    3  A    between atoms: N_10  and  C_11
REMARK                            x       y       z     vdW  Elec       q    Type
REMARK                         _______ _______ _______ _____ _____    ______ ____
ROOT
ATOM      1  C   UNL     1       3.974   5.846  17.661  0.00  0.00    +0.000 A 
ATOM      2  C   UNL     1       3.806   5.188  18.882  0.00  0.00    +0.000 A 
ATOM      3  C   UNL     1       3.028   5.756  19.900  0.00  0.00    +0.000 A 
ATOM      4  C   UNL     1       2.402   6.986  19.715  0.00  0.00    +0.000 A 
ATOM      5  N   UNL     1       1.603   7.504  20.738  0.00  0.00    +0.000 NA
ATOM      6  C   UNL     1       0.976   8.620  20.534  0.00  0.00    +0.000 A 
ATOM      7  N   UNL     1       1.045   9.332  19.355  0.00  0.00    +0.000 N 
ATOM      8  C   UNL     1       1.905   8.937  18.328  0.00  0.00    +0.000 A 
ATOM      9  O   UNL     1       2.117   9.599  17.314  0.00  0.00    +0.000 OA
ATOM     10  C   UNL     1       2.594   7.649  18.509  0.00  0.00    +0.000 A 
ATOM     11  C   UNL     1       3.395   7.107  17.492  0.00  0.00    +0.000 A 
ATOM     12  C   UNL     1       0.409  10.633  19.185  0.00  0.00    +0.000 C 
ATOM     13  C   UNL     1      -0.729  10.908  20.152  0.00  0.00    +0.000 C 
ATOM     14  C   UNL     1      -0.264  10.591  21.560  0.00  0.00    +0.000 C 
ATOM     15  C   UNL     1       0.063   9.114  21.643  0.00  0.00    +0.000 C 
ENDROOT
BRANCH   1  18
ATOM     16  O   UNL     1       6.647   6.591  16.653  0.00  0.00    +0.000 OA
ATOM     17  C   UNL     1       5.941   5.733  16.138  0.00  0.00    +0.000 C 
ATOM     18  N   UNL     1       4.705   5.302  16.583  0.00  0.00    +0.000 N 
ATOM     19  H   UNL     1       4.322   4.464  16.162  0.00  0.00    +0.000 HD
BRANCH  17  20
ATOM     20  C   UNL     1       6.389   5.008  14.920  0.00  0.00    +0.000 C 
ATOM     21  C   UNL     1       5.498   4.364  14.152  0.00  0.00    +0.000 C 
BRANCH  21  22
ATOM     22  C   UNL     1       5.937   3.616  13.023  0.00  0.00    +0.000 A 
ATOM     23  C   UNL     1       7.118   3.723  12.301  0.00  0.00    +0.000 A 
ATOM     24  C   UNL     1       7.075   2.777  11.246  0.00  0.00    +0.000 A 
ATOM     25  C   UNL     1       5.876   2.130  11.375  0.00  0.00    +0.000 A 
ATOM     26  O   UNL     1       5.186   2.619  12.435  0.00  0.00    +0.000 OA
ENDBRANCH  21  22
ENDBRANCH  17  20
ENDBRANCH   1  18
TORSDOF 3
ENDMDL
MODEL 3
REMARK VINA RESULT:      -8.2      6.229      8.657
REMARK  Name = 
REMARK  3 active torsions:
REMARK  status: ('A' for Active; 'I' for Inactive)
REMARK    1  A    between atoms: C_2  and  C_3
REMARK    2  A    between atoms: C_4  and  C_5
REMARK    3  A    between atoms: N_10  and  C_11
REMARK                            x       y       z     vdW  Elec       q    Type
REMARK                         _______ _______ _______ _____ _____    ______ ____
ROOT
ATOM      1  C   UNL     1       0.883   9.260  20.124  0.00  0.00    +0.000 A 
ATOM      2  C   UNL     1       1.322   9.877  18.950  0.00  0.00    +0.000 A 
ATOM      3  C   UNL     1       2.175   9.205  18.064  0.00  0.00    +0.000 A 
ATOM      4  C   UNL     1       2.600   7.906  18.333  0.00  0.00    +0.000 A 
ATOM      5  N   UNL     1       3.420   7.253  17.408  0.00  0.00    +0.000 NA
ATOM      6  C   UNL     1       3.761   6.024  17.637  0.00  0.00    +0.000 A 
ATOM      7  N   UNL     1       3.356   5.311  18.747  0.00  0.00    +0.000 N 
ATOM      8  C   UNL     1       2.627   5.927  19.767  0.00  0.00    +0.000 A 
ATOM      9  O   UNL     1       2.356   5.390  20.839  0.00  0.00    +0.000 OA
ATOM     10  C   UNL     1       2.183   7.307  19.515  0.00  0.00    +0.000 A 
ATOM     11  C   UNL     1       1.353   7.978  20.426  0.00  0.00    +0.000 A 
ATOM     12  C   UNL     1       3.832   3.963  19.031  0.00  0.00    +0.000 C 
ATOM     13  C   UNL     1       4.359   3.214  17.820  0.00  0.00    +0.000 C 
ATOM     14  C   UNL     1       5.336   4.106  17.078  0.00  0.00    +0.000 C 
ATOM     15  C   UNL     1       4.594   5.328  16.576  0.00  0.00    +0.000 C 
ENDROOT
BRANCH   1  18
ATOM     16  O   UNL     1       1.168   9.685  23.032  0.00  0.00    +0.000 OA
ATOM     17  C   UNL     1       0.169   9.993  22.395  0.00  0.00    +0.000 C 
ATOM     18  N   UNL     1      -0.014   9.867  21.030  0.00  0.00    +0.000 N 
ATOM     19  H   UNL     1      -0.817  10.328  20.620  0.00  0.00    +0.000 HD
BRANCH  17  20
ATOM     20  C   UNL     1      -1.009  10.597  23.070  0.00  0.00    +0.000 C 
ATOM     21  C   UNL     1      -1.442  11.815  22.712  0.00  0.00    +0.000 C 
BRANCH  21  22
ATOM     22  C   UNL     1      -2.530  12.418  23.405  0.00  0.00    +0.000 A 
ATOM     23  C   UNL     1      -2.774  13.761  23.662  0.00  0.00    +0.000 A 
ATOM     24  C   UNL     1      -3.973  13.853  24.414  0.00  0.00    +0.000 A 
ATOM     25  C   UNL     1      -4.411  12.566  24.576  0.00  0.00    +0.000 A 
ATOM     26  O   UNL     1      -3.560  11.698  23.975  0.00  0.00    +0.000 OA
ENDBRANCH  21  22
ENDBRANCH  17  20
ENDBRANCH   1  18
TORSDOF 3
ENDMDL
MODEL 4
REMARK VINA RESULT:      -8.1      5.047      7.631
REMARK  Name = 
REMARK  3 active torsions:
REMARK  status: ('A' for Active; 'I' for Inactive)
REMARK    1  A    between atoms: C_2  and  C_3
REMARK    2  A    between atoms: C_4  and  C_5
REMARK    3  A    between atoms: N_10  and  C_11
REMARK                            x       y       z     vdW  Elec       q    Type
REMARK                         _______ _______ _______ _____ _____    ______ ____
ROOT
ATOM      1  C   UNL     1       3.387   5.755  18.138  0.00  0.00    +0.000 A 
ATOM      2  C   UNL     1       3.115   5.189  19.386  0.00  0.00    +0.000 A 
ATOM      3  C   UNL     1       2.405   5.907  20.358  0.00  0.00    +0.000 A 
ATOM      4  C   UNL     1       1.953   7.199  20.099  0.00  0.00    +0.000 A 
ATOM      5  N   UNL     1       1.215   7.871  21.078  0.00  0.00    +0.000 NA
ATOM      6  C   UNL     1       0.746   9.048  20.807  0.00  0.00    +0.000 A 
ATOM      7  N   UNL     1       0.928   9.683  19.595  0.00  0.00    +0.000 N 
ATOM      8  C   UNL     1       1.742   9.124  18.608  0.00  0.00    +0.000 A 
ATOM      9  O   UNL     1       2.056   9.699  17.568  0.00  0.00    +0.000 OA
ATOM     10  C   UNL     1       2.250   7.767  18.866  0.00  0.00    +0.000 A 
ATOM     11  C   UNL     1       2.985   7.071  17.895  0.00  0.00    +0.000 A 
ATOM     12  C   UNL     1       0.474  11.046  19.348  0.00  0.00    +0.000 C 
ATOM     13  C   UNL     1      -0.630  11.520  20.276  0.00  0.00    +0.000 C 
ATOM     14  C   UNL     1      -0.233  11.217  21.707  0.00  0.00    +0.000 C 
ATOM     15  C   UNL     1      -0.108   9.715  21.870  0.00  0.00    +0.000 C 
ENDROOT
BRANCH   1  18
ATOM     16  O   UNL     1       6.176   4.792  18.032  0.00  0.00    +0.000 OA
ATOM     17  C   UNL     1       5.383   4.679  17.106  0.00  0.00    +0.000 C 
ATOM     18  N   UNL     1       4.054   5.064  17.104  0.00  0.00    +0.000 N 
ATOM     19  H   UNL     1       3.477   4.746  16.335  0.00  0.00    +0.000 HD
BRANCH  17  20
ATOM     20  C   UNL     1       5.794   4.055  15.822  0.00  0.00    +0.000 C 
ATOM     21  C   UNL     1       5.367   4.564  14.657  0.00  0.00    +0.000 C 
BRANCH  21  22
ATOM     22  C   UNL     1       5.709   3.925  13.431  0.00  0.00    +0.000 A 
ATOM     23  C   UNL     1       4.889   3.270  12.521  0.00  0.00    +0.000 A 
ATOM     24  C   UNL     1       5.705   2.775  11.473  0.00  0.00    +0.000 A 
ATOM     25  C   UNL     1       6.983   3.155  11.783  0.00  0.00    +0.000 A 
ATOM     26  O   UNL     1       7.000   3.846  12.950  0.00  0.00    +0.000 OA
ENDBRANCH  21  22
ENDBRANCH  17  20
ENDBRANCH   1  18
TORSDOF 3
ENDMDL
MODEL 5
REMARK VINA RESULT:      -8.1      5.111      7.465
REMARK  Name = 
REMARK  3 active torsions:
REMARK  status: ('A' for Active; 'I' for Inactive)
REMARK    1  A    between atoms: C_2  and  C_3
REMARK    2  A    between atoms: C_4  and  C_5
REMARK    3  A    between atoms: N_10  and  C_11
REMARK                            x       y       z     vdW  Elec       q    Type
REMARK                         _______ _______ _______ _____ _____    ______ ____
ROOT
ATOM      1  C   UNL     1       3.013   6.139  18.489  0.00  0.00    +0.000 A 
ATOM      2  C   UNL     1       2.710   5.497  19.693  0.00  0.00    +0.000 A 
ATOM      3  C   UNL     1       1.986   6.158  20.694  0.00  0.00    +0.000 A 
ATOM      4  C   UNL     1       1.548   7.467  20.508  0.00  0.00    +0.000 A 
ATOM      5  N   UNL     1       0.795   8.082  21.513  0.00  0.00    +0.000 NA
ATOM      6  C   UNL     1       0.340   9.278  21.308  0.00  0.00    +0.000 A 
ATOM      7  N   UNL     1       0.551   9.987  20.143  0.00  0.00    +0.000 N 
ATOM      8  C   UNL     1       1.382   9.485  19.139  0.00  0.00    +0.000 A 
ATOM      9  O   UNL     1       1.721  10.122  18.144  0.00  0.00    +0.000 OA
ATOM     10  C   UNL     1       1.874   8.110  19.321  0.00  0.00    +0.000 A 
ATOM     11  C   UNL     1       2.625   7.471  18.322  0.00  0.00    +0.000 A 
ATOM     12  C   UNL     1       0.112  11.367  19.974  0.00  0.00    +0.000 C 
ATOM     13  C   UNL     1      -1.008  11.790  20.908  0.00  0.00    +0.000 C 
ATOM     14  C   UNL     1      -0.642  11.393  22.325  0.00  0.00    +0.000 C 
ATOM     15  C   UNL     1      -0.531   9.883  22.394  0.00  0.00    +0.000 C 
ENDROOT
BRANCH   1  18
ATOM     16  O   UNL     1       4.714   3.726  18.532  0.00  0.00    +0.000 OA
ATOM     17  C   UNL     1       4.515   4.399  17.529  0.00  0.00    +0.000 C 
ATOM     18  N   UNL     1       3.696   5.509  17.426  0.00  0.00    +0.000 N 
ATOM     19  H   UNL     1       3.489   5.854  16.497  0.00  0.00    +0.000 HD
BRANCH  17  20
ATOM     20  C   UNL     1       5.157   4.048  16.235  0.00  0.00    +0.000 C 
ATOM     21  C   UNL     1       5.720   5.002  15.480  0.00  0.00    +0.000 C 
BRANCH  21  22
ATOM     22  C   UNL     1       6.276   4.673  14.212  0.00  0.00    +0.000 A 
ATOM     23  C   UNL     1       5.886   3.695  13.306  0.00  0.00    +0.000 A 
ATOM     24  C   UNL     1       6.774   3.741  12.201  0.00  0.00    +0.000 A 
ATOM     25  C   UNL     1       7.660   4.748  12.477  0.00  0.00    +0.000 A 
ATOM     26  O   UNL     1       7.373   5.316  13.674  0.00  0.00    +0.000 OA
ENDBRANCH  21  22
ENDBRANCH  17  20
ENDBRANCH   1  18
TORSDOF 3
ENDMDL
MODEL 6
REMARK VINA RESULT:      -7.7      6.731      9.054
REMARK  Name = 
REMARK  3 active torsions:
REMARK  status: ('A' for Active; 'I' for Inactive)
REMARK    1  A    between atoms: C_2  and  C_3
REMARK    2  A    between atoms: C_4  and  C_5
REMARK    3  A    between atoms: N_10  and  C_11
REMARK                            x       y       z     vdW  Elec       q    Type
REMARK                         _______ _______ _______ _____ _____    ______ ____
ROOT
ATOM      1  C   UNL     1       0.919   9.711  18.278  0.00  0.00    +0.000 A 
ATOM      2  C   UNL     1       1.070  10.558  19.379  0.00  0.00    +0.000 A 
ATOM      3  C   UNL     1      -0.004  11.329  19.842  0.00  0.00    +0.000 A 
ATOM      4  C   UNL     1      -1.247  11.265  19.216  0.00  0.00    +0.000 A 
ATOM      5  N   UNL     1      -2.307  12.019  19.729  0.00  0.00    +0.000 NA
ATOM      6  C   UNL     1      -3.474  11.908  19.178  0.00  0.00    +0.000 A 
ATOM      7  N   UNL     1      -3.740  11.077  18.109  0.00  0.00    +0.000 N 
ATOM      8  C   UNL     1      -2.713  10.375  17.475  0.00  0.00    +0.000 A 
ATOM      9  O   UNL     1      -2.858   9.731  16.438  0.00  0.00    +0.000 OA
ATOM     10  C   UNL     1      -1.385  10.443  18.105  0.00  0.00    +0.000 A 
ATOM     11  C   UNL     1      -0.310   9.687  17.612  0.00  0.00    +0.000 A 
ATOM     12  C   UNL     1      -5.038  11.042  17.445  0.00  0.00    +0.000 C 
ATOM     13  C   UNL     1      -6.190  11.556  18.290  0.00  0.00    +0.000 C 
ATOM     14  C   UNL     1      -5.802  12.894  18.888  0.00  0.00    +0.000 C 
ATOM     15  C   UNL     1      -4.614  12.690  19.806  0.00  0.00    +0.000 C 
ENDROOT
BRANCH   1  18
ATOM     16  O   UNL     1       2.112   7.314  19.522  0.00  0.00    +0.000 OA
ATOM     17  C   UNL     1       2.491   7.787  18.458  0.00  0.00    +0.000 C 
ATOM     18  N   UNL     1       1.950   8.875  17.796  0.00  0.00    +0.000 N 
ATOM     19  H   UNL     1       2.250   9.040  16.844  0.00  0.00    +0.000 HD
BRANCH  17  20
ATOM     20  C   UNL     1       3.626   7.181  17.715  0.00  0.00    +0.000 C 
ATOM     21  C   UNL     1       3.779   5.848  17.685  0.00  0.00    +0.000 C 
BRANCH  21  22
ATOM     22  C   UNL     1       4.903   5.273  17.029  0.00  0.00    +0.000 A 
ATOM     23  C   UNL     1       4.943   4.427  15.928  0.00  0.00    +0.000 A 
ATOM     24  C   UNL     1       6.299   4.103  15.671  0.00  0.00    +0.000 A 
ATOM     25  C   UNL     1       7.027   4.771  16.619  0.00  0.00    +0.000 A 
ATOM     26  O   UNL     1       6.206   5.477  17.435  0.00  0.00    +0.000 OA
ENDBRANCH  21  22
ENDBRANCH  17  20
ENDBRANCH   1  18
TORSDOF 3
ENDMDL
MODEL 7
REMARK VINA RESULT:      -7.6      6.487      8.722
REMARK  Name = 
REMARK  3 active torsions:
REMARK  status: ('A' for Active; 'I' for Inactive)
REMARK    1  A    between atoms: C_2  and  C_3
REMARK    2  A    between atoms: C_4  and  C_5
REMARK    3  A    between atoms: N_10  and  C_11
REMARK                            x       y       z     vdW  Elec       q    Type
REMARK                         _______ _______ _______ _____ _____    ______ ____
ROOT
ATOM      1  C   UNL     1       0.809   9.993  19.665  0.00  0.00    +0.000 A 
ATOM      2  C   UNL     1       1.395  10.360  18.451  0.00  0.00    +0.000 A 
ATOM      3  C   UNL     1       2.219   9.466  17.754  0.00  0.00    +0.000 A 
ATOM      4  C   UNL     1       2.467   8.190  18.254  0.00  0.00    +0.000 A 
ATOM      5  N   UNL     1       3.262   7.311  17.513  0.00  0.00    +0.000 NA
ATOM      6  C   UNL     1       3.438   6.106  17.956  0.00  0.00    +0.000 A 
ATOM      7  N   UNL     1       2.879   5.631  19.124  0.00  0.00    +0.000 N 
ATOM      8  C   UNL     1       2.163   6.478  19.972  0.00  0.00    +0.000 A 
ATOM      9  O   UNL     1       1.759   6.155  21.087  0.00  0.00    +0.000 OA
ATOM     10  C   UNL     1       1.904   7.839  19.475  0.00  0.00    +0.000 A 
ATOM     11  C   UNL     1       1.102   8.734  20.199  0.00  0.00    +0.000 A 
ATOM     12  C   UNL     1       3.171   4.303  19.651  0.00  0.00    +0.000 C 
ATOM     13  C   UNL     1       3.683   3.315  18.618  0.00  0.00    +0.000 C 
ATOM     14  C   UNL     1       4.807   3.965  17.833  0.00  0.00    +0.000 C 
ATOM     15  C   UNL     1       4.251   5.162  17.088  0.00  0.00    +0.000 C 
ENDROOT
BRANCH   1  18
ATOM     16  O   UNL     1       1.440  12.292  21.407  0.00  0.00    +0.000 OA
ATOM     17  C   UNL     1       0.305  11.869  21.223  0.00  0.00    +0.000 C 
ATOM     18  N   UNL     1      -0.067  10.832  20.388  0.00  0.00    +0.000 N 
ATOM     19  H   UNL     1      -1.054  10.713  20.200  0.00  0.00    +0.000 HD
BRANCH  17  20
ATOM     20  C   UNL     1      -0.860  12.491  21.906  0.00  0.00    +0.000 C 
ATOM     21  C   UNL     1      -1.625  11.763  22.733  0.00  0.00    +0.000 C 
BRANCH  21  22
ATOM     22  C   UNL     1      -2.778  12.343  23.334  0.00  0.00    +0.000 A 
ATOM     23  C   UNL     1      -3.236  13.653  23.279  0.00  0.00    +0.000 A 
ATOM     24  C   UNL     1      -4.410  13.741  24.068  0.00  0.00    +0.000 A 
ATOM     25  C   UNL     1      -4.622  12.482  24.563  0.00  0.00    +0.000 A 
ATOM     26  O   UNL     1      -3.656  11.635  24.130  0.00  0.00    +0.000 OA
ENDBRANCH  21  22
ENDBRANCH  17  20
ENDBRANCH   1  18
TORSDOF 3
ENDMDL
MODEL 8
REMARK VINA RESULT:      -7.5      6.540      9.200
REMARK  Name = 
REMARK  3 active torsions:
REMARK  status: ('A' for Active; 'I' for Inactive)
REMARK    1  A    between atoms: C_2  and  C_3
REMARK    2  A    between atoms: C_4  and  C_5
REMARK    3  A    between atoms: N_10  and  C_11
REMARK                            x       y       z     vdW  Elec       q    Type
REMARK                         _______ _______ _______ _____ _____    ______ ____
ROOT
ATOM      1  C   UNL     1       1.372   8.632  20.626  0.00  0.00    +0.000 A 
ATOM      2  C   UNL     1       1.460   8.599  22.020  0.00  0.00    +0.000 A 
ATOM      3  C   UNL     1       0.697   9.474  22.806  0.00  0.00    +0.000 A 
ATOM      4  C   UNL     1      -0.169  10.390  22.215  0.00  0.00    +0.000 A 
ATOM      5  N   UNL     1      -0.943  11.220  23.031  0.00  0.00    +0.000 NA
ATOM      6  C   UNL     1      -1.789  12.028  22.474  0.00  0.00    +0.000 A 
ATOM      7  N   UNL     1      -1.979  12.116  21.110  0.00  0.00    +0.000 N 
ATOM      8  C   UNL     1      -1.170  11.399  20.226  0.00  0.00    +0.000 A 
ATOM      9  O   UNL     1      -1.195  11.537  19.005  0.00  0.00    +0.000 OA
ATOM     10  C   UNL     1      -0.232  10.437  20.827  0.00  0.00    +0.000 A 
ATOM     11  C   UNL     1       0.548   9.589  20.027  0.00  0.00    +0.000 A 
ATOM     12  C   UNL     1      -2.867  13.100  20.503  0.00  0.00    +0.000 C 
ATOM     13  C   UNL     1      -3.930  13.649  21.438  0.00  0.00    +0.000 C 
ATOM     14  C   UNL     1      -3.270  14.081  22.733  0.00  0.00    +0.000 C 
ATOM     15  C   UNL     1      -2.660  12.863  23.396  0.00  0.00    +0.000 C 
ENDROOT
BRANCH   1  18
ATOM     16  O   UNL     1       1.512   5.684  20.719  0.00  0.00    +0.000 OA
ATOM     17  C   UNL     1       2.132   6.369  19.915  0.00  0.00    +0.000 C 
ATOM     18  N   UNL     1       2.078   7.745  19.785  0.00  0.00    +0.000 N 
ATOM     19  H   UNL     1       2.504   8.154  18.963  0.00  0.00    +0.000 HD
BRANCH  17  20
ATOM     20  C   UNL     1       3.042   5.742  18.921  0.00  0.00    +0.000 C 
ATOM     21  C   UNL     1       3.583   6.480  17.941  0.00  0.00    +0.000 C 
BRANCH  21  22
ATOM     22  C   UNL     1       4.401   5.865  16.953  0.00  0.00    +0.000 A 
ATOM     23  C   UNL     1       5.131   6.449  15.925  0.00  0.00    +0.000 A 
ATOM     24  C   UNL     1       5.757   5.413  15.188  0.00  0.00    +0.000 A 
ATOM     25  C   UNL     1       5.390   4.245  15.800  0.00  0.00    +0.000 A 
ATOM     26  O   UNL     1       4.582   4.500  16.859  0.00  0.00    +0.000 OA
ENDBRANCH  21  22
ENDBRANCH  17  20
ENDBRANCH   1  18
TORSDOF 3
ENDMDL
MODEL 9
REMARK VINA RESULT:      -7.4      6.253      9.608
REMARK  Name = 
REMARK  3 active torsions:
REMARK  status: ('A' for Active; 'I' for Inactive)
REMARK    1  A    between atoms: C_2  and  C_3
REMARK    2  A    between atoms: C_4  and  C_5
REMARK    3  A    between atoms: N_10  and  C_11
REMARK                            x       y       z     vdW  Elec       q    Type
REMARK                         _______ _______ _______ _____ _____    ______ ____
ROOT
ATOM      1  C   UNL     1       1.469   9.942  18.109  0.00  0.00    +0.000 A 
ATOM      2  C   UNL     1       0.101  10.004  18.384  0.00  0.00    +0.000 A 
ATOM      3  C   UNL     1      -0.516  11.228  18.675  0.00  0.00    +0.000 A 
ATOM      4  C   UNL     1       0.221  12.410  18.693  0.00  0.00    +0.000 A 
ATOM      5  N   UNL     1      -0.435  13.617  18.950  0.00  0.00    +0.000 NA
ATOM      6  C   UNL     1       0.247  14.718  18.905  0.00  0.00    +0.000 A 
ATOM      7  N   UNL     1       1.594  14.773  18.610  0.00  0.00    +0.000 N 
ATOM      8  C   UNL     1       2.340  13.604  18.449  0.00  0.00    +0.000 A 
ATOM      9  O   UNL     1       3.563  13.579  18.323  0.00  0.00    +0.000 OA
ATOM     10  C   UNL     1       1.587  12.339  18.446  0.00  0.00    +0.000 A 
ATOM     11  C   UNL     1       2.223  11.117  18.182  0.00  0.00    +0.000 A 
ATOM     12  C   UNL     1       2.359  16.013  18.661  0.00  0.00    +0.000 C 
ATOM     13  C   UNL     1       1.522  17.274  18.543  0.00  0.00    +0.000 C 
ATOM     14  C   UNL     1       0.362  17.186  19.515  0.00  0.00    +0.000 C 
ATOM     15  C   UNL     1      -0.515  16.014  19.121  0.00  0.00    +0.000 C 
ENDROOT
BRANCH   1  18
ATOM     16  O   UNL     1       2.159   7.628  19.807  0.00  0.00    +0.000 OA
ATOM     17  C   UNL     1       2.465   7.718  18.626  0.00  0.00    +0.000 C 
ATOM     18  N   UNL     1       2.136   8.747  17.762  0.00  0.00    +0.000 N 
ATOM     19  H   UNL     1       2.303   8.601  16.774  0.00  0.00    +0.000 HD
BRANCH  17  20
ATOM     20  C   UNL     1       3.250   6.647  17.957  0.00  0.00    +0.000 C 
ATOM     21  C   UNL     1       4.327   6.959  17.220  0.00  0.00    +0.000 C 
BRANCH  21  22
ATOM     22  C   UNL     1       5.037   5.938  16.528  0.00  0.00    +0.000 A 
ATOM     23  C   UNL     1       4.792   4.572  16.478  0.00  0.00    +0.000 A 
ATOM     24  C   UNL     1       5.798   3.974  15.679  0.00  0.00    +0.000 A 
ATOM     25  C   UNL     1       6.608   4.999  15.270  0.00  0.00    +0.000 A 
ATOM     26  O   UNL     1       6.163   6.180  15.767  0.00  0.00    +0.000 OA
ENDBRANCH  21  22
ENDBRANCH  17  20
ENDBRANCH   1  18
TORSDOF 3
ENDMDL
