MODEL 1
REMARK VINA RESULT:      -6.8      0.000      0.000
REMARK  Name = 
REMARK  7 active torsions:
REMARK  status: ('A' for Active; 'I' for Inactive)
REMARK    1  A    between atoms: C_2  and  C_3
REMARK    2  A    between atoms: C_3  and  N_4
REMARK    3  A    between atoms: C_7  and  O_8
REMARK    4  A    between atoms: N_13  and  C_14
REMARK    5  A    between atoms: C_14  and  C_15
REMARK    6  A    between atoms: C_18  and  O_19
REMARK    7  A    between atoms: O_19  and  C_20
REMARK                            x       y       z     vdW  Elec       q    Type
REMARK                         _______ _______ _______ _____ _____    ______ ____
ROOT
ATOM      1  N   UNL     1       2.981   2.289  18.680  0.00  0.00    +0.000 NA
ATOM      2  C   UNL     1       4.113   2.947  19.349  0.00  0.00    +0.000 C 
ATOM      3  C   UNL     1       4.316   4.430  18.956  0.00  0.00    +0.000 C 
ATOM      4  C   UNL     1       3.077   5.268  19.387  0.00  0.00    +0.000 C 
ATOM      5  C   UNL     1       1.993   5.421  18.317  0.00  0.00    +0.000 C 
ATOM      6  C   UNL     1       1.506   4.131  17.663  0.00  0.00    +0.000 C 
ATOM      7  C   UNL     1       2.568   3.026  17.455  0.00  0.00    +0.000 C 
ATOM      8  C   UNL     1       3.819   3.605  16.715  0.00  0.00    +0.000 C 
ATOM      9  N   UNL     1       4.591   4.609  17.499  0.00  0.00    +0.000 NA
ENDROOT
BRANCH   4  10
ATOM     10  O   UNL     1       3.506   6.588  19.747  0.00  0.00    +0.000 OA
ATOM     11  H   UNL     1       4.394   6.686  19.364  0.00  0.00    +0.000 HD
ENDBRANCH   4  10
BRANCH   1  12
ATOM     12  C   UNL     1       1.879   1.935  19.576  0.00  0.00    +0.000 C 
BRANCH  12  14
ATOM     13  C   UNL     1       1.322   2.974  21.794  0.00  0.00    +0.000 C 
ATOM     14  C   UNL     1       2.158   2.268  21.015  0.00  0.00    +0.000 C 
ENDBRANCH  12  14
ENDBRANCH   1  12
BRANCH   9  15
ATOM     15  C   UNL     1       6.035   4.503  17.221  0.00  0.00    +0.000 C 
BRANCH  15  16
ATOM     16  C   UNL     1       6.849   5.706  17.654  0.00  0.00    +0.000 A 
ATOM     17  C   UNL     1       6.776   6.920  16.960  0.00  0.00    +0.000 A 
ATOM     18  C   UNL     1       7.493   8.035  17.407  0.00  0.00    +0.000 A 
ATOM     19  C   UNL     1       8.277   7.959  18.560  0.00  0.00    +0.000 A 
ATOM     20  C   UNL     1       8.378   6.746  19.240  0.00  0.00    +0.000 A 
ATOM     21  C   UNL     1       7.668   5.629  18.790  0.00  0.00    +0.000 A 
BRANCH  19  22
ATOM     22  O   UNL     1       8.935   9.107  18.909  0.00  0.00    +0.000 OA
ATOM     23  C   UNL     1       8.666  10.238  18.086  0.00  0.00    +0.000 C 
ENDBRANCH  19  22
ENDBRANCH  15  16
ENDBRANCH   9  15
TORSDOF 6
ENDMDL
MODEL 2
REMARK VINA RESULT:      -6.8      0.180      1.043
REMARK  Name = 
REMARK  7 active torsions:
REMARK  status: ('A' for Active; 'I' for Inactive)
REMARK    1  A    between atoms: C_2  and  C_3
REMARK    2  A    between atoms: C_3  and  N_4
REMARK    3  A    between atoms: C_7  and  O_8
REMARK    4  A    between atoms: N_13  and  C_14
REMARK    5  A    between atoms: C_14  and  C_15
REMARK    6  A    between atoms: C_18  and  O_19
REMARK    7  A    between atoms: O_19  and  C_20
REMARK                            x       y       z     vdW  Elec       q    Type
REMARK                         _______ _______ _______ _____ _____    ______ ____
ROOT
ATOM      1  N   UNL     1       3.120   2.298  18.687  0.00  0.00    +0.000 NA
ATOM      2  C   UNL     1       4.207   2.988  19.397  0.00  0.00    +0.000 C 
ATOM      3  C   UNL     1       4.366   4.483  19.028  0.00  0.00    +0.000 C 
ATOM      4  C   UNL     1       3.085   5.269  19.431  0.00  0.00    +0.000 C 
ATOM      5  C   UNL     1       2.028   5.396  18.331  0.00  0.00    +0.000 C 
ATOM      6  C   UNL     1       1.608   4.097  17.648  0.00  0.00    +0.000 C 
ATOM      7  C   UNL     1       2.716   3.035  17.459  0.00  0.00    +0.000 C 
ATOM      8  C   UNL     1       3.966   3.668  16.763  0.00  0.00    +0.000 C 
ATOM      9  N   UNL     1       4.677   4.691  17.582  0.00  0.00    +0.000 NA
ENDROOT
BRANCH   4  10
ATOM     10  O   UNL     1       3.454   6.600  19.819  0.00  0.00    +0.000 OA
ATOM     11  H   UNL     1       2.618   7.053  20.019  0.00  0.00    +0.000 HD
ENDBRANCH   4  10
BRANCH   1  12
ATOM     12  C   UNL     1       2.007   1.892  19.545  0.00  0.00    +0.000 C 
BRANCH  12  14
ATOM     13  C   UNL     1       1.279   2.911  21.723  0.00  0.00    +0.000 C 
ATOM     14  C   UNL     1       2.202   2.273  20.987  0.00  0.00    +0.000 C 
ENDBRANCH  12  14
ENDBRANCH   1  12
BRANCH   9  15
ATOM     15  C   UNL     1       6.131   4.641  17.345  0.00  0.00    +0.000 C 
BRANCH  15  16
ATOM     16  C   UNL     1       6.884   5.878  17.795  0.00  0.00    +0.000 A 
ATOM     17  C   UNL     1       7.738   5.844  18.904  0.00  0.00    +0.000 A 
ATOM     18  C   UNL     1       8.465   6.981  19.271  0.00  0.00    +0.000 A 
ATOM     19  C   UNL     1       8.366   8.159  18.528  0.00  0.00    +0.000 A 
ATOM     20  C   UNL     1       7.495   8.208  17.440  0.00  0.00    +0.000 A 
ATOM     21  C   UNL     1       6.761   7.075  17.076  0.00  0.00    +0.000 A 
BRANCH  19  22
ATOM     22  O   UNL     1       9.120   9.210  18.973  0.00  0.00    +0.000 OA
ATOM     23  C   UNL     1       8.858  10.459  18.340  0.00  0.00    +0.000 C 
ENDBRANCH  19  22
ENDBRANCH  15  16
ENDBRANCH   9  15
TORSDOF 6
ENDMDL
MODEL 3
REMARK VINA RESULT:      -6.6      2.238      3.646
REMARK  Name = 
REMARK  7 active torsions:
REMARK  status: ('A' for Active; 'I' for Inactive)
REMARK    1  A    between atoms: C_2  and  C_3
REMARK    2  A    between atoms: C_3  and  N_4
REMARK    3  A    between atoms: C_7  and  O_8
REMARK    4  A    between atoms: N_13  and  C_14
REMARK    5  A    between atoms: C_14  and  C_15
REMARK    6  A    between atoms: C_18  and  O_19
REMARK    7  A    between atoms: O_19  and  C_20
REMARK                            x       y       z     vdW  Elec       q    Type
REMARK                         _______ _______ _______ _____ _____    ______ ____
ROOT
ATOM      1  N   UNL     1       2.419   5.835  19.903  0.00  0.00    +0.000 NA
ATOM      2  C   UNL     1       2.047   5.441  18.536  0.00  0.00    +0.000 C 
ATOM      3  C   UNL     1       1.958   3.912  18.312  0.00  0.00    +0.000 C 
ATOM      4  C   UNL     1       0.834   3.309  19.204  0.00  0.00    +0.000 C 
ATOM      5  C   UNL     1       1.295   2.802  20.573  0.00  0.00    +0.000 C 
ATOM      6  C   UNL     1       2.113   3.779  21.413  0.00  0.00    +0.000 C 
ATOM      7  C   UNL     1       3.068   4.716  20.636  0.00  0.00    +0.000 C 
ATOM      8  C   UNL     1       3.982   3.886  19.675  0.00  0.00    +0.000 C 
ATOM      9  N   UNL     1       3.256   3.216  18.558  0.00  0.00    +0.000 NA
ENDROOT
BRANCH   4  10
ATOM     10  O   UNL     1       0.238   2.199  18.520  0.00  0.00    +0.000 OA
ATOM     11  H   UNL     1      -0.071   2.553  17.670  0.00  0.00    +0.000 HD
ENDBRANCH   4  10
BRANCH   1  12
ATOM     12  C   UNL     1       1.352   6.508  20.644  0.00  0.00    +0.000 C 
BRANCH  12  14
ATOM     13  C   UNL     1       1.020   8.764  21.699  0.00  0.00    +0.000 C 
ATOM     14  C   UNL     1       1.536   7.998  20.724  0.00  0.00    +0.000 C 
ENDBRANCH  12  14
ENDBRANCH   1  12
BRANCH   9  15
ATOM     15  C   UNL     1       4.077   3.188  17.334  0.00  0.00    +0.000 C 
BRANCH  15  16
ATOM     16  C   UNL     1       5.056   4.338  17.207  0.00  0.00    +0.000 A 
ATOM     17  C   UNL     1       6.287   4.321  17.874  0.00  0.00    +0.000 A 
ATOM     18  C   UNL     1       7.200   5.366  17.702  0.00  0.00    +0.000 A 
ATOM     19  C   UNL     1       6.907   6.432  16.849  0.00  0.00    +0.000 A 
ATOM     20  C   UNL     1       5.671   6.471  16.205  0.00  0.00    +0.000 A 
ATOM     21  C   UNL     1       4.754   5.431  16.382  0.00  0.00    +0.000 A 
BRANCH  19  22
ATOM     22  O   UNL     1       7.869   7.400  16.752  0.00  0.00    +0.000 OA
ATOM     23  C   UNL     1       7.931   8.309  17.848  0.00  0.00    +0.000 C 
ENDBRANCH  19  22
ENDBRANCH  15  16
ENDBRANCH   9  15
TORSDOF 6
ENDMDL
MODEL 4
REMARK VINA RESULT:      -6.5      2.192      3.426
REMARK  Name = 
REMARK  7 active torsions:
REMARK  status: ('A' for Active; 'I' for Inactive)
REMARK    1  A    between atoms: C_2  and  C_3
REMARK    2  A    between atoms: C_3  and  N_4
REMARK    3  A    between atoms: C_7  and  O_8
REMARK    4  A    between atoms: N_13  and  C_14
REMARK    5  A    between atoms: C_14  and  C_15
REMARK    6  A    between atoms: C_18  and  O_19
REMARK    7  A    between atoms: O_19  and  C_20
REMARK                            x       y       z     vdW  Elec       q    Type
REMARK                         _______ _______ _______ _____ _____    ______ ____
ROOT
ATOM      1  N   UNL     1       2.402   5.778  19.768  0.00  0.00    +0.000 NA
ATOM      2  C   UNL     1       2.060   5.352  18.404  0.00  0.00    +0.000 C 
ATOM      3  C   UNL     1       2.053   3.818  18.195  0.00  0.00    +0.000 C 
ATOM      4  C   UNL     1       0.958   3.165  19.086  0.00  0.00    +0.000 C 
ATOM      5  C   UNL     1       1.436   2.696  20.463  0.00  0.00    +0.000 C 
ATOM      6  C   UNL     1       2.196   3.723  21.297  0.00  0.00    +0.000 C 
ATOM      7  C   UNL     1       3.105   4.702  20.517  0.00  0.00    +0.000 C 
ATOM      8  C   UNL     1       4.067   3.912  19.569  0.00  0.00    +0.000 C 
ATOM      9  N   UNL     1       3.385   3.194  18.455  0.00  0.00    +0.000 NA
ENDROOT
BRANCH   4  10
ATOM     10  O   UNL     1       0.425   2.018  18.410  0.00  0.00    +0.000 OA
ATOM     11  H   UNL     1       1.036   1.290  18.613  0.00  0.00    +0.000 HD
ENDBRANCH   4  10
BRANCH   1  12
ATOM     12  C   UNL     1       1.296   6.401  20.497  0.00  0.00    +0.000 C 
BRANCH  12  14
ATOM     13  C   UNL     1       0.664   8.634  21.458  0.00  0.00    +0.000 C 
ATOM     14  C   UNL     1       1.569   7.830  20.876  0.00  0.00    +0.000 C 
ENDBRANCH  12  14
ENDBRANCH   1  12
BRANCH   9  15
ATOM     15  C   UNL     1       4.214   3.198  17.236  0.00  0.00    +0.000 C 
BRANCH  15  16
ATOM     16  C   UNL     1       5.156   4.379  17.120  0.00  0.00    +0.000 A 
ATOM     17  C   UNL     1       4.774   5.551  16.455  0.00  0.00    +0.000 A 
ATOM     18  C   UNL     1       5.638   6.649  16.406  0.00  0.00    +0.000 A 
ATOM     19  C   UNL     1       6.884   6.602  17.033  0.00  0.00    +0.000 A 
ATOM     20  C   UNL     1       7.284   5.429  17.672  0.00  0.00    +0.000 A 
ATOM     21  C   UNL     1       6.425   4.326  17.715  0.00  0.00    +0.000 A 
BRANCH  19  22
ATOM     22  O   UNL     1       7.650   7.731  16.925  0.00  0.00    +0.000 OA
ATOM     23  C   UNL     1       8.182   8.226  18.150  0.00  0.00    +0.000 C 
ENDBRANCH  19  22
ENDBRANCH  15  16
ENDBRANCH   9  15
TORSDOF 6
ENDMDL
MODEL 5
REMARK VINA RESULT:      -6.1      3.180      6.178
REMARK  Name = 
REMARK  7 active torsions:
REMARK  status: ('A' for Active; 'I' for Inactive)
REMARK    1  A    between atoms: C_2  and  C_3
REMARK    2  A    between atoms: C_3  and  N_4
REMARK    3  A    between atoms: C_7  and  O_8
REMARK    4  A    between atoms: N_13  and  C_14
REMARK    5  A    between atoms: C_14  and  C_15
REMARK    6  A    between atoms: C_18  and  O_19
REMARK    7  A    between atoms: O_19  and  C_20
REMARK                            x       y       z     vdW  Elec       q    Type
REMARK                         _______ _______ _______ _____ _____    ______ ____
ROOT
ATOM      1  N   UNL     1       5.038   4.506  15.890  0.00  0.00    +0.000 NA
ATOM      2  C   UNL     1       4.995   5.913  15.466  0.00  0.00    +0.000 C 
ATOM      3  C   UNL     1       5.231   6.933  16.605  0.00  0.00    +0.000 C 
ATOM      4  C   UNL     1       6.662   6.753  17.192  0.00  0.00    +0.000 C 
ATOM      5  C   UNL     1       6.756   5.808  18.393  0.00  0.00    +0.000 C 
ATOM      6  C   UNL     1       6.124   4.430  18.217  0.00  0.00    +0.000 C 
ATOM      7  C   UNL     1       4.839   4.372  17.358  0.00  0.00    +0.000 C 
ATOM      8  C   UNL     1       3.794   5.419  17.868  0.00  0.00    +0.000 C 
ATOM      9  N   UNL     1       4.204   6.840  17.686  0.00  0.00    +0.000 NA
ENDROOT
BRANCH   4  10
ATOM     10  O   UNL     1       7.158   8.029  17.617  0.00  0.00    +0.000 OA
ATOM     11  H   UNL     1       6.445   8.661  17.428  0.00  0.00    +0.000 HD
ENDBRANCH   4  10
BRANCH   1  12
ATOM     12  C   UNL     1       6.177   3.755  15.361  0.00  0.00    +0.000 C 
BRANCH  12  14
ATOM     13  C   UNL     1       6.153   3.558  12.857  0.00  0.00    +0.000 C 
ATOM     14  C   UNL     1       6.570   4.177  13.973  0.00  0.00    +0.000 C 
ENDBRANCH  12  14
ENDBRANCH   1  12
BRANCH   9  15
ATOM     15  C   UNL     1       3.041   7.692  17.378  0.00  0.00    +0.000 C 
BRANCH  15  16
ATOM     16  C   UNL     1       2.257   8.148  18.593  0.00  0.00    +0.000 A 
ATOM     17  C   UNL     1       1.489   9.319  18.563  0.00  0.00    +0.000 A 
ATOM     18  C   UNL     1       0.730   9.694  19.676  0.00  0.00    +0.000 A 
ATOM     19  C   UNL     1       0.712   8.901  20.825  0.00  0.00    +0.000 A 
ATOM     20  C   UNL     1       1.497   7.750  20.872  0.00  0.00    +0.000 A 
ATOM     21  C   UNL     1       2.263   7.376  19.764  0.00  0.00    +0.000 A 
BRANCH  19  22
ATOM     22  O   UNL     1      -0.064   9.360  21.854  0.00  0.00    +0.000 OA
ATOM     23  C   UNL     1      -0.245  10.772  21.897  0.00  0.00    +0.000 C 
ENDBRANCH  19  22
ENDBRANCH  15  16
ENDBRANCH   9  15
TORSDOF 6
ENDMDL
MODEL 6
REMARK VINA RESULT:      -6.1      2.980      6.049
REMARK  Name = 
REMARK  7 active torsions:
REMARK  status: ('A' for Active; 'I' for Inactive)
REMARK    1  A    between atoms: C_2  and  C_3
REMARK    2  A    between atoms: C_3  and  N_4
REMARK    3  A    between atoms: C_7  and  O_8
REMARK    4  A    between atoms: N_13  and  C_14
REMARK    5  A    between atoms: C_14  and  C_15
REMARK    6  A    between atoms: C_18  and  O_19
REMARK    7  A    between atoms: O_19  and  C_20
REMARK                            x       y       z     vdW  Elec       q    Type
REMARK                         _______ _______ _______ _____ _____    ______ ____
ROOT
ATOM      1  N   UNL     1       6.028   4.395  15.584  0.00  0.00    +0.000 NA
ATOM      2  C   UNL     1       5.130   5.556  15.487  0.00  0.00    +0.000 C 
ATOM      3  C   UNL     1       5.046   6.411  16.774  0.00  0.00    +0.000 C 
ATOM      4  C   UNL     1       6.438   7.029  17.094  0.00  0.00    +0.000 C 
ATOM      5  C   UNL     1       7.316   6.199  18.034  0.00  0.00    +0.000 C 
ATOM      6  C   UNL     1       7.508   4.733  17.657  0.00  0.00    +0.000 C 
ATOM      7  C   UNL     1       6.296   4.030  17.001  0.00  0.00    +0.000 C 
ATOM      8  C   UNL     1       5.012   4.233  17.873  0.00  0.00    +0.000 C 
ATOM      9  N   UNL     1       4.530   5.641  17.946  0.00  0.00    +0.000 NA
ENDROOT
BRANCH   4  10
ATOM     10  O   UNL     1       6.252   8.310  17.709  0.00  0.00    +0.000 OA
ATOM     11  H   UNL     1       5.465   8.690  17.285  0.00  0.00    +0.000 HD
ENDBRANCH   4  10
BRANCH   1  12
ATOM     12  C   UNL     1       7.223   4.490  14.745  0.00  0.00    +0.000 C 
BRANCH  12  14
ATOM     13  C   UNL     1       6.304   3.527  12.615  0.00  0.00    +0.000 C 
ATOM     14  C   UNL     1       6.912   4.526  13.275  0.00  0.00    +0.000 C 
ENDBRANCH  12  14
ENDBRANCH   1  12
BRANCH   9  15
ATOM     15  C   UNL     1       3.058   5.696  18.002  0.00  0.00    +0.000 C 
BRANCH  15  16
ATOM     16  C   UNL     1       2.499   6.974  18.595  0.00  0.00    +0.000 A 
ATOM     17  C   UNL     1       2.256   8.099  17.797  0.00  0.00    +0.000 A 
ATOM     18  C   UNL     1       1.689   9.251  18.351  0.00  0.00    +0.000 A 
ATOM     19  C   UNL     1       1.339   9.290  19.702  0.00  0.00    +0.000 A 
ATOM     20  C   UNL     1       1.604   8.185  20.509  0.00  0.00    +0.000 A 
ATOM     21  C   UNL     1       2.179   7.035  19.959  0.00  0.00    +0.000 A 
BRANCH  19  22
ATOM     22  O   UNL     1       0.791  10.465  20.142  0.00  0.00    +0.000 OA
ATOM     23  C   UNL     1       0.391  10.476  21.509  0.00  0.00    +0.000 C 
ENDBRANCH  19  22
ENDBRANCH  15  16
ENDBRANCH   9  15
TORSDOF 6
ENDMDL
MODEL 7
REMARK VINA RESULT:      -6.0      3.175      6.187
REMARK  Name = 
REMARK  7 active torsions:
REMARK  status: ('A' for Active; 'I' for Inactive)
REMARK    1  A    between atoms: C_2  and  C_3
REMARK    2  A    between atoms: C_3  and  N_4
REMARK    3  A    between atoms: C_7  and  O_8
REMARK    4  A    between atoms: N_13  and  C_14
REMARK    5  A    between atoms: C_14  and  C_15
REMARK    6  A    between atoms: C_18  and  O_19
REMARK    7  A    between atoms: O_19  and  C_20
REMARK                            x       y       z     vdW  Elec       q    Type
REMARK                         _______ _______ _______ _____ _____    ______ ____
ROOT
ATOM      1  N   UNL     1       4.915   4.484  15.950  0.00  0.00    +0.000 NA
ATOM      2  C   UNL     1       5.034   5.892  15.541  0.00  0.00    +0.000 C 
ATOM      3  C   UNL     1       5.255   6.881  16.711  0.00  0.00    +0.000 C 
ATOM      4  C   UNL     1       6.604   6.572  17.422  0.00  0.00    +0.000 C 
ATOM      5  C   UNL     1       6.506   5.617  18.614  0.00  0.00    +0.000 C 
ATOM      6  C   UNL     1       5.773   4.302  18.365  0.00  0.00    +0.000 C 
ATOM      7  C   UNL     1       4.572   4.362  17.392  0.00  0.00    +0.000 C 
ATOM      8  C   UNL     1       3.581   5.495  17.819  0.00  0.00    +0.000 C 
ATOM      9  N   UNL     1       4.129   6.875  17.693  0.00  0.00    +0.000 NA
ENDROOT
BRANCH   4  10
ATOM     10  O   UNL     1       7.170   7.798  17.906  0.00  0.00    +0.000 OA
ATOM     11  H   UNL     1       8.091   7.586  18.135  0.00  0.00    +0.000 HD
ENDBRANCH   4  10
BRANCH   1  12
ATOM     12  C   UNL     1       6.026   3.638  15.516  0.00  0.00    +0.000 C 
BRANCH  12  14
ATOM     13  C   UNL     1       6.172   3.555  13.010  0.00  0.00    +0.000 C 
ATOM     14  C   UNL     1       6.596   4.045  14.186  0.00  0.00    +0.000 C 
ENDBRANCH  12  14
ENDBRANCH   1  12
BRANCH   9  15
ATOM     15  C   UNL     1       3.078   7.828  17.292  0.00  0.00    +0.000 C 
BRANCH  15  16
ATOM     16  C   UNL     1       2.219   8.333  18.435  0.00  0.00    +0.000 A 
ATOM     17  C   UNL     1       2.196   7.676  19.671  0.00  0.00    +0.000 A 
ATOM     18  C   UNL     1       1.438   8.187  20.730  0.00  0.00    +0.000 A 
ATOM     19  C   UNL     1       0.710   9.368  20.577  0.00  0.00    +0.000 A 
ATOM     20  C   UNL     1       0.705  10.012  19.340  0.00  0.00    +0.000 A 
ATOM     21  C   UNL     1       1.455   9.498  18.278  0.00  0.00    +0.000 A 
BRANCH  19  22
ATOM     22  O   UNL     1       0.006   9.781  21.675  0.00  0.00    +0.000 OA
ATOM     23  C   UNL     1       0.463   9.265  22.921  0.00  0.00    +0.000 C 
ENDBRANCH  19  22
ENDBRANCH  15  16
ENDBRANCH   9  15
TORSDOF 6
ENDMDL
MODEL 8
REMARK VINA RESULT:      -6.0      2.327      6.667
REMARK  Name = 
REMARK  7 active torsions:
REMARK  status: ('A' for Active; 'I' for Inactive)
REMARK    1  A    between atoms: C_2  and  C_3
REMARK    2  A    between atoms: C_3  and  N_4
REMARK    3  A    between atoms: C_7  and  O_8
REMARK    4  A    between atoms: N_13  and  C_14
REMARK    5  A    between atoms: C_14  and  C_15
REMARK    6  A    between atoms: C_18  and  O_19
REMARK    7  A    between atoms: O_19  and  C_20
REMARK                            x       y       z     vdW  Elec       q    Type
REMARK                         _______ _______ _______ _____ _____    ______ ____
ROOT
ATOM      1  N   UNL     1       5.779   4.862  15.021  0.00  0.00    +0.000 NA
ATOM      2  C   UNL     1       5.179   6.197  15.161  0.00  0.00    +0.000 C 
ATOM      3  C   UNL     1       5.382   6.848  16.550  0.00  0.00    +0.000 C 
ATOM      4  C   UNL     1       6.898   7.079  16.813  0.00  0.00    +0.000 C 
ATOM      5  C   UNL     1       7.610   5.942  17.550  0.00  0.00    +0.000 C 
ATOM      6  C   UNL     1       7.423   4.543  16.969  0.00  0.00    +0.000 C 
ATOM      7  C   UNL     1       6.040   4.240  16.346  0.00  0.00    +0.000 C 
ATOM      8  C   UNL     1       4.899   4.596  17.355  0.00  0.00    +0.000 C 
ATOM      9  N   UNL     1       4.772   6.051  17.656  0.00  0.00    +0.000 NA
ENDROOT
BRANCH   4  10
ATOM     10  O   UNL     1       7.061   8.264  17.604  0.00  0.00    +0.000 OA
ATOM     11  H   UNL     1       7.997   8.275  17.865  0.00  0.00    +0.000 HD
ENDBRANCH   4  10
BRANCH   1  12
ATOM     12  C   UNL     1       6.907   4.806  14.091  0.00  0.00    +0.000 C 
BRANCH  12  14
ATOM     13  C   UNL     1       5.412   3.474  12.574  0.00  0.00    +0.000 C 
ATOM     14  C   UNL     1       6.612   4.009  12.851  0.00  0.00    +0.000 C 
ENDBRANCH  12  14
ENDBRANCH   1  12
BRANCH   9  15
ATOM     15  C   UNL     1       3.362   6.429  17.860  0.00  0.00    +0.000 C 
BRANCH  15  16
ATOM     16  C   UNL     1       2.598   5.522  18.804  0.00  0.00    +0.000 A 
ATOM     17  C   UNL     1       1.818   4.463  18.321  0.00  0.00    +0.000 A 
ATOM     18  C   UNL     1       1.164   3.605  19.210  0.00  0.00    +0.000 A 
ATOM     19  C   UNL     1       1.293   3.777  20.590  0.00  0.00    +0.000 A 
ATOM     20  C   UNL     1       2.044   4.846  21.077  0.00  0.00    +0.000 A 
ATOM     21  C   UNL     1       2.692   5.711  20.190  0.00  0.00    +0.000 A 
BRANCH  19  22
ATOM     22  O   UNL     1       0.613   2.881  21.369  0.00  0.00    +0.000 OA
ATOM     23  C   UNL     1       1.427   2.031  22.171  0.00  0.00    +0.000 C 
ENDBRANCH  19  22
ENDBRANCH  15  16
ENDBRANCH   9  15
TORSDOF 6
ENDMDL
MODEL 9
REMARK VINA RESULT:      -5.9      1.929      2.905
REMARK  Name = 
REMARK  7 active torsions:
REMARK  status: ('A' for Active; 'I' for Inactive)
REMARK    1  A    between atoms: C_2  and  C_3
REMARK    2  A    between atoms: C_3  and  N_4
REMARK    3  A    between atoms: C_7  and  O_8
REMARK    4  A    between atoms: N_13  and  C_14
REMARK    5  A    between atoms: C_14  and  C_15
REMARK    6  A    between atoms: C_18  and  O_19
REMARK    7  A    between atoms: O_19  and  C_20
REMARK                            x       y       z     vdW  Elec       q    Type
REMARK                         _______ _______ _______ _____ _____    ______ ____
ROOT
ATOM      1  N   UNL     1       2.582   5.345  19.738  0.00  0.00    +0.000 NA
ATOM      2  C   UNL     1       2.420   5.212  18.283  0.00  0.00    +0.000 C 
ATOM      3  C   UNL     1       2.798   3.821  17.721  0.00  0.00    +0.000 C 
ATOM      4  C   UNL     1       1.855   2.733  18.313  0.00  0.00    +0.000 C 
ATOM      5  C   UNL     1       2.368   2.052  19.583  0.00  0.00    +0.000 C 
ATOM      6  C   UNL     1       2.813   2.978  20.712  0.00  0.00    +0.000 C 
ATOM      7  C   UNL     1       3.491   4.301  20.284  0.00  0.00    +0.000 C 
ATOM      8  C   UNL     1       4.661   4.015  19.285  0.00  0.00    +0.000 C 
ATOM      9  N   UNL     1       4.229   3.468  17.967  0.00  0.00    +0.000 NA
ENDROOT
BRANCH   4  10
ATOM     10  O   UNL     1       1.652   1.706  17.333  0.00  0.00    +0.000 OA
ATOM     11  H   UNL     1       2.403   1.097  17.436  0.00  0.00    +0.000 HD
ENDBRANCH   4  10
BRANCH   1  12
ATOM     12  C   UNL     1       1.324   5.497  20.470  0.00  0.00    +0.000 C 
BRANCH  12  14
ATOM     13  C   UNL     1       1.711   7.979  20.452  0.00  0.00    +0.000 C 
ATOM     14  C   UNL     1       1.088   6.901  20.955  0.00  0.00    +0.000 C 
ENDBRANCH  12  14
ENDBRANCH   1  12
BRANCH   9  15
ATOM     15  C   UNL     1       5.088   3.967  16.878  0.00  0.00    +0.000 C 
BRANCH  15  16
ATOM     16  C   UNL     1       6.048   5.066  17.288  0.00  0.00    +0.000 A 
ATOM     17  C   UNL     1       5.806   6.404  16.952  0.00  0.00    +0.000 A 
ATOM     18  C   UNL     1       6.676   7.410  17.385  0.00  0.00    +0.000 A 
ATOM     19  C   UNL     1       7.784   7.099  18.175  0.00  0.00    +0.000 A 
ATOM     20  C   UNL     1       8.047   5.767  18.489  0.00  0.00    +0.000 A 
ATOM     21  C   UNL     1       7.184   4.759  18.050  0.00  0.00    +0.000 A 
BRANCH  19  22
ATOM     22  O   UNL     1       8.568   8.159  18.545  0.00  0.00    +0.000 OA
ATOM     23  C   UNL     1       8.236   9.403  17.937  0.00  0.00    +0.000 C 
ENDBRANCH  19  22
ENDBRANCH  15  16
ENDBRANCH   9  15
TORSDOF 6
ENDMDL
