MODEL 1
REMARK VINA RESULT:      -6.0      0.000      0.000
REMARK  Name = 
REMARK  3 active torsions:
REMARK  status: ('A' for Active; 'I' for Inactive)
REMARK    1  A    between atoms: C_1  and  C_2
REMARK    2  A    between atoms: C_2  and  S_3
REMARK    3  A    between atoms: S_3  and  C_4
REMARK                            x       y       z     vdW  Elec       q    Type
REMARK                         _______ _______ _______ _____ _____    ______ ____
ROOT
ATOM      1  C   UNL     1       3.219   6.589  18.162  0.00  0.00    +0.000 A 
ATOM      2  N   UNL     1       4.105   7.076  17.270  0.00  0.00    +0.000 NA
ATOM      3  C   UNL     1       4.838   6.196  16.573  0.00  0.00    +0.000 A 
ATOM      4  N   UNL     1       4.792   4.862  16.635  0.00  0.00    +0.000 NA
ATOM      5  C   UNL     1       3.899   4.419  17.536  0.00  0.00    +0.000 A 
ATOM      6  S   UNL     1       3.658   2.730  17.771  0.00  0.00    +0.000 S 
ATOM      7  C   UNL     1       2.512   3.037  18.945  0.00  0.00    +0.000 A 
ATOM      8  C   UNL     1       2.300   4.367  19.186  0.00  0.00    +0.000 A 
ATOM      9  C   UNL     1       3.085   5.209  18.351  0.00  0.00    +0.000 A 
ATOM     10  C   UNL     1       1.288   4.553  20.259  0.00  0.00    +0.000 C 
ATOM     11  C   UNL     1       1.190   3.122  20.874  0.00  0.00    +0.000 C 
ATOM     12  C   UNL     1       1.687   2.132  19.778  0.00  0.00    +0.000 C 
ENDROOT
BRANCH   1  13
ATOM     13  S   UNL     1       2.230   7.713  19.103  0.00  0.00    +0.000 S 
BRANCH  13  15
ATOM     14  C   UNL     1       0.828   9.930  18.341  0.00  0.00    +0.000 C 
ATOM     15  C   UNL     1       1.886   8.966  17.830  0.00  0.00    +0.000 C 
ENDBRANCH  13  15
ENDBRANCH   1  13
TORSDOF 2
ENDMDL
MODEL 2
REMARK VINA RESULT:      -5.8      2.294      5.061
REMARK  Name = 
REMARK  3 active torsions:
REMARK  status: ('A' for Active; 'I' for Inactive)
REMARK    1  A    between atoms: C_1  and  C_2
REMARK    2  A    between atoms: C_2  and  S_3
REMARK    3  A    between atoms: S_3  and  C_4
REMARK                            x       y       z     vdW  Elec       q    Type
REMARK                         _______ _______ _______ _____ _____    ______ ____
ROOT
ATOM      1  C   UNL     1       2.895   4.372  19.812  0.00  0.00    +0.000 A 
ATOM      2  N   UNL     1       2.088   4.841  20.786  0.00  0.00    +0.000 NA
ATOM      3  C   UNL     1       1.769   6.143  20.761  0.00  0.00    +0.000 A 
ATOM      4  N   UNL     1       2.140   7.059  19.862  0.00  0.00    +0.000 NA
ATOM      5  C   UNL     1       2.944   6.552  18.912  0.00  0.00    +0.000 A 
ATOM      6  S   UNL     1       3.531   7.552  17.638  0.00  0.00    +0.000 S 
ATOM      7  C   UNL     1       4.368   6.264  16.986  0.00  0.00    +0.000 A 
ATOM      8  C   UNL     1       4.238   5.097  17.691  0.00  0.00    +0.000 A 
ATOM      9  C   UNL     1       3.382   5.229  18.819  0.00  0.00    +0.000 A 
ATOM     10  C   UNL     1       5.033   4.010  17.061  0.00  0.00    +0.000 C 
ATOM     11  C   UNL     1       5.946   4.799  16.070  0.00  0.00    +0.000 C 
ATOM     12  C   UNL     1       5.229   6.153  15.786  0.00  0.00    +0.000 C 
ENDROOT
BRANCH   1  13
ATOM     13  S   UNL     1       3.342   2.661  19.805  0.00  0.00    +0.000 S 
BRANCH  13  15
ATOM     14  C   UNL     1       0.830   2.359  18.777  0.00  0.00    +0.000 C 
ATOM     15  C   UNL     1       2.284   2.069  18.448  0.00  0.00    +0.000 C 
ENDBRANCH  13  15
ENDBRANCH   1  13
TORSDOF 2
ENDMDL
MODEL 3
REMARK VINA RESULT:      -5.8      2.216      3.829
REMARK  Name = 
REMARK  3 active torsions:
REMARK  status: ('A' for Active; 'I' for Inactive)
REMARK    1  A    between atoms: C_1  and  C_2
REMARK    2  A    between atoms: C_2  and  S_3
REMARK    3  A    between atoms: S_3  and  C_4
REMARK                            x       y       z     vdW  Elec       q    Type
REMARK                         _______ _______ _______ _____ _____    ______ ____
ROOT
ATOM      1  C   UNL     1       2.150   5.556  19.651  0.00  0.00    +0.000 A 
ATOM      2  N   UNL     1       1.282   5.025  20.537  0.00  0.00    +0.000 NA
ATOM      3  C   UNL     1       1.164   3.690  20.574  0.00  0.00    +0.000 A 
ATOM      4  N   UNL     1       1.823   2.790  19.840  0.00  0.00    +0.000 NA
ATOM      5  C   UNL     1       2.675   3.359  18.970  0.00  0.00    +0.000 A 
ATOM      6  S   UNL     1       3.646   2.386  17.932  0.00  0.00    +0.000 S 
ATOM      7  C   UNL     1       4.323   3.752  17.252  0.00  0.00    +0.000 A 
ATOM      8  C   UNL     1       3.844   4.928  17.764  0.00  0.00    +0.000 A 
ATOM      9  C   UNL     1       2.889   4.729  18.798  0.00  0.00    +0.000 A 
ATOM     10  C   UNL     1       4.477   6.092  17.088  0.00  0.00    +0.000 C 
ATOM     11  C   UNL     1       5.145   5.429  15.843  0.00  0.00    +0.000 C 
ATOM     12  C   UNL     1       5.344   3.923  16.193  0.00  0.00    +0.000 C 
ENDROOT
BRANCH   1  13
ATOM     13  S   UNL     1       2.340   7.312  19.568  0.00  0.00    +0.000 S 
BRANCH  13  15
ATOM     14  C   UNL     1       0.693   9.153  20.733  0.00  0.00    +0.000 C 
ATOM     15  C   UNL     1       1.332   7.802  21.002  0.00  0.00    +0.000 C 
ENDBRANCH  13  15
ENDBRANCH   1  13
TORSDOF 2
ENDMDL
MODEL 4
REMARK VINA RESULT:      -5.7      2.050      4.226
REMARK  Name = 
REMARK  3 active torsions:
REMARK  status: ('A' for Active; 'I' for Inactive)
REMARK    1  A    between atoms: C_1  and  C_2
REMARK    2  A    between atoms: C_2  and  S_3
REMARK    3  A    between atoms: S_3  and  C_4
REMARK                            x       y       z     vdW  Elec       q    Type
REMARK                         _______ _______ _______ _____ _____    ______ ____
ROOT
ATOM      1  C   UNL     1       5.100   5.013  16.294  0.00  0.00    +0.000 A 
ATOM      2  N   UNL     1       5.471   6.245  15.887  0.00  0.00    +0.000 NA
ATOM      3  C   UNL     1       4.904   7.299  16.490  0.00  0.00    +0.000 A 
ATOM      4  N   UNL     1       4.008   7.291  17.481  0.00  0.00    +0.000 NA
ATOM      5  C   UNL     1       3.664   6.047  17.854  0.00  0.00    +0.000 A 
ATOM      6  S   UNL     1       2.535   5.797  19.130  0.00  0.00    +0.000 S 
ATOM      7  C   UNL     1       2.665   4.143  18.948  0.00  0.00    +0.000 A 
ATOM      8  C   UNL     1       3.522   3.755  17.954  0.00  0.00    +0.000 A 
ATOM      9  C   UNL     1       4.147   4.856  17.307  0.00  0.00    +0.000 A 
ATOM     10  C   UNL     1       3.559   2.273  17.840  0.00  0.00    +0.000 C 
ATOM     11  C   UNL     1       2.318   1.844  18.684  0.00  0.00    +0.000 C 
ATOM     12  C   UNL     1       2.019   3.019  19.664  0.00  0.00    +0.000 C 
ENDROOT
BRANCH   1  13
ATOM     13  S   UNL     1       5.822   3.592  15.527  0.00  0.00    +0.000 S 
BRANCH  13  15
ATOM     14  C   UNL     1       6.080   3.572  12.809  0.00  0.00    +0.000 C 
ATOM     15  C   UNL     1       6.512   4.363  14.031  0.00  0.00    +0.000 C 
ENDBRANCH  13  15
ENDBRANCH   1  13
TORSDOF 2
ENDMDL
MODEL 5
REMARK VINA RESULT:      -5.6      2.116      3.779
REMARK  Name = 
REMARK  3 active torsions:
REMARK  status: ('A' for Active; 'I' for Inactive)
REMARK    1  A    between atoms: C_1  and  C_2
REMARK    2  A    between atoms: C_2  and  S_3
REMARK    3  A    between atoms: S_3  and  C_4
REMARK                            x       y       z     vdW  Elec       q    Type
REMARK                         _______ _______ _______ _____ _____    ______ ____
ROOT
ATOM      1  C   UNL     1       2.595   6.921  18.923  0.00  0.00    +0.000 A 
ATOM      2  N   UNL     1       1.824   6.740  20.015  0.00  0.00    +0.000 NA
ATOM      3  C   UNL     1       1.962   5.593  20.696  0.00  0.00    +0.000 A 
ATOM      4  N   UNL     1       2.801   4.586  20.439  0.00  0.00    +0.000 NA
ATOM      5  C   UNL     1       3.548   4.804  19.344  0.00  0.00    +0.000 A 
ATOM      6  S   UNL     1       4.714   3.643  18.834  0.00  0.00    +0.000 S 
ATOM      7  C   UNL     1       5.133   4.604  17.536  0.00  0.00    +0.000 A 
ATOM      8  C   UNL     1       4.425   5.772  17.453  0.00  0.00    +0.000 A 
ATOM      9  C   UNL     1       3.500   5.932  18.521  0.00  0.00    +0.000 A 
ATOM     10  C   UNL     1       4.839   6.555  16.258  0.00  0.00    +0.000 C 
ATOM     11  C   UNL     1       5.653   5.504  15.439  0.00  0.00    +0.000 C 
ATOM     12  C   UNL     1       6.128   4.420  16.454  0.00  0.00    +0.000 C 
ENDROOT
BRANCH   1  13
ATOM     13  S   UNL     1       2.447   8.418  17.994  0.00  0.00    +0.000 S 
BRANCH  13  15
ATOM     14  C   UNL     1       0.208   9.968  18.199  0.00  0.00    +0.000 C 
ATOM     15  C   UNL     1       1.286   9.330  19.057  0.00  0.00    +0.000 C 
ENDBRANCH  13  15
ENDBRANCH   1  13
TORSDOF 2
ENDMDL
MODEL 6
REMARK VINA RESULT:      -5.6      1.963      3.769
REMARK  Name = 
REMARK  3 active torsions:
REMARK  status: ('A' for Active; 'I' for Inactive)
REMARK    1  A    between atoms: C_1  and  C_2
REMARK    2  A    between atoms: C_2  and  S_3
REMARK    3  A    between atoms: S_3  and  C_4
REMARK                            x       y       z     vdW  Elec       q    Type
REMARK                         _______ _______ _______ _____ _____    ______ ____
ROOT
ATOM      1  C   UNL     1       4.038   6.338  17.304  0.00  0.00    +0.000 A 
ATOM      2  N   UNL     1       3.753   7.655  17.359  0.00  0.00    +0.000 NA
ATOM      3  C   UNL     1       2.848   8.062  18.260  0.00  0.00    +0.000 A 
ATOM      4  N   UNL     1       2.184   7.316  19.147  0.00  0.00    +0.000 NA
ATOM      5  C   UNL     1       2.493   6.012  19.057  0.00  0.00    +0.000 A 
ATOM      6  S   UNL     1       1.769   4.865  20.119  0.00  0.00    +0.000 S 
ATOM      7  C   UNL     1       2.614   3.625  19.389  0.00  0.00    +0.000 A 
ATOM      8  C   UNL     1       3.424   4.029  18.361  0.00  0.00    +0.000 A 
ATOM      9  C   UNL     1       3.394   5.435  18.158  0.00  0.00    +0.000 A 
ATOM     10  C   UNL     1       4.118   2.864  17.750  0.00  0.00    +0.000 C 
ATOM     11  C   UNL     1       3.324   1.657  18.340  0.00  0.00    +0.000 C 
ATOM     12  C   UNL     1       2.645   2.167  19.647  0.00  0.00    +0.000 C 
ENDROOT
BRANCH   1  13
ATOM     13  S   UNL     1       5.227   5.756  16.131  0.00  0.00    +0.000 S 
BRANCH  13  15
ATOM     14  C   UNL     1       7.410   4.630  17.325  0.00  0.00    +0.000 C 
ATOM     15  C   UNL     1       6.752   5.980  17.098  0.00  0.00    +0.000 C 
ENDBRANCH  13  15
ENDBRANCH   1  13
TORSDOF 2
ENDMDL
MODEL 7
REMARK VINA RESULT:      -5.6      1.672      3.742
REMARK  Name = 
REMARK  3 active torsions:
REMARK  status: ('A' for Active; 'I' for Inactive)
REMARK    1  A    between atoms: C_1  and  C_2
REMARK    2  A    between atoms: C_2  and  S_3
REMARK    3  A    between atoms: S_3  and  C_4
REMARK                            x       y       z     vdW  Elec       q    Type
REMARK                         _______ _______ _______ _____ _____    ______ ____
ROOT
ATOM      1  C   UNL     1       4.222   5.347  17.227  0.00  0.00    +0.000 A 
ATOM      2  N   UNL     1       4.447   6.631  16.882  0.00  0.00    +0.000 NA
ATOM      3  C   UNL     1       3.797   7.586  17.562  0.00  0.00    +0.000 A 
ATOM      4  N   UNL     1       2.944   7.429  18.579  0.00  0.00    +0.000 NA
ATOM      5  C   UNL     1       2.746   6.137  18.890  0.00  0.00    +0.000 A 
ATOM      6  S   UNL     1       1.697   5.700  20.184  0.00  0.00    +0.000 S 
ATOM      7  C   UNL     1       1.991   4.081  19.903  0.00  0.00    +0.000 A 
ATOM      8  C   UNL     1       2.845   3.841  18.860  0.00  0.00    +0.000 A 
ATOM      9  C   UNL     1       3.329   5.035  18.259  0.00  0.00    +0.000 A 
ATOM     10  C   UNL     1       3.032   2.380  18.660  0.00  0.00    +0.000 C 
ATOM     11  C   UNL     1       1.875   1.776  19.516  0.00  0.00    +0.000 C 
ATOM     12  C   UNL     1       1.492   2.857  20.571  0.00  0.00    +0.000 C 
ENDROOT
BRANCH   1  13
ATOM     13  S   UNL     1       5.058   4.054  16.357  0.00  0.00    +0.000 S 
BRANCH  13  15
ATOM     14  C   UNL     1       7.455   4.618  17.538  0.00  0.00    +0.000 C 
ATOM     15  C   UNL     1       6.716   4.792  16.223  0.00  0.00    +0.000 C 
ENDBRANCH  13  15
ENDBRANCH   1  13
TORSDOF 2
ENDMDL
MODEL 8
REMARK VINA RESULT:      -5.5      1.969      3.705
REMARK  Name = 
REMARK  3 active torsions:
REMARK  status: ('A' for Active; 'I' for Inactive)
REMARK    1  A    between atoms: C_1  and  C_2
REMARK    2  A    between atoms: C_2  and  S_3
REMARK    3  A    between atoms: S_3  and  C_4
REMARK                            x       y       z     vdW  Elec       q    Type
REMARK                         _______ _______ _______ _____ _____    ______ ____
ROOT
ATOM      1  C   UNL     1       2.180   5.534  19.627  0.00  0.00    +0.000 A 
ATOM      2  N   UNL     1       1.252   5.007  20.453  0.00  0.00    +0.000 NA
ATOM      3  C   UNL     1       1.046   3.684  20.399  0.00  0.00    +0.000 A 
ATOM      4  N   UNL     1       1.669   2.789  19.626  0.00  0.00    +0.000 NA
ATOM      5  C   UNL     1       2.582   3.354  18.819  0.00  0.00    +0.000 A 
ATOM      6  S   UNL     1       3.520   2.386  17.747  0.00  0.00    +0.000 S 
ATOM      7  C   UNL     1       4.306   3.743  17.176  0.00  0.00    +0.000 A 
ATOM      8  C   UNL     1       3.889   4.914  17.750  0.00  0.00    +0.000 A 
ATOM      9  C   UNL     1       2.891   4.715  18.742  0.00  0.00    +0.000 A 
ATOM     10  C   UNL     1       4.616   6.073  17.169  0.00  0.00    +0.000 C 
ATOM     11  C   UNL     1       5.280   5.447  15.901  0.00  0.00    +0.000 C 
ATOM     12  C   UNL     1       5.368   3.913  16.158  0.00  0.00    +0.000 C 
ENDROOT
BRANCH   1  13
ATOM     13  S   UNL     1       2.486   7.275  19.664  0.00  0.00    +0.000 S 
BRANCH  13  15
ATOM     14  C   UNL     1       1.974   9.232  17.829  0.00  0.00    +0.000 C 
ATOM     15  C   UNL     1       1.706   7.761  18.093  0.00  0.00    +0.000 C 
ENDBRANCH  13  15
ENDBRANCH   1  13
TORSDOF 2
ENDMDL
MODEL 9
REMARK VINA RESULT:      -5.5      3.034      4.581
REMARK  Name = 
REMARK  3 active torsions:
REMARK  status: ('A' for Active; 'I' for Inactive)
REMARK    1  A    between atoms: C_1  and  C_2
REMARK    2  A    between atoms: C_2  and  S_3
REMARK    3  A    between atoms: S_3  and  C_4
REMARK                            x       y       z     vdW  Elec       q    Type
REMARK                         _______ _______ _______ _____ _____    ______ ____
ROOT
ATOM      1  C   UNL     1       5.874   4.410  16.263  0.00  0.00    +0.000 A 
ATOM      2  N   UNL     1       7.188   4.680  16.403  0.00  0.00    +0.000 NA
ATOM      3  C   UNL     1       7.682   4.752  17.647  0.00  0.00    +0.000 A 
ATOM      4  N   UNL     1       7.031   4.568  18.799  0.00  0.00    +0.000 NA
ATOM      5  C   UNL     1       5.726   4.304  18.615  0.00  0.00    +0.000 A 
ATOM      6  S   UNL     1       4.695   4.014  19.964  0.00  0.00    +0.000 S 
ATOM      7  C   UNL     1       3.389   3.803  18.945  0.00  0.00    +0.000 A 
ATOM      8  C   UNL     1       3.686   3.952  17.617  0.00  0.00    +0.000 A 
ATOM      9  C   UNL     1       5.063   4.221  17.388  0.00  0.00    +0.000 A 
ATOM     10  C   UNL     1       2.468   3.776  16.783  0.00  0.00    +0.000 C 
ATOM     11  C   UNL     1       1.325   3.854  17.843  0.00  0.00    +0.000 C 
ATOM     12  C   UNL     1       1.967   3.491  19.216  0.00  0.00    +0.000 C 
ENDROOT
BRANCH   1  13
ATOM     13  S   UNL     1       5.177   4.305  14.641  0.00  0.00    +0.000 S 
BRANCH  13  15
ATOM     14  C   UNL     1       6.371   3.499  12.321  0.00  0.00    +0.000 C 
ATOM     15  C   UNL     1       6.700   4.136  13.659  0.00  0.00    +0.000 C 
ENDBRANCH  13  15
ENDBRANCH   1  13
TORSDOF 2
ENDMDL
