MODEL 1
REMARK VINA RESULT:      -6.8      0.000      0.000
REMARK  Name = 
REMARK  10 active torsions:
REMARK  status: ('A' for Active; 'I' for Inactive)
REMARK    1  A    between atoms: C_1  and  C_2
REMARK    2  A    between atoms: C_2  and  C_3
REMARK    3  A    between atoms: C_3  and  C_4
REMARK    4  A    between atoms: C_4  and  C_5
REMARK    5  A    between atoms: C_5  and  C_6
REMARK    6  A    between atoms: C_6  and  S_7
REMARK    7  A    between atoms: S_7  and  C_8
REMARK    8  A    between atoms: C_12  and  C_13
REMARK    9  A    between atoms: N_17  and  C_18
REMARK   10  A    between atoms: C_18  and  C_19
REMARK                            x       y       z     vdW  Elec       q    Type
REMARK                         _______ _______ _______ _____ _____    ______ ____
ROOT
ATOM      1  C   UNL     1       6.146   5.679  17.403  0.00  0.00    +0.000 A 
ATOM      2  N   UNL     1       7.341   6.213  17.670  0.00  0.00    +0.000 NA
ATOM      3  S   UNL     1       7.665   5.778  19.244  0.00  0.00    +0.000 S 
ATOM      4  N   UNL     1       6.259   4.965  19.626  0.00  0.00    +0.000 NA
ATOM      5  C   UNL     1       5.525   4.963  18.503  0.00  0.00    +0.000 A 
ENDROOT
BRANCH   5   6
ATOM      6  C   UNL     1       4.286   4.228  18.423  0.00  0.00    +0.000 C 
ATOM      7  C   UNL     1       4.041   3.315  17.474  0.00  0.00    +0.000 C 
ATOM      8  C   UNL     1       2.740   2.582  17.421  0.00  0.00    +0.000 C 
ATOM      9  C   UNL     1       2.012   2.602  18.769  0.00  0.00    +0.000 C 
ATOM     10  N   UNL     1       1.934   3.955  19.344  0.00  0.00    +0.000 NA
ATOM     11  C   UNL     1       3.286   4.554  19.520  0.00  0.00    +0.000 C 
BRANCH  10  12
ATOM     12  C   UNL     1       1.220   3.956  20.635  0.00  0.00    +0.000 C 
ATOM     13  C   UNL     1       1.745   2.932  21.641  0.00  0.00    +0.000 C 
ENDBRANCH  10  12
ENDBRANCH   5   6
BRANCH   1  14
ATOM     14  S   UNL     1       5.475   5.871  15.785  0.00  0.00    +0.000 S 
BRANCH  14  15
ATOM     15  C   UNL     1       6.773   5.066  14.781  0.00  0.00    +0.000 C 
BRANCH  15  16
ATOM     16  C   UNL     1       6.213   3.775  14.186  0.00  0.00    +0.000 C 
BRANCH  16  17
ATOM     17  C   UNL     1       5.127   4.050  13.141  0.00  0.00    +0.000 C 
BRANCH  17  18
ATOM     18  C   UNL     1       5.252   3.086  11.957  0.00  0.00    +0.000 C 
BRANCH  18  20
ATOM     19  C   UNL     1       6.766   1.333  10.968  0.00  0.00    +0.000 C 
ATOM     20  C   UNL     1       6.698   2.638  11.747  0.00  0.00    +0.000 C 
ENDBRANCH  18  20
ENDBRANCH  17  18
ENDBRANCH  16  17
ENDBRANCH  15  16
ENDBRANCH  14  15
ENDBRANCH   1  14
TORSDOF 8
ENDMDL
MODEL 2
REMARK VINA RESULT:      -6.7      0.987      1.420
REMARK  Name = 
REMARK  10 active torsions:
REMARK  status: ('A' for Active; 'I' for Inactive)
REMARK    1  A    between atoms: C_1  and  C_2
REMARK    2  A    between atoms: C_2  and  C_3
REMARK    3  A    between atoms: C_3  and  C_4
REMARK    4  A    between atoms: C_4  and  C_5
REMARK    5  A    between atoms: C_5  and  C_6
REMARK    6  A    between atoms: C_6  and  S_7
REMARK    7  A    between atoms: S_7  and  C_8
REMARK    8  A    between atoms: C_12  and  C_13
REMARK    9  A    between atoms: N_17  and  C_18
REMARK   10  A    between atoms: C_18  and  C_19
REMARK                            x       y       z     vdW  Elec       q    Type
REMARK                         _______ _______ _______ _____ _____    ______ ____
ROOT
ATOM      1  C   UNL     1       6.056   4.752  16.837  0.00  0.00    +0.000 A 
ATOM      2  N   UNL     1       7.257   5.332  16.895  0.00  0.00    +0.000 NA
ATOM      3  S   UNL     1       7.611   5.429  18.519  0.00  0.00    +0.000 S 
ATOM      4  N   UNL     1       6.210   4.798  19.170  0.00  0.00    +0.000 NA
ATOM      5  C   UNL     1       5.454   4.439  18.122  0.00  0.00    +0.000 A 
ENDROOT
BRANCH   5   6
ATOM      6  C   UNL     1       4.211   3.730  18.307  0.00  0.00    +0.000 C 
ATOM      7  C   UNL     1       3.878   2.645  17.595  0.00  0.00    +0.000 C 
ATOM      8  C   UNL     1       2.576   1.945  17.812  0.00  0.00    +0.000 C 
ATOM      9  C   UNL     1       1.975   2.260  19.186  0.00  0.00    +0.000 C 
ATOM     10  N   UNL     1       1.953   3.703  19.472  0.00  0.00    +0.000 NA
ATOM     11  C   UNL     1       3.317   4.297  19.397  0.00  0.00    +0.000 C 
BRANCH  10  12
ATOM     12  C   UNL     1       1.360   3.987  20.793  0.00  0.00    +0.000 C 
ATOM     13  C   UNL     1       1.460   2.829  21.785  0.00  0.00    +0.000 C 
ENDBRANCH  10  12
ENDBRANCH   5   6
BRANCH   1  14
ATOM     14  S   UNL     1       5.353   4.414  15.258  0.00  0.00    +0.000 S 
BRANCH  14  15
ATOM     15  C   UNL     1       6.855   4.013  14.296  0.00  0.00    +0.000 C 
BRANCH  15  16
ATOM     16  C   UNL     1       6.619   4.374  12.830  0.00  0.00    +0.000 C 
BRANCH  16  17
ATOM     17  C   UNL     1       6.691   3.145  11.919  0.00  0.00    +0.000 C 
BRANCH  17  18
ATOM     18  C   UNL     1       5.302   2.531  11.719  0.00  0.00    +0.000 C 
BRANCH  18  20
ATOM     19  C   UNL     1       3.335   3.346  10.374  0.00  0.00    +0.000 C 
ATOM     20  C   UNL     1       4.227   3.608  11.578  0.00  0.00    +0.000 C 
ENDBRANCH  18  20
ENDBRANCH  17  18
ENDBRANCH  16  17
ENDBRANCH  15  16
ENDBRANCH  14  15
ENDBRANCH   1  14
TORSDOF 8
ENDMDL
MODEL 3
REMARK VINA RESULT:      -6.3      0.883      1.188
REMARK  Name = 
REMARK  10 active torsions:
REMARK  status: ('A' for Active; 'I' for Inactive)
REMARK    1  A    between atoms: C_1  and  C_2
REMARK    2  A    between atoms: C_2  and  C_3
REMARK    3  A    between atoms: C_3  and  C_4
REMARK    4  A    between atoms: C_4  and  C_5
REMARK    5  A    between atoms: C_5  and  C_6
REMARK    6  A    between atoms: C_6  and  S_7
REMARK    7  A    between atoms: S_7  and  C_8
REMARK    8  A    between atoms: C_12  and  C_13
REMARK    9  A    between atoms: N_17  and  C_18
REMARK   10  A    between atoms: C_18  and  C_19
REMARK                            x       y       z     vdW  Elec       q    Type
REMARK                         _______ _______ _______ _____ _____    ______ ____
ROOT
ATOM      1  C   UNL     1       5.638   6.172  17.960  0.00  0.00    +0.000 A 
ATOM      2  N   UNL     1       6.847   6.721  18.107  0.00  0.00    +0.000 NA
ATOM      3  S   UNL     1       7.680   5.672  19.095  0.00  0.00    +0.000 S 
ATOM      4  N   UNL     1       6.491   4.543  19.403  0.00  0.00    +0.000 NA
ATOM      5  C   UNL     1       5.427   4.932  18.686  0.00  0.00    +0.000 A 
ENDROOT
BRANCH   5   6
ATOM      6  C   UNL     1       4.241   4.113  18.607  0.00  0.00    +0.000 C 
ATOM      7  C   UNL     1       4.094   3.129  17.709  0.00  0.00    +0.000 C 
ATOM      8  C   UNL     1       2.846   2.311  17.654  0.00  0.00    +0.000 C 
ATOM      9  C   UNL     1       2.063   2.365  18.970  0.00  0.00    +0.000 C 
ATOM     10  N   UNL     1       1.875   3.742  19.455  0.00  0.00    +0.000 NA
ATOM     11  C   UNL     1       3.178   4.438  19.642  0.00  0.00    +0.000 C 
BRANCH  10  12
ATOM     12  C   UNL     1       1.110   3.774  20.715  0.00  0.00    +0.000 C 
ATOM     13  C   UNL     1       1.506   2.690  21.717  0.00  0.00    +0.000 C 
ENDBRANCH  10  12
ENDBRANCH   5   6
BRANCH   1  14
ATOM     14  S   UNL     1       4.466   6.969  16.914  0.00  0.00    +0.000 S 
BRANCH  14  15
ATOM     15  C   UNL     1       5.180   6.613  15.269  0.00  0.00    +0.000 C 
BRANCH  15  16
ATOM     16  C   UNL     1       5.424   5.110  15.147  0.00  0.00    +0.000 C 
BRANCH  16  17
ATOM     17  C   UNL     1       6.612   4.795  14.233  0.00  0.00    +0.000 C 
BRANCH  17  18
ATOM     18  C   UNL     1       6.407   3.458  13.513  0.00  0.00    +0.000 C 
BRANCH  18  20
ATOM     19  C   UNL     1       5.163   2.531  11.529  0.00  0.00    +0.000 C 
ATOM     20  C   UNL     1       6.042   3.661  12.043  0.00  0.00    +0.000 C 
ENDBRANCH  18  20
ENDBRANCH  17  18
ENDBRANCH  16  17
ENDBRANCH  15  16
ENDBRANCH  14  15
ENDBRANCH   1  14
TORSDOF 8
ENDMDL
MODEL 4
REMARK VINA RESULT:      -6.3      2.988      4.163
REMARK  Name = 
REMARK  10 active torsions:
REMARK  status: ('A' for Active; 'I' for Inactive)
REMARK    1  A    between atoms: C_1  and  C_2
REMARK    2  A    between atoms: C_2  and  C_3
REMARK    3  A    between atoms: C_3  and  C_4
REMARK    4  A    between atoms: C_4  and  C_5
REMARK    5  A    between atoms: C_5  and  C_6
REMARK    6  A    between atoms: C_6  and  S_7
REMARK    7  A    between atoms: S_7  and  C_8
REMARK    8  A    between atoms: C_12  and  C_13
REMARK    9  A    between atoms: N_17  and  C_18
REMARK   10  A    between atoms: C_18  and  C_19
REMARK                            x       y       z     vdW  Elec       q    Type
REMARK                         _______ _______ _______ _____ _____    ______ ____
ROOT
ATOM      1  C   UNL     1       3.628   3.840  18.867  0.00  0.00    +0.000 A 
ATOM      2  N   UNL     1       3.499   2.512  18.806  0.00  0.00    +0.000 NA
ATOM      3  S   UNL     1       1.864   2.232  18.941  0.00  0.00    +0.000 S 
ATOM      4  N   UNL     1       1.308   3.792  19.147  0.00  0.00    +0.000 NA
ATOM      5  C   UNL     1       2.391   4.578  19.054  0.00  0.00    +0.000 A 
ENDROOT
BRANCH   5   6
ATOM      6  C   UNL     1       2.271   6.015  19.055  0.00  0.00    +0.000 C 
ATOM      7  C   UNL     1       2.436   6.761  17.953  0.00  0.00    +0.000 C 
ATOM      8  C   UNL     1       2.313   8.249  17.999  0.00  0.00    +0.000 C 
ATOM      9  C   UNL     1       1.514   8.723  19.217  0.00  0.00    +0.000 C 
ATOM     10  N   UNL     1       1.981   8.106  20.469  0.00  0.00    +0.000 NA
ATOM     11  C   UNL     1       1.916   6.619  20.403  0.00  0.00    +0.000 C 
BRANCH  10  12
ATOM     12  C   UNL     1       1.208   8.584  21.632  0.00  0.00    +0.000 C 
ATOM     13  C   UNL     1      -0.307   8.507  21.451  0.00  0.00    +0.000 C 
ENDBRANCH  10  12
ENDBRANCH   5   6
BRANCH   1  14
ATOM     14  S   UNL     1       5.234   4.544  18.695  0.00  0.00    +0.000 S 
BRANCH  14  15
ATOM     15  C   UNL     1       5.376   4.628  16.875  0.00  0.00    +0.000 C 
BRANCH  15  16
ATOM     16  C   UNL     1       6.842   4.454  16.481  0.00  0.00    +0.000 C 
BRANCH  16  17
ATOM     17  C   UNL     1       7.056   4.642  14.976  0.00  0.00    +0.000 C 
BRANCH  17  18
ATOM     18  C   UNL     1       5.884   4.059  14.180  0.00  0.00    +0.000 C 
BRANCH  18  20
ATOM     19  C   UNL     1       5.101   3.229  11.935  0.00  0.00    +0.000 C 
ATOM     20  C   UNL     1       6.289   3.725  12.745  0.00  0.00    +0.000 C 
ENDBRANCH  18  20
ENDBRANCH  17  18
ENDBRANCH  16  17
ENDBRANCH  15  16
ENDBRANCH  14  15
ENDBRANCH   1  14
TORSDOF 8
ENDMDL
MODEL 5
REMARK VINA RESULT:      -6.3      1.266      1.674
REMARK  Name = 
REMARK  10 active torsions:
REMARK  status: ('A' for Active; 'I' for Inactive)
REMARK    1  A    between atoms: C_1  and  C_2
REMARK    2  A    between atoms: C_2  and  C_3
REMARK    3  A    between atoms: C_3  and  C_4
REMARK    4  A    between atoms: C_4  and  C_5
REMARK    5  A    between atoms: C_5  and  C_6
REMARK    6  A    between atoms: C_6  and  S_7
REMARK    7  A    between atoms: S_7  and  C_8
REMARK    8  A    between atoms: C_12  and  C_13
REMARK    9  A    between atoms: N_17  and  C_18
REMARK   10  A    between atoms: C_18  and  C_19
REMARK                            x       y       z     vdW  Elec       q    Type
REMARK                         _______ _______ _______ _____ _____    ______ ____
ROOT
ATOM      1  C   UNL     1       6.134   5.852  17.703  0.00  0.00    +0.000 A 
ATOM      2  N   UNL     1       7.349   6.391  17.571  0.00  0.00    +0.000 NA
ATOM      3  S   UNL     1       8.117   6.079  19.015  0.00  0.00    +0.000 S 
ATOM      4  N   UNL     1       6.890   5.316  19.849  0.00  0.00    +0.000 NA
ATOM      5  C   UNL     1       5.864   5.234  18.989  0.00  0.00    +0.000 A 
ENDROOT
BRANCH   5   6
ATOM      6  C   UNL     1       4.663   4.510  19.328  0.00  0.00    +0.000 C 
ATOM      7  C   UNL     1       4.599   3.171  19.345  0.00  0.00    +0.000 C 
ATOM      8  C   UNL     1       3.332   2.461  19.693  0.00  0.00    +0.000 C 
ATOM      9  C   UNL     1       2.369   3.353  20.482  0.00  0.00    +0.000 C 
ATOM     10  N   UNL     1       2.182   4.671  19.853  0.00  0.00    +0.000 NA
ATOM     11  C   UNL     1       3.478   5.388  19.692  0.00  0.00    +0.000 C 
BRANCH  10  12
ATOM     12  C   UNL     1       1.243   5.511  20.621  0.00  0.00    +0.000 C 
ATOM     13  C   UNL     1       1.616   6.992  20.660  0.00  0.00    +0.000 C 
ENDBRANCH  10  12
ENDBRANCH   5   6
BRANCH   1  14
ATOM     14  S   UNL     1       5.024   5.922  16.337  0.00  0.00    +0.000 S 
BRANCH  14  15
ATOM     15  C   UNL     1       4.864   4.145  15.937  0.00  0.00    +0.000 C 
BRANCH  15  16
ATOM     16  C   UNL     1       6.119   3.688  15.194  0.00  0.00    +0.000 C 
BRANCH  16  17
ATOM     17  C   UNL     1       6.562   4.707  14.139  0.00  0.00    +0.000 C 
BRANCH  17  18
ATOM     18  C   UNL     1       6.718   4.041  12.769  0.00  0.00    +0.000 C 
BRANCH  18  20
ATOM     19  C   UNL     1       5.711   2.102  11.515  0.00  0.00    +0.000 C 
ATOM     20  C   UNL     1       5.425   3.357  12.325  0.00  0.00    +0.000 C 
ENDBRANCH  18  20
ENDBRANCH  17  18
ENDBRANCH  16  17
ENDBRANCH  15  16
ENDBRANCH  14  15
ENDBRANCH   1  14
TORSDOF 8
ENDMDL
MODEL 6
REMARK VINA RESULT:      -6.3      1.358      2.236
REMARK  Name = 
REMARK  10 active torsions:
REMARK  status: ('A' for Active; 'I' for Inactive)
REMARK    1  A    between atoms: C_1  and  C_2
REMARK    2  A    between atoms: C_2  and  C_3
REMARK    3  A    between atoms: C_3  and  C_4
REMARK    4  A    between atoms: C_4  and  C_5
REMARK    5  A    between atoms: C_5  and  C_6
REMARK    6  A    between atoms: C_6  and  S_7
REMARK    7  A    between atoms: S_7  and  C_8
REMARK    8  A    between atoms: C_12  and  C_13
REMARK    9  A    between atoms: N_17  and  C_18
REMARK   10  A    between atoms: C_18  and  C_19
REMARK                            x       y       z     vdW  Elec       q    Type
REMARK                         _______ _______ _______ _____ _____    ______ ____
ROOT
ATOM      1  C   UNL     1       5.867   6.331  17.910  0.00  0.00    +0.000 A 
ATOM      2  N   UNL     1       7.170   6.572  17.742  0.00  0.00    +0.000 NA
ATOM      3  S   UNL     1       7.915   5.826  19.031  0.00  0.00    +0.000 S 
ATOM      4  N   UNL     1       6.583   5.248  19.854  0.00  0.00    +0.000 NA
ATOM      5  C   UNL     1       5.522   5.575  19.102  0.00  0.00    +0.000 A 
ENDROOT
BRANCH   5   6
ATOM      6  C   UNL     1       4.197   5.117  19.442  0.00  0.00    +0.000 C 
ATOM      7  C   UNL     1       3.244   5.931  19.916  0.00  0.00    +0.000 C 
ATOM      8  C   UNL     1       1.887   5.414  20.265  0.00  0.00    +0.000 C 
ATOM      9  C   UNL     1       1.579   4.086  19.567  0.00  0.00    +0.000 C 
ATOM     10  N   UNL     1       2.668   3.107  19.718  0.00  0.00    +0.000 NA
ATOM     11  C   UNL     1       3.957   3.638  19.193  0.00  0.00    +0.000 C 
BRANCH  10  12
ATOM     12  C   UNL     1       2.349   1.831  19.049  0.00  0.00    +0.000 C 
ATOM     13  C   UNL     1       3.500   1.247  18.232  0.00  0.00    +0.000 C 
ENDBRANCH  10  12
ENDBRANCH   5   6
BRANCH   1  14
ATOM     14  S   UNL     1       4.734   6.916  16.694  0.00  0.00    +0.000 S 
BRANCH  14  15
ATOM     15  C   UNL     1       5.318   6.007  15.220  0.00  0.00    +0.000 C 
BRANCH  15  16
ATOM     16  C   UNL     1       5.336   4.512  15.531  0.00  0.00    +0.000 C 
BRANCH  16  17
ATOM     17  C   UNL     1       6.281   3.745  14.601  0.00  0.00    +0.000 C 
BRANCH  17  18
ATOM     18  C   UNL     1       5.755   3.751  13.163  0.00  0.00    +0.000 C 
BRANCH  18  20
ATOM     19  C   UNL     1       7.763   5.129  12.519  0.00  0.00    +0.000 C 
ATOM     20  C   UNL     1       6.885   3.943  12.152  0.00  0.00    +0.000 C 
ENDBRANCH  18  20
ENDBRANCH  17  18
ENDBRANCH  16  17
ENDBRANCH  15  16
ENDBRANCH  14  15
ENDBRANCH   1  14
TORSDOF 8
ENDMDL
MODEL 7
REMARK VINA RESULT:      -6.2      1.002      1.152
REMARK  Name = 
REMARK  10 active torsions:
REMARK  status: ('A' for Active; 'I' for Inactive)
REMARK    1  A    between atoms: C_1  and  C_2
REMARK    2  A    between atoms: C_2  and  C_3
REMARK    3  A    between atoms: C_3  and  C_4
REMARK    4  A    between atoms: C_4  and  C_5
REMARK    5  A    between atoms: C_5  and  C_6
REMARK    6  A    between atoms: C_6  and  S_7
REMARK    7  A    between atoms: S_7  and  C_8
REMARK    8  A    between atoms: C_12  and  C_13
REMARK    9  A    between atoms: N_17  and  C_18
REMARK   10  A    between atoms: C_18  and  C_19
REMARK                            x       y       z     vdW  Elec       q    Type
REMARK                         _______ _______ _______ _____ _____    ______ ____
ROOT
ATOM      1  C   UNL     1       6.404   5.664  17.350  0.00  0.00    +0.000 A 
ATOM      2  N   UNL     1       7.707   5.872  17.558  0.00  0.00    +0.000 NA
ATOM      3  S   UNL     1       7.917   5.693  19.199  0.00  0.00    +0.000 S 
ATOM      4  N   UNL     1       6.341   5.418  19.674  0.00  0.00    +0.000 NA
ATOM      5  C   UNL     1       5.620   5.399  18.544  0.00  0.00    +0.000 A 
ENDROOT
BRANCH   5   6
ATOM      6  C   UNL     1       4.219   5.054  18.558  0.00  0.00    +0.000 C 
ATOM      7  C   UNL     1       3.322   5.614  17.735  0.00  0.00    +0.000 C 
ATOM      8  C   UNL     1       1.878   5.235  17.789  0.00  0.00    +0.000 C 
ATOM      9  C   UNL     1       1.665   3.871  18.454  0.00  0.00    +0.000 C 
ATOM     10  N   UNL     1       2.380   3.753  19.734  0.00  0.00    +0.000 NA
ATOM     11  C   UNL     1       3.843   3.982  19.567  0.00  0.00    +0.000 C 
BRANCH  10  12
ATOM     12  C   UNL     1       2.154   2.438  20.364  0.00  0.00    +0.000 C 
ATOM     13  C   UNL     1       1.517   2.509  21.751  0.00  0.00    +0.000 C 
ENDBRANCH  10  12
ENDBRANCH   5   6
BRANCH   1  14
ATOM     14  S   UNL     1       5.791   5.707  15.700  0.00  0.00    +0.000 S 
BRANCH  14  15
ATOM     15  C   UNL     1       7.157   4.882  14.808  0.00  0.00    +0.000 C 
BRANCH  15  16
ATOM     16  C   UNL     1       6.717   4.604  13.371  0.00  0.00    +0.000 C 
BRANCH  16  17
ATOM     17  C   UNL     1       5.708   3.454  13.294  0.00  0.00    +0.000 C 
BRANCH  17  18
ATOM     18  C   UNL     1       5.282   3.198  11.845  0.00  0.00    +0.000 C 
BRANCH  18  20
ATOM     19  C   UNL     1       7.113   1.681  11.012  0.00  0.00    +0.000 C 
ATOM     20  C   UNL     1       5.644   1.783  11.394  0.00  0.00    +0.000 C 
ENDBRANCH  18  20
ENDBRANCH  17  18
ENDBRANCH  16  17
ENDBRANCH  15  16
ENDBRANCH  14  15
ENDBRANCH   1  14
TORSDOF 8
ENDMDL
MODEL 8
REMARK VINA RESULT:      -6.2      1.358      1.655
REMARK  Name = 
REMARK  10 active torsions:
REMARK  status: ('A' for Active; 'I' for Inactive)
REMARK    1  A    between atoms: C_1  and  C_2
REMARK    2  A    between atoms: C_2  and  C_3
REMARK    3  A    between atoms: C_3  and  C_4
REMARK    4  A    between atoms: C_4  and  C_5
REMARK    5  A    between atoms: C_5  and  C_6
REMARK    6  A    between atoms: C_6  and  S_7
REMARK    7  A    between atoms: S_7  and  C_8
REMARK    8  A    between atoms: C_12  and  C_13
REMARK    9  A    between atoms: N_17  and  C_18
REMARK   10  A    between atoms: C_18  and  C_19
REMARK                            x       y       z     vdW  Elec       q    Type
REMARK                         _______ _______ _______ _____ _____    ______ ____
ROOT
ATOM      1  C   UNL     1       6.461   4.580  17.389  0.00  0.00    +0.000 A 
ATOM      2  N   UNL     1       7.769   4.790  17.560  0.00  0.00    +0.000 NA
ATOM      3  S   UNL     1       7.894   5.549  19.036  0.00  0.00    +0.000 S 
ATOM      4  N   UNL     1       6.281   5.682  19.443  0.00  0.00    +0.000 NA
ATOM      5  C   UNL     1       5.607   5.076  18.454  0.00  0.00    +0.000 A 
ENDROOT
BRANCH   5   6
ATOM      6  C   UNL     1       4.180   4.883  18.534  0.00  0.00    +0.000 C 
ATOM      7  C   UNL     1       3.308   5.567  17.779  0.00  0.00    +0.000 C 
ATOM      8  C   UNL     1       1.836   5.343  17.900  0.00  0.00    +0.000 C 
ATOM      9  C   UNL     1       1.510   3.985  18.531  0.00  0.00    +0.000 C 
ATOM     10  N   UNL     1       2.272   3.742  19.766  0.00  0.00    +0.000 NA
ATOM     11  C   UNL     1       3.741   3.820  19.526  0.00  0.00    +0.000 C 
BRANCH  10  12
ATOM     12  C   UNL     1       1.936   2.436  20.365  0.00  0.00    +0.000 C 
ATOM     13  C   UNL     1       1.513   2.510  21.831  0.00  0.00    +0.000 C 
ENDBRANCH  10  12
ENDBRANCH   5   6
BRANCH   1  14
ATOM     14  S   UNL     1       5.921   3.728  15.945  0.00  0.00    +0.000 S 
BRANCH  14  15
ATOM     15  C   UNL     1       6.141   5.029  14.680  0.00  0.00    +0.000 C 
BRANCH  15  16
ATOM     16  C   UNL     1       7.374   4.703  13.838  0.00  0.00    +0.000 C 
BRANCH  16  17
ATOM     17  C   UNL     1       7.015   4.452  12.371  0.00  0.00    +0.000 C 
BRANCH  17  18
ATOM     18  C   UNL     1       5.950   3.358  12.248  0.00  0.00    +0.000 C 
BRANCH  18  20
ATOM     19  C   UNL     1       3.809   2.794  11.047  0.00  0.00    +0.000 C 
ATOM     20  C   UNL     1       4.649   3.904  11.660  0.00  0.00    +0.000 C 
ENDBRANCH  18  20
ENDBRANCH  17  18
ENDBRANCH  16  17
ENDBRANCH  15  16
ENDBRANCH  14  15
ENDBRANCH   1  14
TORSDOF 8
ENDMDL
MODEL 9
REMARK VINA RESULT:      -6.1      3.753      7.004
REMARK  Name = 
REMARK  10 active torsions:
REMARK  status: ('A' for Active; 'I' for Inactive)
REMARK    1  A    between atoms: C_1  and  C_2
REMARK    2  A    between atoms: C_2  and  C_3
REMARK    3  A    between atoms: C_3  and  C_4
REMARK    4  A    between atoms: C_4  and  C_5
REMARK    5  A    between atoms: C_5  and  C_6
REMARK    6  A    between atoms: C_6  and  S_7
REMARK    7  A    between atoms: S_7  and  C_8
REMARK    8  A    between atoms: C_12  and  C_13
REMARK    9  A    between atoms: N_17  and  C_18
REMARK   10  A    between atoms: C_18  and  C_19
REMARK                            x       y       z     vdW  Elec       q    Type
REMARK                         _______ _______ _______ _____ _____    ______ ____
ROOT
ATOM      1  C   UNL     1       2.426   4.360  19.071  0.00  0.00    +0.000 A 
ATOM      2  N   UNL     1       1.322   3.776  19.545  0.00  0.00    +0.000 NA
ATOM      3  S   UNL     1       1.392   2.208  18.991  0.00  0.00    +0.000 S 
ATOM      4  N   UNL     1       2.792   2.272  18.084  0.00  0.00    +0.000 NA
ATOM      5  C   UNL     1       3.271   3.515  18.246  0.00  0.00    +0.000 A 
ENDROOT
BRANCH   5   6
ATOM      6  C   UNL     1       4.553   3.896  17.705  0.00  0.00    +0.000 C 
ATOM      7  C   UNL     1       4.845   3.822  16.399  0.00  0.00    +0.000 C 
ATOM      8  C   UNL     1       6.189   4.217  15.882  0.00  0.00    +0.000 C 
ATOM      9  C   UNL     1       6.930   5.143  16.852  0.00  0.00    +0.000 C 
ATOM     10  N   UNL     1       6.930   4.627  18.231  0.00  0.00    +0.000 NA
ATOM     11  C   UNL     1       5.543   4.415  18.734  0.00  0.00    +0.000 C 
BRANCH  10  12
ATOM     12  C   UNL     1       7.657   5.525  19.147  0.00  0.00    +0.000 C 
ATOM     13  C   UNL     1       8.029   6.876  18.537  0.00  0.00    +0.000 C 
ENDBRANCH  10  12
ENDBRANCH   5   6
BRANCH   1  14
ATOM     14  S   UNL     1       2.748   6.038  19.500  0.00  0.00    +0.000 S 
BRANCH  14  15
ATOM     15  C   UNL     1       2.360   6.873  17.920  0.00  0.00    +0.000 C 
BRANCH  15  16
ATOM     16  C   UNL     1       2.718   8.354  18.039  0.00  0.00    +0.000 C 
BRANCH  16  17
ATOM     17  C   UNL     1       1.524   9.259  17.721  0.00  0.00    +0.000 C 
BRANCH  17  18
ATOM     18  C   UNL     1       0.833   9.724  19.006  0.00  0.00    +0.000 C 
BRANCH  18  20
ATOM     19  C   UNL     1      -1.502  10.212  18.198  0.00  0.00    +0.000 C 
ATOM     20  C   UNL     1      -0.206  10.809  18.724  0.00  0.00    +0.000 C 
ENDBRANCH  18  20
ENDBRANCH  17  18
ENDBRANCH  16  17
ENDBRANCH  15  16
ENDBRANCH  14  15
ENDBRANCH   1  14
TORSDOF 8
ENDMDL
