MODEL 1
REMARK VINA RESULT:      -8.9      0.000      0.000
REMARK  Name = 
REMARK  6 active torsions:
REMARK  status: ('A' for Active; 'I' for Inactive)
REMARK    1  A    between atoms: C_1  and  C_2
REMARK    2  A    between atoms: C_4  and  C_5
REMARK    3  A    between atoms: C_7  and  N_8
REMARK    4  A    between atoms: N_8  and  S_9
REMARK    5  A    between atoms: S_9  and  C_12
REMARK    6  A    between atoms: C_21  and  C_22
REMARK                            x       y       z     vdW  Elec       q    Type
REMARK                         _______ _______ _______ _____ _____    ______ ____
ROOT
ATOM      1  S   UNL     1       3.624   3.388  19.209  0.00  0.00    +0.000 S 
ATOM      2  O   UNL     1       3.291   2.726  17.967  0.00  0.00    +0.000 OA
ATOM      3  O   UNL     1       3.215   2.834  20.481  0.00  0.00    +0.000 OA
ENDROOT
BRANCH   1   4
ATOM      4  C   UNL     1       3.015   5.055  19.102  0.00  0.00    +0.000 A 
ATOM      5  C   UNL     1       2.955   5.681  17.857  0.00  0.00    +0.000 A 
ATOM      6  C   UNL     1       2.470   6.985  17.771  0.00  0.00    +0.000 A 
ATOM      7  C   UNL     1       2.043   7.664  18.919  0.00  0.00    +0.000 A 
ATOM      8  C   UNL     1       2.103   7.026  20.168  0.00  0.00    +0.000 A 
ATOM      9  C   UNL     1       2.573   5.711  20.258  0.00  0.00    +0.000 A 
ATOM     10  N   UNL     1       1.793   7.699  21.362  0.00  0.00    +0.000 N 
ATOM     11  C   UNL     1       1.280   8.969  21.464  0.00  0.00    +0.000 C 
ATOM     12  O   UNL     1       1.302   9.534  22.558  0.00  0.00    +0.000 OA
ATOM     13  C   UNL     1       0.563   9.542  20.246  0.00  0.00    +0.000 C 
ATOM     14  C   UNL     1       0.210  11.016  20.419  0.00  0.00    +0.000 C 
ATOM     15  S   UNL     1       1.553   9.365  18.734  0.00  0.00    +0.000 S 
ATOM     16  H   UNL     1       2.084   7.292  22.244  0.00  0.00    +0.000 HD
ENDBRANCH   1   4
BRANCH   1  17
ATOM     17  N   UNL     1       5.294   3.602  19.184  0.00  0.00    +0.000 N 
ATOM     18  H   UNL     1       5.683   3.684  20.122  0.00  0.00    +0.000 HD
BRANCH  17  25
ATOM     19  C   UNL     1       6.352   4.213  14.408  0.00  0.00    +0.000 C 
ATOM     20  C   UNL     1       6.400   4.713  15.821  0.00  0.00    +0.000 A 
ATOM     21  C   UNL     1       7.035   5.921  16.139  0.00  0.00    +0.000 A 
ATOM     22  C   UNL     1       7.094   6.374  17.465  0.00  0.00    +0.000 A 
ATOM     23  C   UNL     1       7.782   7.665  17.807  0.00  0.00    +0.000 C 
ATOM     24  C   UNL     1       6.503   5.606  18.478  0.00  0.00    +0.000 A 
ATOM     25  C   UNL     1       5.874   4.404  18.164  0.00  0.00    +0.000 A 
ATOM     26  C   UNL     1       5.818   3.956  16.845  0.00  0.00    +0.000 A 
ENDBRANCH  17  25
ENDBRANCH   1  17
TORSDOF 3
ENDMDL
MODEL 2
REMARK VINA RESULT:      -8.8      0.059      1.764
REMARK  Name = 
REMARK  6 active torsions:
REMARK  status: ('A' for Active; 'I' for Inactive)
REMARK    1  A    between atoms: C_1  and  C_2
REMARK    2  A    between atoms: C_4  and  C_5
REMARK    3  A    between atoms: C_7  and  N_8
REMARK    4  A    between atoms: N_8  and  S_9
REMARK    5  A    between atoms: S_9  and  C_12
REMARK    6  A    between atoms: C_21  and  C_22
REMARK                            x       y       z     vdW  Elec       q    Type
REMARK                         _______ _______ _______ _____ _____    ______ ____
ROOT
ATOM      1  S   UNL     1       3.671   3.397  19.236  0.00  0.00    +0.000 S 
ATOM      2  O   UNL     1       3.326   2.716  18.006  0.00  0.00    +0.000 OA
ATOM      3  O   UNL     1       3.285   2.855  20.520  0.00  0.00    +0.000 OA
ENDROOT
BRANCH   1   4
ATOM      4  C   UNL     1       3.048   5.057  19.117  0.00  0.00    +0.000 A 
ATOM      5  C   UNL     1       2.986   5.675  17.868  0.00  0.00    +0.000 A 
ATOM      6  C   UNL     1       2.490   6.974  17.772  0.00  0.00    +0.000 A 
ATOM      7  C   UNL     1       2.054   7.657  18.916  0.00  0.00    +0.000 A 
ATOM      8  C   UNL     1       2.116   7.027  20.169  0.00  0.00    +0.000 A 
ATOM      9  C   UNL     1       2.598   5.717  20.267  0.00  0.00    +0.000 A 
ATOM     10  N   UNL     1       1.798   7.705  21.357  0.00  0.00    +0.000 N 
ATOM     11  C   UNL     1       1.274   8.971  21.451  0.00  0.00    +0.000 C 
ATOM     12  O   UNL     1       1.288   9.543  22.541  0.00  0.00    +0.000 OA
ATOM     13  C   UNL     1       0.554   9.530  20.227  0.00  0.00    +0.000 C 
ATOM     14  C   UNL     1       0.188  11.001  20.391  0.00  0.00    +0.000 C 
ATOM     15  S   UNL     1       1.550   9.352  18.719  0.00  0.00    +0.000 S 
ATOM     16  H   UNL     1       2.090   7.306  22.242  0.00  0.00    +0.000 HD
ENDBRANCH   1   4
BRANCH   1  17
ATOM     17  N   UNL     1       5.340   3.623  19.184  0.00  0.00    +0.000 N 
ATOM     18  H   UNL     1       5.737   3.752  20.113  0.00  0.00    +0.000 HD
BRANCH  17  25
ATOM     19  C   UNL     1       7.733   7.675  17.714  0.00  0.00    +0.000 C 
ATOM     20  C   UNL     1       7.075   6.367  17.388  0.00  0.00    +0.000 A 
ATOM     21  C   UNL     1       6.979   5.916  16.064  0.00  0.00    +0.000 A 
ATOM     22  C   UNL     1       6.346   4.702  15.763  0.00  0.00    +0.000 A 
ATOM     23  C   UNL     1       6.237   4.223  14.344  0.00  0.00    +0.000 C 
ATOM     24  C   UNL     1       5.810   3.932  16.805  0.00  0.00    +0.000 A 
ATOM     25  C   UNL     1       5.903   4.380  18.121  0.00  0.00    +0.000 A 
ATOM     26  C   UNL     1       6.531   5.587  18.416  0.00  0.00    +0.000 A 
ENDBRANCH  17  25
ENDBRANCH   1  17
TORSDOF 3
ENDMDL
MODEL 3
REMARK VINA RESULT:      -8.2      1.615      1.939
REMARK  Name = 
REMARK  6 active torsions:
REMARK  status: ('A' for Active; 'I' for Inactive)
REMARK    1  A    between atoms: C_1  and  C_2
REMARK    2  A    between atoms: C_4  and  C_5
REMARK    3  A    between atoms: C_7  and  N_8
REMARK    4  A    between atoms: N_8  and  S_9
REMARK    5  A    between atoms: S_9  and  C_12
REMARK    6  A    between atoms: C_21  and  C_22
REMARK                            x       y       z     vdW  Elec       q    Type
REMARK                         _______ _______ _______ _____ _____    ______ ____
ROOT
ATOM      1  S   UNL     1       3.029   5.304  19.265  0.00  0.00    +0.000 S 
ATOM      2  O   UNL     1       2.041   4.331  19.679  0.00  0.00    +0.000 OA
ATOM      3  O   UNL     1       4.340   5.339  19.877  0.00  0.00    +0.000 OA
ENDROOT
BRANCH   1   4
ATOM      4  C   UNL     1       2.291   6.913  19.427  0.00  0.00    +0.000 A 
ATOM      5  C   UNL     1       2.320   7.788  18.341  0.00  0.00    +0.000 A 
ATOM      6  C   UNL     1       1.735   9.047  18.463  0.00  0.00    +0.000 A 
ATOM      7  C   UNL     1       1.120   9.435  19.661  0.00  0.00    +0.000 A 
ATOM      8  C   UNL     1       1.092   8.547  20.748  0.00  0.00    +0.000 A 
ATOM      9  C   UNL     1       1.663   7.275  20.625  0.00  0.00    +0.000 A 
ATOM     10  N   UNL     1       0.588   8.925  22.004  0.00  0.00    +0.000 N 
ATOM     11  C   UNL     1      -0.043  10.109  22.298  0.00  0.00    +0.000 C 
ATOM     12  O   UNL     1      -0.197  10.425  23.479  0.00  0.00    +0.000 OA
ATOM     13  C   UNL     1      -0.663  10.886  21.141  0.00  0.00    +0.000 C 
ATOM     14  C   UNL     1      -1.163  12.263  21.568  0.00  0.00    +0.000 C 
ATOM     15  S   UNL     1       0.506  11.101  19.768  0.00  0.00    +0.000 S 
ATOM     16  H   UNL     1       0.811   8.357  22.813  0.00  0.00    +0.000 HD
ENDBRANCH   1   4
BRANCH   1  17
ATOM     17  N   UNL     1       3.177   5.129  17.597  0.00  0.00    +0.000 N 
ATOM     18  H   UNL     1       2.582   4.386  17.236  0.00  0.00    +0.000 HD
BRANCH  17  25
ATOM     19  C   UNL     1       6.362   3.829  14.066  0.00  0.00    +0.000 C 
ATOM     20  C   UNL     1       6.026   4.663  15.266  0.00  0.00    +0.000 A 
ATOM     21  C   UNL     1       6.959   5.557  15.809  0.00  0.00    +0.000 A 
ATOM     22  C   UNL     1       6.646   6.321  16.943  0.00  0.00    +0.000 A 
ATOM     23  C   UNL     1       7.648   7.273  17.529  0.00  0.00    +0.000 C 
ATOM     24  C   UNL     1       5.380   6.186  17.531  0.00  0.00    +0.000 A 
ATOM     25  C   UNL     1       4.454   5.296  16.994  0.00  0.00    +0.000 A 
ATOM     26  C   UNL     1       4.768   4.538  15.868  0.00  0.00    +0.000 A 
ENDBRANCH  17  25
ENDBRANCH   1  17
TORSDOF 3
ENDMDL
MODEL 4
REMARK VINA RESULT:      -8.1      3.099      8.208
REMARK  Name = 
REMARK  6 active torsions:
REMARK  status: ('A' for Active; 'I' for Inactive)
REMARK    1  A    between atoms: C_1  and  C_2
REMARK    2  A    between atoms: C_4  and  C_5
REMARK    3  A    between atoms: C_7  and  N_8
REMARK    4  A    between atoms: N_8  and  S_9
REMARK    5  A    between atoms: S_9  and  C_12
REMARK    6  A    between atoms: C_21  and  C_22
REMARK                            x       y       z     vdW  Elec       q    Type
REMARK                         _______ _______ _______ _____ _____    ______ ____
ROOT
ATOM      1  S   UNL     1       0.299  10.735  20.529  0.00  0.00    +0.000 S 
ATOM      2  O   UNL     1       1.280  11.553  21.209  0.00  0.00    +0.000 OA
ATOM      3  O   UNL     1      -0.874  10.249  21.222  0.00  0.00    +0.000 OA
ENDROOT
BRANCH   1   4
ATOM      4  C   UNL     1       1.159   9.341  19.836  0.00  0.00    +0.000 A 
ATOM      5  C   UNL     1       1.643   9.419  18.530  0.00  0.00    +0.000 A 
ATOM      6  C   UNL     1       2.324   8.330  17.988  0.00  0.00    +0.000 A 
ATOM      7  C   UNL     1       2.526   7.168  18.744  0.00  0.00    +0.000 A 
ATOM      8  C   UNL     1       2.039   7.099  20.059  0.00  0.00    +0.000 A 
ATOM      9  C   UNL     1       1.370   8.196  20.613  0.00  0.00    +0.000 A 
ATOM     10  N   UNL     1       2.117   5.920  20.819  0.00  0.00    +0.000 N 
ATOM     11  C   UNL     1       2.769   4.766  20.457  0.00  0.00    +0.000 C 
ATOM     12  O   UNL     1       2.541   3.731  21.085  0.00  0.00    +0.000 OA
ATOM     13  C   UNL     1       3.864   4.875  19.400  0.00  0.00    +0.000 C 
ATOM     14  C   UNL     1       4.375   3.510  18.952  0.00  0.00    +0.000 C 
ATOM     15  S   UNL     1       3.298   5.785  17.934  0.00  0.00    +0.000 S 
ATOM     16  H   UNL     1       1.543   5.834  21.650  0.00  0.00    +0.000 HD
ENDBRANCH   1   4
BRANCH   1  17
ATOM     17  N   UNL     1      -0.158  11.605  19.161  0.00  0.00    +0.000 N 
ATOM     18  H   UNL     1       0.207  12.555  19.173  0.00  0.00    +0.000 HD
BRANCH  17  25
ATOM     19  C   UNL     1      -3.000   9.671  15.627  0.00  0.00    +0.000 C 
ATOM     20  C   UNL     1      -2.863  10.468  16.890  0.00  0.00    +0.000 A 
ATOM     21  C   UNL     1      -3.983  11.044  17.505  0.00  0.00    +0.000 A 
ATOM     22  C   UNL     1      -3.847  11.805  18.675  0.00  0.00    +0.000 A 
ATOM     23  C   UNL     1      -5.046  12.429  19.330  0.00  0.00    +0.000 C 
ATOM     24  C   UNL     1      -2.573  11.981  19.234  0.00  0.00    +0.000 A 
ATOM     25  C   UNL     1      -1.459  11.411  18.621  0.00  0.00    +0.000 A 
ATOM     26  C   UNL     1      -1.598  10.657  17.458  0.00  0.00    +0.000 A 
ENDBRANCH  17  25
ENDBRANCH   1  17
TORSDOF 3
ENDMDL
MODEL 5
REMARK VINA RESULT:      -8.1      1.551      2.536
REMARK  Name = 
REMARK  6 active torsions:
REMARK  status: ('A' for Active; 'I' for Inactive)
REMARK    1  A    between atoms: C_1  and  C_2
REMARK    2  A    between atoms: C_4  and  C_5
REMARK    3  A    between atoms: C_7  and  N_8
REMARK    4  A    between atoms: N_8  and  S_9
REMARK    5  A    between atoms: S_9  and  C_12
REMARK    6  A    between atoms: C_21  and  C_22
REMARK                            x       y       z     vdW  Elec       q    Type
REMARK                         _______ _______ _______ _____ _____    ______ ____
ROOT
ATOM      1  S   UNL     1       3.071   5.100  19.182  0.00  0.00    +0.000 S 
ATOM      2  O   UNL     1       2.066   4.119  19.530  0.00  0.00    +0.000 OA
ATOM      3  O   UNL     1       4.380   5.074  19.796  0.00  0.00    +0.000 OA
ENDROOT
BRANCH   1   4
ATOM      4  C   UNL     1       2.359   6.707  19.449  0.00  0.00    +0.000 A 
ATOM      5  C   UNL     1       2.360   7.635  18.407  0.00  0.00    +0.000 A 
ATOM      6  C   UNL     1       1.795   8.892  18.612  0.00  0.00    +0.000 A 
ATOM      7  C   UNL     1       1.228   9.226  19.849  0.00  0.00    +0.000 A 
ATOM      8  C   UNL     1       1.227   8.286  20.891  0.00  0.00    +0.000 A 
ATOM      9  C   UNL     1       1.778   7.016  20.685  0.00  0.00    +0.000 A 
ATOM     10  N   UNL     1       0.773   8.607  22.181  0.00  0.00    +0.000 N 
ATOM     11  C   UNL     1       0.167   9.781  22.556  0.00  0.00    +0.000 C 
ATOM     12  O   UNL     1       0.059  10.039  23.756  0.00  0.00    +0.000 OA
ATOM     13  C   UNL     1      -0.484  10.621  21.462  0.00  0.00    +0.000 C 
ATOM     14  C   UNL     1      -0.951  11.980  21.974  0.00  0.00    +0.000 C 
ATOM     15  S   UNL     1       0.638  10.892  20.061  0.00  0.00    +0.000 S 
ATOM     16  H   UNL     1       1.017   7.996  22.953  0.00  0.00    +0.000 HD
ENDBRANCH   1   4
BRANCH   1  17
ATOM     17  N   UNL     1       3.219   5.034  17.506  0.00  0.00    +0.000 N 
ATOM     18  H   UNL     1       2.590   4.347  17.093  0.00  0.00    +0.000 HD
BRANCH  17  25
ATOM     19  C   UNL     1       7.625   7.246  17.525  0.00  0.00    +0.000 C 
ATOM     20  C   UNL     1       6.671   6.260  16.917  0.00  0.00    +0.000 A 
ATOM     21  C   UNL     1       7.019   5.526  15.775  0.00  0.00    +0.000 A 
ATOM     22  C   UNL     1       6.117   4.620  15.200  0.00  0.00    +0.000 A 
ATOM     23  C   UNL     1       6.487   3.840  13.972  0.00  0.00    +0.000 C 
ATOM     24  C   UNL     1       4.854   4.448  15.785  0.00  0.00    +0.000 A 
ATOM     25  C   UNL     1       4.505   5.179  16.919  0.00  0.00    +0.000 A 
ATOM     26  C   UNL     1       5.405   6.079  17.487  0.00  0.00    +0.000 A 
ENDBRANCH  17  25
ENDBRANCH   1  17
TORSDOF 3
ENDMDL
MODEL 6
REMARK VINA RESULT:      -8.1      3.071      8.343
REMARK  Name = 
REMARK  6 active torsions:
REMARK  status: ('A' for Active; 'I' for Inactive)
REMARK    1  A    between atoms: C_1  and  C_2
REMARK    2  A    between atoms: C_4  and  C_5
REMARK    3  A    between atoms: C_7  and  N_8
REMARK    4  A    between atoms: N_8  and  S_9
REMARK    5  A    between atoms: S_9  and  C_12
REMARK    6  A    between atoms: C_21  and  C_22
REMARK                            x       y       z     vdW  Elec       q    Type
REMARK                         _______ _______ _______ _____ _____    ______ ____
ROOT
ATOM      1  S   UNL     1       0.279  10.660  20.573  0.00  0.00    +0.000 S 
ATOM      2  O   UNL     1       1.238  11.452  21.313  0.00  0.00    +0.000 OA
ATOM      3  O   UNL     1      -0.915  10.151  21.211  0.00  0.00    +0.000 OA
ENDROOT
BRANCH   1   4
ATOM      4  C   UNL     1       1.160   9.291  19.858  0.00  0.00    +0.000 A 
ATOM      5  C   UNL     1       1.648   9.399  18.557  0.00  0.00    +0.000 A 
ATOM      6  C   UNL     1       2.346   8.330  17.997  0.00  0.00    +0.000 A 
ATOM      7  C   UNL     1       2.560   7.156  18.732  0.00  0.00    +0.000 A 
ATOM      8  C   UNL     1       2.069   7.057  20.044  0.00  0.00    +0.000 A 
ATOM      9  C   UNL     1       1.383   8.134  20.615  0.00  0.00    +0.000 A 
ATOM     10  N   UNL     1       2.159   5.865  20.782  0.00  0.00    +0.000 N 
ATOM     11  C   UNL     1       2.828   4.727  20.402  0.00  0.00    +0.000 C 
ATOM     12  O   UNL     1       2.611   3.677  21.009  0.00  0.00    +0.000 OA
ATOM     13  C   UNL     1       3.925   4.869  19.352  0.00  0.00    +0.000 C 
ATOM     14  C   UNL     1       4.457   3.520  18.880  0.00  0.00    +0.000 C 
ATOM     15  S   UNL     1       3.354   5.799  17.900  0.00  0.00    +0.000 S 
ATOM     16  H   UNL     1       1.583   5.756  21.609  0.00  0.00    +0.000 HD
ENDBRANCH   1   4
BRANCH   1  17
ATOM     17  N   UNL     1      -0.135  11.579  19.224  0.00  0.00    +0.000 N 
ATOM     18  H   UNL     1       0.235  12.526  19.279  0.00  0.00    +0.000 HD
BRANCH  17  25
ATOM     19  C   UNL     1      -4.985  12.440  19.419  0.00  0.00    +0.000 C 
ATOM     20  C   UNL     1      -3.803  11.826  18.729  0.00  0.00    +0.000 A 
ATOM     21  C   UNL     1      -3.962  11.071  17.558  0.00  0.00    +0.000 A 
ATOM     22  C   UNL     1      -2.856  10.484  16.927  0.00  0.00    +0.000 A 
ATOM     23  C   UNL     1      -3.028   9.669  15.678  0.00  0.00    +0.000 C 
ATOM     24  C   UNL     1      -1.579  10.664  17.477  0.00  0.00    +0.000 A 
ATOM     25  C   UNL     1      -1.420  11.412  18.641  0.00  0.00    +0.000 A 
ATOM     26  C   UNL     1      -2.521  11.993  19.266  0.00  0.00    +0.000 A 
ENDBRANCH  17  25
ENDBRANCH   1  17
TORSDOF 3
ENDMDL
MODEL 7
REMARK VINA RESULT:      -8.1      2.585      7.781
REMARK  Name = 
REMARK  6 active torsions:
REMARK  status: ('A' for Active; 'I' for Inactive)
REMARK    1  A    between atoms: C_1  and  C_2
REMARK    2  A    between atoms: C_4  and  C_5
REMARK    3  A    between atoms: C_7  and  N_8
REMARK    4  A    between atoms: N_8  and  S_9
REMARK    5  A    between atoms: S_9  and  C_12
REMARK    6  A    between atoms: C_21  and  C_22
REMARK                            x       y       z     vdW  Elec       q    Type
REMARK                         _______ _______ _______ _____ _____    ______ ____
ROOT
ATOM      1  S   UNL     1       0.838   8.687  21.040  0.00  0.00    +0.000 S 
ATOM      2  O   UNL     1       1.603   9.155  22.176  0.00  0.00    +0.000 OA
ATOM      3  O   UNL     1      -0.517   8.206  21.201  0.00  0.00    +0.000 OA
ENDROOT
BRANCH   1   4
ATOM      4  C   UNL     1       1.793   7.415  20.245  0.00  0.00    +0.000 A 
ATOM      5  C   UNL     1       1.800   6.129  20.785  0.00  0.00    +0.000 A 
ATOM      6  C   UNL     1       2.541   5.129  20.159  0.00  0.00    +0.000 A 
ATOM      7  C   UNL     1       3.272   5.405  18.996  0.00  0.00    +0.000 A 
ATOM      8  C   UNL     1       3.257   6.701  18.455  0.00  0.00    +0.000 A 
ATOM      9  C   UNL     1       2.500   7.704  19.072  0.00  0.00    +0.000 A 
ATOM     10  N   UNL     1       4.058   7.058  17.358  0.00  0.00    +0.000 N 
ATOM     11  C   UNL     1       4.827   6.203  16.607  0.00  0.00    +0.000 C 
ATOM     12  O   UNL     1       5.677   6.675  15.850  0.00  0.00    +0.000 OA
ATOM     13  C   UNL     1       4.469   4.720  16.634  0.00  0.00    +0.000 C 
ATOM     14  C   UNL     1       5.504   3.859  15.918  0.00  0.00    +0.000 C 
ATOM     15  S   UNL     1       4.284   4.102  18.331  0.00  0.00    +0.000 S 
ATOM     16  H   UNL     1       4.208   8.041  17.160  0.00  0.00    +0.000 HD
ENDBRANCH   1   4
BRANCH   1  17
ATOM     17  N   UNL     1       0.876   9.937  19.912  0.00  0.00    +0.000 N 
ATOM     18  H   UNL     1       1.618  10.606  20.107  0.00  0.00    +0.000 HD
BRANCH  17  25
ATOM     19  C   UNL     1      -2.488  10.002  16.308  0.00  0.00    +0.000 C 
ATOM     20  C   UNL     1      -2.007  10.491  17.642  0.00  0.00    +0.000 A 
ATOM     21  C   UNL     1      -2.723  11.460  18.359  0.00  0.00    +0.000 A 
ATOM     22  C   UNL     1      -2.259  11.927  19.597  0.00  0.00    +0.000 A 
ATOM     23  C   UNL     1      -3.022  12.970  20.360  0.00  0.00    +0.000 C 
ATOM     24  C   UNL     1      -1.064  11.410  20.119  0.00  0.00    +0.000 A 
ATOM     25  C   UNL     1      -0.350  10.450  19.407  0.00  0.00    +0.000 A 
ATOM     26  C   UNL     1      -0.814   9.988  18.176  0.00  0.00    +0.000 A 
ENDBRANCH  17  25
ENDBRANCH   1  17
TORSDOF 3
ENDMDL
MODEL 8
REMARK VINA RESULT:      -8.0      2.586      7.955
REMARK  Name = 
REMARK  6 active torsions:
REMARK  status: ('A' for Active; 'I' for Inactive)
REMARK    1  A    between atoms: C_1  and  C_2
REMARK    2  A    between atoms: C_4  and  C_5
REMARK    3  A    between atoms: C_7  and  N_8
REMARK    4  A    between atoms: N_8  and  S_9
REMARK    5  A    between atoms: S_9  and  C_12
REMARK    6  A    between atoms: C_21  and  C_22
REMARK                            x       y       z     vdW  Elec       q    Type
REMARK                         _______ _______ _______ _____ _____    ______ ____
ROOT
ATOM      1  S   UNL     1       0.819   8.709  21.058  0.00  0.00    +0.000 S 
ATOM      2  O   UNL     1       1.565   9.151  22.217  0.00  0.00    +0.000 OA
ATOM      3  O   UNL     1      -0.543   8.239  21.186  0.00  0.00    +0.000 OA
ENDROOT
BRANCH   1   4
ATOM      4  C   UNL     1       1.777   7.441  20.262  0.00  0.00    +0.000 A 
ATOM      5  C   UNL     1       1.787   6.154  20.799  0.00  0.00    +0.000 A 
ATOM      6  C   UNL     1       2.531   5.157  20.172  0.00  0.00    +0.000 A 
ATOM      7  C   UNL     1       3.262   5.437  19.010  0.00  0.00    +0.000 A 
ATOM      8  C   UNL     1       3.244   6.734  18.472  0.00  0.00    +0.000 A 
ATOM      9  C   UNL     1       2.485   7.735  19.090  0.00  0.00    +0.000 A 
ATOM     10  N   UNL     1       4.046   7.095  17.376  0.00  0.00    +0.000 N 
ATOM     11  C   UNL     1       4.818   6.244  16.624  0.00  0.00    +0.000 C 
ATOM     12  O   UNL     1       5.667   6.719  15.869  0.00  0.00    +0.000 OA
ATOM     13  C   UNL     1       4.462   4.760  16.648  0.00  0.00    +0.000 C 
ATOM     14  C   UNL     1       5.500   3.903  15.931  0.00  0.00    +0.000 C 
ATOM     15  S   UNL     1       4.278   4.137  18.344  0.00  0.00    +0.000 S 
ATOM     16  H   UNL     1       4.194   8.078  17.180  0.00  0.00    +0.000 HD
ENDBRANCH   1   4
BRANCH   1  17
ATOM     17  N   UNL     1       0.891   9.977  19.952  0.00  0.00    +0.000 N 
ATOM     18  H   UNL     1       1.612  10.654  20.193  0.00  0.00    +0.000 HD
BRANCH  17  25
ATOM     19  C   UNL     1      -3.004  12.972  20.367  0.00  0.00    +0.000 C 
ATOM     20  C   UNL     1      -2.235  11.943  19.591  0.00  0.00    +0.000 A 
ATOM     21  C   UNL     1      -2.712  11.457  18.366  0.00  0.00    +0.000 A 
ATOM     22  C   UNL     1      -1.998  10.482  17.654  0.00  0.00    +0.000 A 
ATOM     23  C   UNL     1      -2.514   9.954  16.346  0.00  0.00    +0.000 C 
ATOM     24  C   UNL     1      -0.791   9.997  18.178  0.00  0.00    +0.000 A 
ATOM     25  C   UNL     1      -0.318  10.479  19.396  0.00  0.00    +0.000 A 
ATOM     26  C   UNL     1      -1.029  11.447  20.102  0.00  0.00    +0.000 A 
ENDBRANCH  17  25
ENDBRANCH   1  17
TORSDOF 3
ENDMDL
MODEL 9
REMARK VINA RESULT:      -8.0      2.964      7.988
REMARK  Name = 
REMARK  6 active torsions:
REMARK  status: ('A' for Active; 'I' for Inactive)
REMARK    1  A    between atoms: C_1  and  C_2
REMARK    2  A    between atoms: C_4  and  C_5
REMARK    3  A    between atoms: C_7  and  N_8
REMARK    4  A    between atoms: N_8  and  S_9
REMARK    5  A    between atoms: S_9  and  C_12
REMARK    6  A    between atoms: C_21  and  C_22
REMARK                            x       y       z     vdW  Elec       q    Type
REMARK                         _______ _______ _______ _____ _____    ______ ____
ROOT
ATOM      1  S   UNL     1       0.876   9.117  21.428  0.00  0.00    +0.000 S 
ATOM      2  O   UNL     1       1.861   9.408  22.447  0.00  0.00    +0.000 OA
ATOM      3  O   UNL     1      -0.485   8.780  21.783  0.00  0.00    +0.000 OA
ENDROOT
BRANCH   1   4
ATOM      4  C   UNL     1       1.531   7.812  20.414  0.00  0.00    +0.000 A 
ATOM      5  C   UNL     1       2.161   8.132  19.212  0.00  0.00    +0.000 A 
ATOM      6  C   UNL     1       2.682   7.111  18.420  0.00  0.00    +0.000 A 
ATOM      7  C   UNL     1       2.579   5.773  18.823  0.00  0.00    +0.000 A 
ATOM      8  C   UNL     1       1.946   5.458  20.037  0.00  0.00    +0.000 A 
ATOM      9  C   UNL     1       1.437   6.482  20.843  0.00  0.00    +0.000 A 
ATOM     10  N   UNL     1       1.718   4.130  20.433  0.00  0.00    +0.000 N 
ATOM     11  C   UNL     1       2.179   3.005  19.793  0.00  0.00    +0.000 C 
ATOM     12  O   UNL     1       1.693   1.912  20.087  0.00  0.00    +0.000 OA
ATOM     13  C   UNL     1       3.384   3.160  18.871  0.00  0.00    +0.000 C 
ATOM     14  C   UNL     1       3.677   1.889  18.081  0.00  0.00    +0.000 C 
ATOM     15  S   UNL     1       3.163   4.527  17.696  0.00  0.00    +0.000 S 
ATOM     16  H   UNL     1       1.050   3.947  21.173  0.00  0.00    +0.000 HD
ENDBRANCH   1   4
BRANCH   1  17
ATOM     17  N   UNL     1       0.889  10.439  20.384  0.00  0.00    +0.000 N 
ATOM     18  H   UNL     1       1.508  11.178  20.711  0.00  0.00    +0.000 HD
BRANCH  17  25
ATOM     19  C   UNL     1      -3.187  13.211  20.456  0.00  0.00    +0.000 C 
ATOM     20  C   UNL     1      -2.327  12.186  19.777  0.00  0.00    +0.000 A 
ATOM     21  C   UNL     1      -2.722  11.598  18.568  0.00  0.00    +0.000 A 
ATOM     22  C   UNL     1      -1.923  10.627  17.947  0.00  0.00    +0.000 A 
ATOM     23  C   UNL     1      -2.350   9.992  16.655  0.00  0.00    +0.000 C 
ATOM     24  C   UNL     1      -0.713  10.250  18.547  0.00  0.00    +0.000 A 
ATOM     25  C   UNL     1      -0.321  10.832  19.750  0.00  0.00    +0.000 A 
ATOM     26  C   UNL     1      -1.118  11.795  20.365  0.00  0.00    +0.000 A 
ENDBRANCH  17  25
ENDBRANCH   1  17
TORSDOF 3
ENDMDL
