MODEL 1
REMARK VINA RESULT:      -8.8      0.000      0.000
REMARK  Name = 
REMARK  8 active torsions:
REMARK  status: ('A' for Active; 'I' for Inactive)
REMARK    1  A    between atoms: C_1  and  C_2
REMARK    2  A    between atoms: C_2  and  N_3
REMARK    3  A    between atoms: N_8  and  C_9
REMARK    4  A    between atoms: C_9  and  C_10
REMARK    5  A    between atoms: C_10  and  C_12
REMARK    6  A    between atoms: C_13  and  C_14
REMARK    7  A    between atoms: N_15  and  C_16
REMARK    8  A    between atoms: N_33  and  C_34
REMARK                            x       y       z     vdW  Elec       q    Type
REMARK                         _______ _______ _______ _____ _____    ______ ____
ROOT
ATOM      1  N   UNL     1       3.120   5.762  18.955  0.00  0.00    +0.000 N 
ATOM      2  C   UNL     1       3.200   7.104  18.614  0.00  0.00    +0.000 A 
ATOM      3  N   UNL     1       2.149   7.930  18.829  0.00  0.00    +0.000 N 
ATOM      4  C   UNL     1       1.967   9.078  17.927  0.00  0.00    +0.000 C 
ATOM      5  C   UNL     1       0.504   9.598  18.050  0.00  0.00    +0.000 C 
ATOM      6  N   UNL     1       0.013   9.851  19.438  0.00  0.00    +0.000 NA
ATOM      7  C   UNL     1       0.342   8.679  20.279  0.00  0.00    +0.000 C 
ATOM      8  C   UNL     1       1.827   8.273  20.224  0.00  0.00    +0.000 C 
ATOM      9  N   UNL     1       4.344   7.371  18.009  0.00  0.00    +0.000 NA
ATOM     10  C   UNL     1       5.038   6.202  18.033  0.00  0.00    +0.000 A 
ATOM     11  C   UNL     1       4.320   5.200  18.624  0.00  0.00    +0.000 A 
ATOM     12  C   UNL     1       4.817   3.879  18.762  0.00  0.00    +0.000 A 
ATOM     13  O   UNL     1       4.216   2.943  19.285  0.00  0.00    +0.000 OA
ATOM     14  N   UNL     1       6.075   3.729  18.238  0.00  0.00    +0.000 N 
ATOM     15  C   UNL     1       6.846   4.697  17.621  0.00  0.00    +0.000 A 
ATOM     16  O   UNL     1       7.958   4.385  17.194  0.00  0.00    +0.000 OA
ATOM     17  N   UNL     1       6.303   5.976  17.526  0.00  0.00    +0.000 N 
ATOM     18  C   UNL     1       7.052   7.040  16.889  0.00  0.00    +0.000 C 
ATOM     19  H   UNL     1       6.487   2.810  18.298  0.00  0.00    +0.000 HD
ENDROOT
BRANCH   1  21
ATOM     20  C   UNL     1       1.991   4.825  20.940  0.00  0.00    +0.000 C 
ATOM     21  C   UNL     1       1.959   5.043  19.439  0.00  0.00    +0.000 C 
ENDBRANCH   1  21
BRANCH   6  22
ATOM     22  C   UNL     1       0.582  11.117  19.954  0.00  0.00    +0.000 C 
BRANCH  22  23
ATOM     23  C   UNL     1      -0.145  12.399  19.505  0.00  0.00    +0.000 C 
ATOM     24  O   UNL     1       0.444  13.370  19.030  0.00  0.00    +0.000 OA
BRANCH  23  25
ATOM     25  C   UNL     1      -1.612  12.418  19.641  0.00  0.00    +0.000 A 
ATOM     26  C   UNL     1      -2.295  12.836  20.787  0.00  0.00    +0.000 A 
ATOM     27  C   UNL     1      -1.772  13.406  22.066  0.00  0.00    +0.000 C 
ATOM     28  N   UNL     1      -3.638  12.623  20.570  0.00  0.00    +0.000 N 
ATOM     29  C   UNL     1      -4.707  12.839  21.526  0.00  0.00    +0.000 C 
ATOM     30  C   UNL     1      -3.850  12.130  19.297  0.00  0.00    +0.000 A 
ATOM     31  C   UNL     1      -5.043  11.762  18.647  0.00  0.00    +0.000 A 
ATOM     32  C   UNL     1      -4.969  11.264  17.344  0.00  0.00    +0.000 A 
ATOM     33  C   UNL     1      -3.748  11.136  16.707  0.00  0.00    +0.000 A 
ATOM     34  C   UNL     1      -2.568  11.495  17.364  0.00  0.00    +0.000 A 
ATOM     35  C   UNL     1      -2.603  12.006  18.683  0.00  0.00    +0.000 A 
ENDBRANCH  23  25
ENDBRANCH  22  23
ENDBRANCH   6  22
TORSDOF 4
ENDMDL
MODEL 2
REMARK VINA RESULT:      -8.5      0.596      2.207
REMARK  Name = 
REMARK  8 active torsions:
REMARK  status: ('A' for Active; 'I' for Inactive)
REMARK    1  A    between atoms: C_1  and  C_2
REMARK    2  A    between atoms: C_2  and  N_3
REMARK    3  A    between atoms: N_8  and  C_9
REMARK    4  A    between atoms: C_9  and  C_10
REMARK    5  A    between atoms: C_10  and  C_12
REMARK    6  A    between atoms: C_13  and  C_14
REMARK    7  A    between atoms: N_15  and  C_16
REMARK    8  A    between atoms: N_33  and  C_34
REMARK                            x       y       z     vdW  Elec       q    Type
REMARK                         _______ _______ _______ _____ _____    ______ ____
ROOT
ATOM      1  N   UNL     1       3.199   5.785  19.179  0.00  0.00    +0.000 N 
ATOM      2  C   UNL     1       3.206   7.075  18.670  0.00  0.00    +0.000 A 
ATOM      3  N   UNL     1       2.139   7.889  18.851  0.00  0.00    +0.000 N 
ATOM      4  C   UNL     1       1.858   8.909  17.829  0.00  0.00    +0.000 C 
ATOM      5  C   UNL     1       0.386   9.396  17.984  0.00  0.00    +0.000 C 
ATOM      6  N   UNL     1      -0.027   9.806  19.360  0.00  0.00    +0.000 NA
ATOM      7  C   UNL     1       0.398   8.759  20.315  0.00  0.00    +0.000 C 
ATOM      8  C   UNL     1       1.892   8.394  20.212  0.00  0.00    +0.000 C 
ATOM      9  N   UNL     1       4.299   7.299  17.962  0.00  0.00    +0.000 NA
ATOM     10  C   UNL     1       5.038   6.163  18.085  0.00  0.00    +0.000 A 
ATOM     11  C   UNL     1       4.396   5.222  18.841  0.00  0.00    +0.000 A 
ATOM     12  C   UNL     1       4.951   3.944  19.106  0.00  0.00    +0.000 A 
ATOM     13  O   UNL     1       4.420   3.064  19.779  0.00  0.00    +0.000 OA
ATOM     14  N   UNL     1       6.179   3.768  18.522  0.00  0.00    +0.000 N 
ATOM     15  C   UNL     1       6.873   4.674  17.741  0.00  0.00    +0.000 A 
ATOM     16  O   UNL     1       7.967   4.345  17.283  0.00  0.00    +0.000 OA
ATOM     17  N   UNL     1       6.276   5.914  17.526  0.00  0.00    +0.000 N 
ATOM     18  C   UNL     1       6.943   6.912  16.715  0.00  0.00    +0.000 C 
ATOM     19  H   UNL     1       6.628   2.877  18.667  0.00  0.00    +0.000 HD
ENDROOT
BRANCH   1  21
ATOM     20  C   UNL     1       1.377   4.145  18.888  0.00  0.00    +0.000 C 
ATOM     21  C   UNL     1       2.098   5.097  19.824  0.00  0.00    +0.000 C 
ENDBRANCH   1  21
BRANCH   6  22
ATOM     22  C   UNL     1       0.524  11.143  19.677  0.00  0.00    +0.000 C 
BRANCH  22  23
ATOM     23  C   UNL     1      -0.320  12.337  19.192  0.00  0.00    +0.000 C 
ATOM     24  O   UNL     1       0.170  13.324  18.644  0.00  0.00    +0.000 OA
BRANCH  23  25
ATOM     25  C   UNL     1      -1.777  12.248  19.390  0.00  0.00    +0.000 A 
ATOM     26  C   UNL     1      -2.685  11.831  18.412  0.00  0.00    +0.000 A 
ATOM     27  C   UNL     1      -2.443  11.326  17.026  0.00  0.00    +0.000 C 
ATOM     28  N   UNL     1      -3.951  11.969  18.934  0.00  0.00    +0.000 N 
ATOM     29  C   UNL     1      -5.199  11.728  18.237  0.00  0.00    +0.000 C 
ATOM     30  C   UNL     1      -3.889  12.413  20.241  0.00  0.00    +0.000 A 
ATOM     31  C   UNL     1      -4.918  12.702  21.158  0.00  0.00    +0.000 A 
ATOM     32  C   UNL     1      -4.570  13.164  22.430  0.00  0.00    +0.000 A 
ATOM     33  C   UNL     1      -3.244  13.335  22.779  0.00  0.00    +0.000 A 
ATOM     34  C   UNL     1      -2.229  13.055  21.859  0.00  0.00    +0.000 A 
ATOM     35  C   UNL     1      -2.541  12.581  20.563  0.00  0.00    +0.000 A 
ENDBRANCH  23  25
ENDBRANCH  22  23
ENDBRANCH   6  22
TORSDOF 4
ENDMDL
MODEL 3
REMARK VINA RESULT:      -8.4      0.773      2.571
REMARK  Name = 
REMARK  8 active torsions:
REMARK  status: ('A' for Active; 'I' for Inactive)
REMARK    1  A    between atoms: C_1  and  C_2
REMARK    2  A    between atoms: C_2  and  N_3
REMARK    3  A    between atoms: N_8  and  C_9
REMARK    4  A    between atoms: C_9  and  C_10
REMARK    5  A    between atoms: C_10  and  C_12
REMARK    6  A    between atoms: C_13  and  C_14
REMARK    7  A    between atoms: N_15  and  C_16
REMARK    8  A    between atoms: N_33  and  C_34
REMARK                            x       y       z     vdW  Elec       q    Type
REMARK                         _______ _______ _______ _____ _____    ______ ____
ROOT
ATOM      1  N   UNL     1       3.124   5.791  18.923  0.00  0.00    +0.000 N 
ATOM      2  C   UNL     1       3.218   7.132  18.582  0.00  0.00    +0.000 A 
ATOM      3  N   UNL     1       2.174   7.967  18.792  0.00  0.00    +0.000 N 
ATOM      4  C   UNL     1       2.008   9.118  17.890  0.00  0.00    +0.000 C 
ATOM      5  C   UNL     1       0.549   9.652  18.005  0.00  0.00    +0.000 C 
ATOM      6  N   UNL     1       0.054   9.909  19.391  0.00  0.00    +0.000 NA
ATOM      7  C   UNL     1       0.367   8.734  20.233  0.00  0.00    +0.000 C 
ATOM      8  C   UNL     1       1.849   8.314  20.186  0.00  0.00    +0.000 C 
ATOM      9  N   UNL     1       4.368   7.388  17.982  0.00  0.00    +0.000 NA
ATOM     10  C   UNL     1       5.051   6.212  18.011  0.00  0.00    +0.000 A 
ATOM     11  C   UNL     1       4.320   5.217  18.598  0.00  0.00    +0.000 A 
ATOM     12  C   UNL     1       4.804   3.891  18.738  0.00  0.00    +0.000 A 
ATOM     13  O   UNL     1       4.192   2.961  19.258  0.00  0.00    +0.000 OA
ATOM     14  N   UNL     1       6.063   3.729  18.220  0.00  0.00    +0.000 N 
ATOM     15  C   UNL     1       6.846   4.690  17.606  0.00  0.00    +0.000 A 
ATOM     16  O   UNL     1       7.956   4.367  17.185  0.00  0.00    +0.000 OA
ATOM     17  N   UNL     1       6.315   5.974  17.509  0.00  0.00    +0.000 N 
ATOM     18  C   UNL     1       7.078   7.031  16.876  0.00  0.00    +0.000 C 
ATOM     19  H   UNL     1       6.465   2.806  18.282  0.00  0.00    +0.000 HD
ENDROOT
BRANCH   1  21
ATOM     20  C   UNL     1       1.959   4.896  20.907  0.00  0.00    +0.000 C 
ATOM     21  C   UNL     1       1.954   5.082  19.402  0.00  0.00    +0.000 C 
ENDBRANCH   1  21
BRANCH   6  22
ATOM     22  C   UNL     1       0.632  11.169  19.910  0.00  0.00    +0.000 C 
BRANCH  22  23
ATOM     23  C   UNL     1      -0.176  12.444  19.599  0.00  0.00    +0.000 C 
ATOM     24  O   UNL     1       0.190  13.284  18.777  0.00  0.00    +0.000 OA
BRANCH  23  25
ATOM     25  C   UNL     1      -1.449  12.620  20.319  0.00  0.00    +0.000 A 
ATOM     26  C   UNL     1      -2.704  12.284  19.802  0.00  0.00    +0.000 A 
ATOM     27  C   UNL     1      -3.070  11.634  18.507  0.00  0.00    +0.000 C 
ATOM     28  N   UNL     1      -3.650  12.677  20.722  0.00  0.00    +0.000 N 
ATOM     29  C   UNL     1      -5.089  12.595  20.563  0.00  0.00    +0.000 C 
ATOM     30  C   UNL     1      -3.043  13.209  21.843  0.00  0.00    +0.000 A 
ATOM     31  C   UNL     1      -3.604  13.740  23.020  0.00  0.00    +0.000 A 
ATOM     32  C   UNL     1      -2.745  14.239  24.004  0.00  0.00    +0.000 A 
ATOM     33  C   UNL     1      -1.375  14.211  23.824  0.00  0.00    +0.000 A 
ATOM     34  C   UNL     1      -0.828  13.689  22.647  0.00  0.00    +0.000 A 
ATOM     35  C   UNL     1      -1.664  13.172  21.630  0.00  0.00    +0.000 A 
ENDBRANCH  23  25
ENDBRANCH  22  23
ENDBRANCH   6  22
TORSDOF 4
ENDMDL
MODEL 4
REMARK VINA RESULT:      -8.3      1.494      3.486
REMARK  Name = 
REMARK  8 active torsions:
REMARK  status: ('A' for Active; 'I' for Inactive)
REMARK    1  A    between atoms: C_1  and  C_2
REMARK    2  A    between atoms: C_2  and  N_3
REMARK    3  A    between atoms: N_8  and  C_9
REMARK    4  A    between atoms: C_9  and  C_10
REMARK    5  A    between atoms: C_10  and  C_12
REMARK    6  A    between atoms: C_13  and  C_14
REMARK    7  A    between atoms: N_15  and  C_16
REMARK    8  A    between atoms: N_33  and  C_34
REMARK                            x       y       z     vdW  Elec       q    Type
REMARK                         _______ _______ _______ _____ _____    ______ ____
ROOT
ATOM      1  N   UNL     1       3.672   6.160  17.760  0.00  0.00    +0.000 N 
ATOM      2  C   UNL     1       2.627   6.461  18.620  0.00  0.00    +0.000 A 
ATOM      3  N   UNL     1       2.253   7.747  18.819  0.00  0.00    +0.000 N 
ATOM      4  C   UNL     1       1.675   8.112  20.123  0.00  0.00    +0.000 C 
ATOM      5  C   UNL     1       1.752   9.658  20.301  0.00  0.00    +0.000 C 
ATOM      6  N   UNL     1       1.223  10.475  19.169  0.00  0.00    +0.000 NA
ATOM      7  C   UNL     1       1.785   9.954  17.903  0.00  0.00    +0.000 C 
ATOM      8  C   UNL     1       1.578   8.440  17.709  0.00  0.00    +0.000 C 
ATOM      9  N   UNL     1       2.180   5.373  19.222  0.00  0.00    +0.000 NA
ATOM     10  C   UNL     1       2.896   4.351  18.681  0.00  0.00    +0.000 A 
ATOM     11  C   UNL     1       3.808   4.801  17.767  0.00  0.00    +0.000 A 
ATOM     12  C   UNL     1       4.688   3.933  17.071  0.00  0.00    +0.000 A 
ATOM     13  O   UNL     1       5.523   4.283  16.241  0.00  0.00    +0.000 OA
ATOM     14  N   UNL     1       4.522   2.618  17.421  0.00  0.00    +0.000 N 
ATOM     15  C   UNL     1       3.628   2.103  18.342  0.00  0.00    +0.000 A 
ATOM     16  O   UNL     1       3.620   0.889  18.544  0.00  0.00    +0.000 OA
ATOM     17  N   UNL     1       2.786   3.008  18.984  0.00  0.00    +0.000 N 
ATOM     18  C   UNL     1       1.826   2.541  19.963  0.00  0.00    +0.000 C 
ATOM     19  H   UNL     1       5.122   1.947  16.966  0.00  0.00    +0.000 HD
ENDROOT
BRANCH   1  21
ATOM     20  C   UNL     1       5.939   7.135  17.699  0.00  0.00    +0.000 C 
ATOM     21  C   UNL     1       4.554   7.090  17.083  0.00  0.00    +0.000 C 
ENDBRANCH   1  21
BRANCH   6  22
ATOM     22  C   UNL     1      -0.258  10.474  19.192  0.00  0.00    +0.000 C 
BRANCH  22  23
ATOM     23  C   UNL     1      -0.926  11.789  18.744  0.00  0.00    +0.000 C 
ATOM     24  O   UNL     1      -0.289  12.747  18.305  0.00  0.00    +0.000 OA
BRANCH  23  25
ATOM     25  C   UNL     1      -2.394  11.857  18.837  0.00  0.00    +0.000 A 
ATOM     26  C   UNL     1      -3.270  11.524  17.799  0.00  0.00    +0.000 A 
ATOM     27  C   UNL     1      -2.986  10.976  16.438  0.00  0.00    +0.000 C 
ATOM     28  N   UNL     1      -4.548  11.802  18.229  0.00  0.00    +0.000 N 
ATOM     29  C   UNL     1      -5.762  11.684  17.446  0.00  0.00    +0.000 C 
ATOM     30  C   UNL     1      -4.531  12.256  19.534  0.00  0.00    +0.000 A 
ATOM     31  C   UNL     1      -5.586  12.664  20.373  0.00  0.00    +0.000 A 
ATOM     32  C   UNL     1      -5.281  13.105  21.663  0.00  0.00    +0.000 A 
ATOM     33  C   UNL     1      -3.972  13.140  22.106  0.00  0.00    +0.000 A 
ATOM     34  C   UNL     1      -2.931  12.742  21.262  0.00  0.00    +0.000 A 
ATOM     35  C   UNL     1      -3.199  12.285  19.950  0.00  0.00    +0.000 A 
ENDBRANCH  23  25
ENDBRANCH  22  23
ENDBRANCH   6  22
TORSDOF 4
ENDMDL
MODEL 5
REMARK VINA RESULT:      -8.2      1.441      3.531
REMARK  Name = 
REMARK  8 active torsions:
REMARK  status: ('A' for Active; 'I' for Inactive)
REMARK    1  A    between atoms: C_1  and  C_2
REMARK    2  A    between atoms: C_2  and  N_3
REMARK    3  A    between atoms: N_8  and  C_9
REMARK    4  A    between atoms: C_9  and  C_10
REMARK    5  A    between atoms: C_10  and  C_12
REMARK    6  A    between atoms: C_13  and  C_14
REMARK    7  A    between atoms: N_15  and  C_16
REMARK    8  A    between atoms: N_33  and  C_34
REMARK                            x       y       z     vdW  Elec       q    Type
REMARK                         _______ _______ _______ _____ _____    ______ ____
ROOT
ATOM      1  N   UNL     1       3.831   6.412  18.660  0.00  0.00    +0.000 N 
ATOM      2  C   UNL     1       2.663   6.762  19.322  0.00  0.00    +0.000 A 
ATOM      3  N   UNL     1       2.153   8.010  19.198  0.00  0.00    +0.000 N 
ATOM      4  C   UNL     1       1.386   8.564  20.325  0.00  0.00    +0.000 C 
ATOM      5  C   UNL     1       1.301  10.113  20.172  0.00  0.00    +0.000 C 
ATOM      6  N   UNL     1       0.847  10.616  18.841  0.00  0.00    +0.000 NA
ATOM      7  C   UNL     1       1.608   9.915  17.783  0.00  0.00    +0.000 C 
ATOM      8  C   UNL     1       1.564   8.379  17.900  0.00  0.00    +0.000 C 
ATOM      9  N   UNL     1       2.244   5.775  20.094  0.00  0.00    +0.000 NA
ATOM     10  C   UNL     1       3.111   4.753  19.864  0.00  0.00    +0.000 A 
ATOM     11  C   UNL     1       4.086   5.108  18.975  0.00  0.00    +0.000 A 
ATOM     12  C   UNL     1       5.121   4.222  18.578  0.00  0.00    +0.000 A 
ATOM     13  O   UNL     1       6.019   4.489  17.783  0.00  0.00    +0.000 OA
ATOM     14  N   UNL     1       5.031   2.996  19.184  0.00  0.00    +0.000 N 
ATOM     15  C   UNL     1       4.078   2.581  20.097  0.00  0.00    +0.000 A 
ATOM     16  O   UNL     1       4.154   1.441  20.554  0.00  0.00    +0.000 OA
ATOM     17  N   UNL     1       3.084   3.496  20.437  0.00  0.00    +0.000 N 
ATOM     18  C   UNL     1       2.054   3.132  21.390  0.00  0.00    +0.000 C 
ATOM     19  H   UNL     1       5.740   2.319  18.950  0.00  0.00    +0.000 HD
ENDROOT
BRANCH   1  21
ATOM     20  C   UNL     1       4.623   7.016  16.401  0.00  0.00    +0.000 C 
ATOM     21  C   UNL     1       4.704   7.279  17.893  0.00  0.00    +0.000 C 
ENDBRANCH   1  21
BRANCH   6  22
ATOM     22  C   UNL     1      -0.619  10.451  18.710  0.00  0.00    +0.000 C 
BRANCH  22  23
ATOM     23  C   UNL     1      -1.395  11.724  18.324  0.00  0.00    +0.000 C 
ATOM     24  O   UNL     1      -0.876  12.668  17.726  0.00  0.00    +0.000 OA
BRANCH  23  25
ATOM     25  C   UNL     1      -2.823  11.770  18.680  0.00  0.00    +0.000 A 
ATOM     26  C   UNL     1      -3.864  11.391  17.829  0.00  0.00    +0.000 A 
ATOM     27  C   UNL     1      -3.820  10.807  16.453  0.00  0.00    +0.000 C 
ATOM     28  N   UNL     1      -5.049  11.660  18.476  0.00  0.00    +0.000 N 
ATOM     29  C   UNL     1      -6.383  11.498  17.930  0.00  0.00    +0.000 C 
ATOM     30  C   UNL     1      -4.807  12.154  19.743  0.00  0.00    +0.000 A 
ATOM     31  C   UNL     1      -5.701  12.569  20.748  0.00  0.00    +0.000 A 
ATOM     32  C   UNL     1      -5.177  13.054  21.950  0.00  0.00    +0.000 A 
ATOM     33  C   UNL     1      -3.811  13.125  22.146  0.00  0.00    +0.000 A 
ATOM     34  C   UNL     1      -2.931  12.719  21.138  0.00  0.00    +0.000 A 
ATOM     35  C   UNL     1      -3.423  12.219  19.909  0.00  0.00    +0.000 A 
ENDBRANCH  23  25
ENDBRANCH  22  23
ENDBRANCH   6  22
TORSDOF 4
ENDMDL
MODEL 6
REMARK VINA RESULT:      -8.2      0.746      1.138
REMARK  Name = 
REMARK  8 active torsions:
REMARK  status: ('A' for Active; 'I' for Inactive)
REMARK    1  A    between atoms: C_1  and  C_2
REMARK    2  A    between atoms: C_2  and  N_3
REMARK    3  A    between atoms: N_8  and  C_9
REMARK    4  A    between atoms: C_9  and  C_10
REMARK    5  A    between atoms: C_10  and  C_12
REMARK    6  A    between atoms: C_13  and  C_14
REMARK    7  A    between atoms: N_15  and  C_16
REMARK    8  A    between atoms: N_33  and  C_34
REMARK                            x       y       z     vdW  Elec       q    Type
REMARK                         _______ _______ _______ _____ _____    ______ ____
ROOT
ATOM      1  N   UNL     1       3.157   5.800  19.183  0.00  0.00    +0.000 N 
ATOM      2  C   UNL     1       3.181   7.098  18.694  0.00  0.00    +0.000 A 
ATOM      3  N   UNL     1       2.124   7.922  18.888  0.00  0.00    +0.000 N 
ATOM      4  C   UNL     1       1.857   8.961  17.881  0.00  0.00    +0.000 C 
ATOM      5  C   UNL     1       0.391   9.464  18.043  0.00  0.00    +0.000 C 
ATOM      6  N   UNL     1      -0.018   9.858  19.424  0.00  0.00    +0.000 NA
ATOM      7  C   UNL     1       0.394   8.792  20.364  0.00  0.00    +0.000 C 
ATOM      8  C   UNL     1       1.882   8.410  20.256  0.00  0.00    +0.000 C 
ATOM      9  N   UNL     1       4.277   7.318  17.990  0.00  0.00    +0.000 NA
ATOM     10  C   UNL     1       5.001   6.172  18.096  0.00  0.00    +0.000 A 
ATOM     11  C   UNL     1       4.347   5.228  18.837  0.00  0.00    +0.000 A 
ATOM     12  C   UNL     1       4.887   3.939  19.084  0.00  0.00    +0.000 A 
ATOM     13  O   UNL     1       4.344   3.055  19.743  0.00  0.00    +0.000 OA
ATOM     14  N   UNL     1       6.112   3.756  18.497  0.00  0.00    +0.000 N 
ATOM     15  C   UNL     1       6.818   4.665  17.730  0.00  0.00    +0.000 A 
ATOM     16  O   UNL     1       7.907   4.329  17.268  0.00  0.00    +0.000 OA
ATOM     17  N   UNL     1       6.236   5.915  17.533  0.00  0.00    +0.000 N 
ATOM     18  C   UNL     1       6.917   6.918  16.738  0.00  0.00    +0.000 C 
ATOM     19  H   UNL     1       6.550   2.857  18.629  0.00  0.00    +0.000 HD
ENDROOT
BRANCH   1  21
ATOM     20  C   UNL     1       1.339   4.159  18.878  0.00  0.00    +0.000 C 
ATOM     21  C   UNL     1       2.048   5.116  19.818  0.00  0.00    +0.000 C 
ENDBRANCH   1  21
BRANCH   6  22
ATOM     22  C   UNL     1       0.550  11.183  19.762  0.00  0.00    +0.000 C 
BRANCH  22  23
ATOM     23  C   UNL     1      -0.291  12.395  19.315  0.00  0.00    +0.000 C 
ATOM     24  O   UNL     1       0.000  13.088  18.340  0.00  0.00    +0.000 OA
BRANCH  23  25
ATOM     25  C   UNL     1      -1.501  12.694  20.100  0.00  0.00    +0.000 A 
ATOM     26  C   UNL     1      -1.499  13.299  21.359  0.00  0.00    +0.000 A 
ATOM     27  C   UNL     1      -0.363  13.840  22.167  0.00  0.00    +0.000 C 
ATOM     28  N   UNL     1      -2.800  13.327  21.809  0.00  0.00    +0.000 N 
ATOM     29  C   UNL     1      -3.252  13.794  23.106  0.00  0.00    +0.000 C 
ATOM     30  C   UNL     1      -3.653  12.804  20.856  0.00  0.00    +0.000 A 
ATOM     31  C   UNL     1      -5.049  12.625  20.878  0.00  0.00    +0.000 A 
ATOM     32  C   UNL     1      -5.666  12.043  19.768  0.00  0.00    +0.000 A 
ATOM     33  C   UNL     1      -4.921  11.652  18.671  0.00  0.00    +0.000 A 
ATOM     34  C   UNL     1      -3.534  11.826  18.662  0.00  0.00    +0.000 A 
ATOM     35  C   UNL     1      -2.873  12.415  19.766  0.00  0.00    +0.000 A 
ENDBRANCH  23  25
ENDBRANCH  22  23
ENDBRANCH   6  22
TORSDOF 4
ENDMDL
MODEL 7
REMARK VINA RESULT:      -8.2      1.558      2.935
REMARK  Name = 
REMARK  8 active torsions:
REMARK  status: ('A' for Active; 'I' for Inactive)
REMARK    1  A    between atoms: C_1  and  C_2
REMARK    2  A    between atoms: C_2  and  N_3
REMARK    3  A    between atoms: N_8  and  C_9
REMARK    4  A    between atoms: C_9  and  C_10
REMARK    5  A    between atoms: C_10  and  C_12
REMARK    6  A    between atoms: C_13  and  C_14
REMARK    7  A    between atoms: N_15  and  C_16
REMARK    8  A    between atoms: N_33  and  C_34
REMARK                            x       y       z     vdW  Elec       q    Type
REMARK                         _______ _______ _______ _____ _____    ______ ____
ROOT
ATOM      1  N   UNL     1       3.500   6.199  17.912  0.00  0.00    +0.000 N 
ATOM      2  C   UNL     1       2.538   6.441  18.881  0.00  0.00    +0.000 A 
ATOM      3  N   UNL     1       2.157   7.709  19.166  0.00  0.00    +0.000 N 
ATOM      4  C   UNL     1       1.702   8.010  20.533  0.00  0.00    +0.000 C 
ATOM      5  C   UNL     1       1.762   9.549  20.764  0.00  0.00    +0.000 C 
ATOM      6  N   UNL     1       1.105  10.394  19.721  0.00  0.00    +0.000 NA
ATOM      7  C   UNL     1       1.552   9.935  18.387  0.00  0.00    +0.000 C 
ATOM      8  C   UNL     1       1.361   8.424  18.155  0.00  0.00    +0.000 C 
ATOM      9  N   UNL     1       2.177   5.320  19.480  0.00  0.00    +0.000 NA
ATOM     10  C   UNL     1       2.859   4.338  18.832  0.00  0.00    +0.000 A 
ATOM     11  C   UNL     1       3.667   4.845  17.852  0.00  0.00    +0.000 A 
ATOM     12  C   UNL     1       4.493   4.026  17.041  0.00  0.00    +0.000 A 
ATOM     13  O   UNL     1       5.235   4.428  16.147  0.00  0.00    +0.000 OA
ATOM     14  N   UNL     1       4.392   2.695  17.353  0.00  0.00    +0.000 N 
ATOM     15  C   UNL     1       3.604   2.123  18.336  0.00  0.00    +0.000 A 
ATOM     16  O   UNL     1       3.643   0.903  18.489  0.00  0.00    +0.000 OA
ATOM     17  N   UNL     1       2.809   2.982  19.091  0.00  0.00    +0.000 N 
ATOM     18  C   UNL     1       1.960   2.454  20.141  0.00  0.00    +0.000 C 
ATOM     19  H   UNL     1       4.958   2.057  16.816  0.00  0.00    +0.000 HD
ENDROOT
BRANCH   1  21
ATOM     20  C   UNL     1       5.738   7.206  17.642  0.00  0.00    +0.000 C 
ATOM     21  C   UNL     1       4.290   7.176  17.189  0.00  0.00    +0.000 C 
ENDBRANCH   1  21
BRANCH   6  22
ATOM     22  C   UNL     1      -0.365  10.354  19.888  0.00  0.00    +0.000 C 
BRANCH  22  23
ATOM     23  C   UNL     1      -1.063  11.727  19.922  0.00  0.00    +0.000 C 
ATOM     24  O   UNL     1      -0.565  12.717  20.457  0.00  0.00    +0.000 OA
BRANCH  23  25
ATOM     25  C   UNL     1      -2.373  11.827  19.255  0.00  0.00    +0.000 A 
ATOM     26  C   UNL     1      -3.531  12.329  19.855  0.00  0.00    +0.000 A 
ATOM     27  C   UNL     1      -3.732  12.928  21.210  0.00  0.00    +0.000 C 
ATOM     28  N   UNL     1      -4.564  12.176  18.957  0.00  0.00    +0.000 N 
ATOM     29  C   UNL     1      -5.960  12.488  19.192  0.00  0.00    +0.000 C 
ATOM     30  C   UNL     1      -4.099  11.638  17.773  0.00  0.00    +0.000 A 
ATOM     31  C   UNL     1      -4.785  11.303  16.590  0.00  0.00    +0.000 A 
ATOM     32  C   UNL     1      -4.062  10.744  15.533  0.00  0.00    +0.000 A 
ATOM     33  C   UNL     1      -2.702  10.525  15.647  0.00  0.00    +0.000 A 
ATOM     34  C   UNL     1      -2.031  10.853  16.829  0.00  0.00    +0.000 A 
ATOM     35  C   UNL     1      -2.728  11.424  17.920  0.00  0.00    +0.000 A 
ENDBRANCH  23  25
ENDBRANCH  22  23
ENDBRANCH   6  22
TORSDOF 4
ENDMDL
MODEL 8
REMARK VINA RESULT:      -8.2      1.084      2.498
REMARK  Name = 
REMARK  8 active torsions:
REMARK  status: ('A' for Active; 'I' for Inactive)
REMARK    1  A    between atoms: C_1  and  C_2
REMARK    2  A    between atoms: C_2  and  N_3
REMARK    3  A    between atoms: N_8  and  C_9
REMARK    4  A    between atoms: C_9  and  C_10
REMARK    5  A    between atoms: C_10  and  C_12
REMARK    6  A    between atoms: C_13  and  C_14
REMARK    7  A    between atoms: N_15  and  C_16
REMARK    8  A    between atoms: N_33  and  C_34
REMARK                            x       y       z     vdW  Elec       q    Type
REMARK                         _______ _______ _______ _____ _____    ______ ____
ROOT
ATOM      1  N   UNL     1       2.716   5.712  19.864  0.00  0.00    +0.000 N 
ATOM      2  C   UNL     1       2.648   7.008  19.373  0.00  0.00    +0.000 A 
ATOM      3  N   UNL     1       1.674   7.849  19.792  0.00  0.00    +0.000 N 
ATOM      4  C   UNL     1       1.204   8.889  18.864  0.00  0.00    +0.000 C 
ATOM      5  C   UNL     1      -0.181   9.416  19.346  0.00  0.00    +0.000 C 
ATOM      6  N   UNL     1      -0.264   9.822  20.781  0.00  0.00    +0.000 NA
ATOM      7  C   UNL     1       0.332   8.752  21.612  0.00  0.00    +0.000 C 
ATOM      8  C   UNL     1       1.753   8.346  21.176  0.00  0.00    +0.000 C 
ATOM      9  N   UNL     1       3.562   7.208  18.440  0.00  0.00    +0.000 NA
ATOM     10  C   UNL     1       4.275   6.050  18.388  0.00  0.00    +0.000 A 
ATOM     11  C   UNL     1       3.790   5.119  19.264  0.00  0.00    +0.000 A 
ATOM     12  C   UNL     1       4.351   3.823  19.392  0.00  0.00    +0.000 A 
ATOM     13  O   UNL     1       3.957   2.950  20.163  0.00  0.00    +0.000 OA
ATOM     14  N   UNL     1       5.411   3.618  18.548  0.00  0.00    +0.000 N 
ATOM     15  C   UNL     1       5.940   4.513  17.635  0.00  0.00    +0.000 A 
ATOM     16  O   UNL     1       6.894   4.158  16.943  0.00  0.00    +0.000 OA
ATOM     17  N   UNL     1       5.348   5.772  17.565  0.00  0.00    +0.000 N 
ATOM     18  C   UNL     1       5.848   6.760  16.630  0.00  0.00    +0.000 C 
ATOM     19  H   UNL     1       5.854   2.713  18.584  0.00  0.00    +0.000 HD
ENDROOT
BRANCH   1  21
ATOM     20  C   UNL     1       0.833   4.121  19.981  0.00  0.00    +0.000 C 
ATOM     21  C   UNL     1       1.767   5.048  20.735  0.00  0.00    +0.000 C 
ENDBRANCH   1  21
BRANCH   6  22
ATOM     22  C   UNL     1       0.385  11.138  20.974  0.00  0.00    +0.000 C 
BRANCH  22  23
ATOM     23  C   UNL     1      -0.335  12.331  20.316  0.00  0.00    +0.000 C 
ATOM     24  O   UNL     1       0.262  13.219  19.706  0.00  0.00    +0.000 OA
BRANCH  23  25
ATOM     25  C   UNL     1      -1.804  12.366  20.422  0.00  0.00    +0.000 A 
ATOM     26  C   UNL     1      -2.680  12.162  19.352  0.00  0.00    +0.000 A 
ATOM     27  C   UNL     1      -2.395  11.806  17.929  0.00  0.00    +0.000 C 
ATOM     28  N   UNL     1      -3.959  12.363  19.819  0.00  0.00    +0.000 N 
ATOM     29  C   UNL     1      -5.176  12.334  19.031  0.00  0.00    +0.000 C 
ATOM     30  C   UNL     1      -3.942  12.638  21.173  0.00  0.00    +0.000 A 
ATOM     31  C   UNL     1      -4.998  12.916  22.062  0.00  0.00    +0.000 A 
ATOM     32  C   UNL     1      -4.693  13.185  23.399  0.00  0.00    +0.000 A 
ATOM     33  C   UNL     1      -3.382  13.178  23.838  0.00  0.00    +0.000 A 
ATOM     34  C   UNL     1      -2.340  12.911  22.945  0.00  0.00    +0.000 A 
ATOM     35  C   UNL     1      -2.609  12.631  21.585  0.00  0.00    +0.000 A 
ENDBRANCH  23  25
ENDBRANCH  22  23
ENDBRANCH   6  22
TORSDOF 4
ENDMDL
MODEL 9
REMARK VINA RESULT:      -8.2      1.144      1.359
REMARK  Name = 
REMARK  8 active torsions:
REMARK  status: ('A' for Active; 'I' for Inactive)
REMARK    1  A    between atoms: C_1  and  C_2
REMARK    2  A    between atoms: C_2  and  N_3
REMARK    3  A    between atoms: N_8  and  C_9
REMARK    4  A    between atoms: C_9  and  C_10
REMARK    5  A    between atoms: C_10  and  C_12
REMARK    6  A    between atoms: C_13  and  C_14
REMARK    7  A    between atoms: N_15  and  C_16
REMARK    8  A    between atoms: N_33  and  C_34
REMARK                            x       y       z     vdW  Elec       q    Type
REMARK                         _______ _______ _______ _____ _____    ______ ____
ROOT
ATOM      1  N   UNL     1       2.628   5.811  19.794  0.00  0.00    +0.000 N 
ATOM      2  C   UNL     1       2.555   7.095  19.276  0.00  0.00    +0.000 A 
ATOM      3  N   UNL     1       1.657   7.982  19.767  0.00  0.00    +0.000 N 
ATOM      4  C   UNL     1       1.130   9.015  18.861  0.00  0.00    +0.000 C 
ATOM      5  C   UNL     1      -0.181   9.603  19.464  0.00  0.00    +0.000 C 
ATOM      6  N   UNL     1      -0.105  10.046  20.889  0.00  0.00    +0.000 NA
ATOM      7  C   UNL     1       0.536   8.976  21.685  0.00  0.00    +0.000 C 
ATOM      8  C   UNL     1       1.891   8.509  21.121  0.00  0.00    +0.000 C 
ATOM      9  N   UNL     1       3.376   7.240  18.251  0.00  0.00    +0.000 NA
ATOM     10  C   UNL     1       4.041   6.056  18.161  0.00  0.00    +0.000 A 
ATOM     11  C   UNL     1       3.616   5.165  19.106  0.00  0.00    +0.000 A 
ATOM     12  C   UNL     1       4.144   3.853  19.214  0.00  0.00    +0.000 A 
ATOM     13  O   UNL     1       3.801   3.014  20.044  0.00  0.00    +0.000 OA
ATOM     14  N   UNL     1       5.106   3.589  18.274  0.00  0.00    +0.000 N 
ATOM     15  C   UNL     1       5.570   4.442  17.289  0.00  0.00    +0.000 A 
ATOM     16  O   UNL     1       6.436   4.036  16.515  0.00  0.00    +0.000 OA
ATOM     17  N   UNL     1       5.016   5.719  17.243  0.00  0.00    +0.000 N 
ATOM     18  C   UNL     1       5.452   6.666  16.235  0.00  0.00    +0.000 C 
ATOM     19  H   UNL     1       5.520   2.670  18.292  0.00  0.00    +0.000 HD
ENDROOT
BRANCH   1  21
ATOM     20  C   UNL     1       0.777   4.218  20.154  0.00  0.00    +0.000 C 
ATOM     21  C   UNL     1       1.750   5.203  20.774  0.00  0.00    +0.000 C 
ENDBRANCH   1  21
BRANCH   6  22
ATOM     22  C   UNL     1       0.604  11.343  20.979  0.00  0.00    +0.000 C 
BRANCH  22  23
ATOM     23  C   UNL     1      -0.144  12.547  20.375  0.00  0.00    +0.000 C 
ATOM     24  O   UNL     1       0.375  13.322  19.571  0.00  0.00    +0.000 OA
BRANCH  23  25
ATOM     25  C   UNL     1      -1.548  12.734  20.782  0.00  0.00    +0.000 A 
ATOM     26  C   UNL     1      -1.952  13.241  22.020  0.00  0.00    +0.000 A 
ATOM     27  C   UNL     1      -1.138  13.765  23.159  0.00  0.00    +0.000 C 
ATOM     28  N   UNL     1      -3.327  13.179  22.065  0.00  0.00    +0.000 N 
ATOM     29  C   UNL     1      -4.166  13.527  23.196  0.00  0.00    +0.000 C 
ATOM     30  C   UNL     1      -3.828  12.697  20.872  0.00  0.00    +0.000 A 
ATOM     31  C   UNL     1      -5.156  12.458  20.469  0.00  0.00    +0.000 A 
ATOM     32  C   UNL     1      -5.384  11.938  19.192  0.00  0.00    +0.000 A 
ATOM     33  C   UNL     1      -4.328  11.664  18.344  0.00  0.00    +0.000 A 
ATOM     34  C   UNL     1      -3.012  11.895  18.756  0.00  0.00    +0.000 A 
ATOM     35  C   UNL     1      -2.741  12.425  20.040  0.00  0.00    +0.000 A 
ENDBRANCH  23  25
ENDBRANCH  22  23
ENDBRANCH   6  22
TORSDOF 4
ENDMDL
