MODEL 1
REMARK VINA RESULT:      -7.6      0.000      0.000
REMARK  Name = 
REMARK  3 active torsions:
REMARK  status: ('A' for Active; 'I' for Inactive)
REMARK    1  A    between atoms: C_2  and  O_3
REMARK    2  A    between atoms: C_2  and  C_4
REMARK    3  A    between atoms: C_15  and  C_16
REMARK                            x       y       z     vdW  Elec       q    Type
REMARK                         _______ _______ _______ _____ _____    ______ ____
ROOT
ATOM      1  C   UNL     1       7.819   8.049  18.205  0.00  0.00    +0.000 A 
ATOM      2  C   UNL     1       8.467   6.894  18.649  0.00  0.00    +0.000 A 
ATOM      3  C   UNL     1       7.864   5.648  18.467  0.00  0.00    +0.000 A 
ATOM      4  C   UNL     1       6.625   5.534  17.822  0.00  0.00    +0.000 A 
ATOM      5  C   UNL     1       5.941   6.701  17.436  0.00  0.00    +0.000 A 
ATOM      6  C   UNL     1       6.551   7.954  17.625  0.00  0.00    +0.000 A 
ATOM      7  C   UNL     1       4.584   6.618  16.770  0.00  0.00    +0.000 C 
ATOM      8  C   UNL     1       3.492   7.280  17.570  0.00  0.00    +0.000 C 
ATOM      9  C   UNL     1       2.708   6.389  18.188  0.00  0.00    +0.000 C 
ATOM     10  C   UNL     1       3.152   4.991  17.903  0.00  0.00    +0.000 C 
ATOM     11  C   UNL     1       4.029   5.184  16.651  0.00  0.00    +0.000 C 
ATOM     12  C   UNL     1       5.133   4.131  16.491  0.00  0.00    +0.000 C 
ATOM     13  N   UNL     1       6.079   4.265  17.603  0.00  0.00    +0.000 N 
ATOM     14  H   UNL     1       6.715   3.483  17.715  0.00  0.00    +0.000 HD
ENDROOT
BRANCH  12  15
ATOM     15  C   UNL     1       5.806   4.147  15.106  0.00  0.00    +0.000 A 
ATOM     16  C   UNL     1       7.044   4.768  14.855  0.00  0.00    +0.000 A 
ATOM     17  C   UNL     1       7.600   4.812  13.572  0.00  0.00    +0.000 A 
ATOM     18  C   UNL     1       6.944   4.208  12.503  0.00  0.00    +0.000 A 
ATOM     19  C   UNL     1       5.737   3.553  12.736  0.00  0.00    +0.000 A 
ATOM     20 CL   UNL     1       4.928   2.784  11.424  0.00  0.00    +0.000 Cl
ATOM     21  C   UNL     1       5.172   3.519  14.019  0.00  0.00    +0.000 A 
ENDBRANCH  12  15
BRANCH   1  23
ATOM     22  O   UNL     1       8.197  10.317  17.588  0.00  0.00    +0.000 OA
ATOM     23  C   UNL     1       8.424   9.396  18.352  0.00  0.00    +0.000 C 
BRANCH  23  24
ATOM     24  O   UNL     1       9.298   9.486  19.379  0.00  0.00    +0.000 OA
ATOM     25  H   UNL     1       8.989  10.019  20.134  0.00  0.00    +0.000 HD
ENDBRANCH  23  24
ENDBRANCH   1  23
TORSDOF 3
ENDMDL
MODEL 2
REMARK VINA RESULT:      -7.2      4.357      6.255
REMARK  Name = 
REMARK  3 active torsions:
REMARK  status: ('A' for Active; 'I' for Inactive)
REMARK    1  A    between atoms: C_2  and  O_3
REMARK    2  A    between atoms: C_2  and  C_4
REMARK    3  A    between atoms: C_15  and  C_16
REMARK                            x       y       z     vdW  Elec       q    Type
REMARK                         _______ _______ _______ _____ _____    ______ ____
ROOT
ATOM      1  C   UNL     1       1.778   3.403  20.690  0.00  0.00    +0.000 A 
ATOM      2  C   UNL     1       1.353   2.924  19.448  0.00  0.00    +0.000 A 
ATOM      3  C   UNL     1       1.399   3.760  18.331  0.00  0.00    +0.000 A 
ATOM      4  C   UNL     1       1.890   5.070  18.430  0.00  0.00    +0.000 A 
ATOM      5  C   UNL     1       2.253   5.573  19.691  0.00  0.00    +0.000 A 
ATOM      6  C   UNL     1       2.201   4.729  20.815  0.00  0.00    +0.000 A 
ATOM      7  C   UNL     1       2.753   6.995  19.842  0.00  0.00    +0.000 C 
ATOM      8  C   UNL     1       1.866   7.842  20.719  0.00  0.00    +0.000 C 
ATOM      9  C   UNL     1       1.116   8.692  20.007  0.00  0.00    +0.000 C 
ATOM     10  C   UNL     1       1.378   8.547  18.543  0.00  0.00    +0.000 C 
ATOM     11  C   UNL     1       2.732   7.810  18.533  0.00  0.00    +0.000 C 
ATOM     12  C   UNL     1       2.964   6.943  17.290  0.00  0.00    +0.000 C 
ATOM     13  N   UNL     1       1.978   5.858  17.278  0.00  0.00    +0.000 N 
ATOM     14  H   UNL     1       1.900   5.365  16.396  0.00  0.00    +0.000 HD
ENDROOT
BRANCH  12  15
ATOM     15  C   UNL     1       4.417   6.455  17.140  0.00  0.00    +0.000 A 
ATOM     16  C   UNL     1       4.758   5.187  16.630  0.00  0.00    +0.000 A 
ATOM     17  C   UNL     1       6.086   4.755  16.559  0.00  0.00    +0.000 A 
ATOM     18  C   UNL     1       7.119   5.592  16.971  0.00  0.00    +0.000 A 
ATOM     19  C   UNL     1       6.807   6.865  17.441  0.00  0.00    +0.000 A 
ATOM     20 CL   UNL     1       8.079   7.917  17.933  0.00  0.00    +0.000 Cl
ATOM     21  C   UNL     1       5.476   7.297  17.524  0.00  0.00    +0.000 A 
ENDBRANCH  12  15
BRANCH   1  23
ATOM     22  O   UNL     1       0.782   2.375  22.592  0.00  0.00    +0.000 OA
ATOM     23  C   UNL     1       1.772   2.551  21.905  0.00  0.00    +0.000 C 
BRANCH  23  24
ATOM     24  O   UNL     1       2.985   2.039  22.211  0.00  0.00    +0.000 OA
ATOM     25  H   UNL     1       3.181   1.177  21.800  0.00  0.00    +0.000 HD
ENDBRANCH  23  24
ENDBRANCH   1  23
TORSDOF 3
ENDMDL
MODEL 3
REMARK VINA RESULT:      -7.1      9.728     12.367
REMARK  Name = 
REMARK  3 active torsions:
REMARK  status: ('A' for Active; 'I' for Inactive)
REMARK    1  A    between atoms: C_2  and  O_3
REMARK    2  A    between atoms: C_2  and  C_4
REMARK    3  A    between atoms: C_15  and  C_16
REMARK                            x       y       z     vdW  Elec       q    Type
REMARK                         _______ _______ _______ _____ _____    ______ ____
ROOT
ATOM      1  C   UNL     1      -0.849  10.848  20.410  0.00  0.00    +0.000 A 
ATOM      2  C   UNL     1      -1.270  12.138  20.739  0.00  0.00    +0.000 A 
ATOM      3  C   UNL     1      -2.354  12.706  20.066  0.00  0.00    +0.000 A 
ATOM      4  C   UNL     1      -3.046  11.991  19.080  0.00  0.00    +0.000 A 
ATOM      5  C   UNL     1      -2.581  10.719  18.702  0.00  0.00    +0.000 A 
ATOM      6  C   UNL     1      -1.486  10.152  19.378  0.00  0.00    +0.000 A 
ATOM      7  C   UNL     1      -3.282   9.932  17.614  0.00  0.00    +0.000 C 
ATOM      8  C   UNL     1      -2.399   9.657  16.423  0.00  0.00    +0.000 C 
ATOM      9  C   UNL     1      -2.699  10.441  15.381  0.00  0.00    +0.000 C 
ATOM     10  C   UNL     1      -3.825  11.367  15.709  0.00  0.00    +0.000 C 
ATOM     11  C   UNL     1      -4.447  10.686  16.943  0.00  0.00    +0.000 C 
ATOM     12  C   UNL     1      -5.157  11.653  17.900  0.00  0.00    +0.000 C 
ATOM     13  N   UNL     1      -4.164  12.568  18.471  0.00  0.00    +0.000 N 
ATOM     14  H   UNL     1      -4.554  13.380  18.936  0.00  0.00    +0.000 HD
ENDROOT
BRANCH  12  15
ATOM     15  C   UNL     1      -6.024  10.948  18.960  0.00  0.00    +0.000 A 
ATOM     16  C   UNL     1      -6.373   9.585  18.891  0.00  0.00    +0.000 A 
ATOM     17  C   UNL     1      -7.208   8.990  19.841  0.00  0.00    +0.000 A 
ATOM     18  C   UNL     1      -7.698   9.736  20.910  0.00  0.00    +0.000 A 
ATOM     19  C   UNL     1      -7.333  11.075  21.019  0.00  0.00    +0.000 A 
ATOM     20 CL   UNL     1      -7.916  12.002  22.349  0.00  0.00    +0.000 Cl
ATOM     21  C   UNL     1      -6.505  11.678  20.061  0.00  0.00    +0.000 A 
ENDBRANCH  12  15
BRANCH   1  23
ATOM     22  O   UNL     1       1.131  10.798  21.730  0.00  0.00    +0.000 OA
ATOM     23  C   UNL     1       0.282  10.187  21.108  0.00  0.00    +0.000 C 
BRANCH  23  24
ATOM     24  O   UNL     1       0.313   8.846  20.934  0.00  0.00    +0.000 OA
ATOM     25  H   UNL     1      -0.463   8.475  20.475  0.00  0.00    +0.000 HD
ENDBRANCH  23  24
ENDBRANCH   1  23
TORSDOF 3
ENDMDL
MODEL 4
REMARK VINA RESULT:      -7.0      3.995      5.908
REMARK  Name = 
REMARK  3 active torsions:
REMARK  status: ('A' for Active; 'I' for Inactive)
REMARK    1  A    between atoms: C_2  and  O_3
REMARK    2  A    between atoms: C_2  and  C_4
REMARK    3  A    between atoms: C_15  and  C_16
REMARK                            x       y       z     vdW  Elec       q    Type
REMARK                         _______ _______ _______ _____ _____    ______ ____
ROOT
ATOM      1  C   UNL     1       1.864   3.478  20.593  0.00  0.00    +0.000 A 
ATOM      2  C   UNL     1       1.455   3.014  19.340  0.00  0.00    +0.000 A 
ATOM      3  C   UNL     1       1.488   3.873  18.239  0.00  0.00    +0.000 A 
ATOM      4  C   UNL     1       1.951   5.189  18.365  0.00  0.00    +0.000 A 
ATOM      5  C   UNL     1       2.300   5.676  19.637  0.00  0.00    +0.000 A 
ATOM      6  C   UNL     1       2.260   4.810  20.744  0.00  0.00    +0.000 A 
ATOM      7  C   UNL     1       2.769   7.104  19.817  0.00  0.00    +0.000 C 
ATOM      8  C   UNL     1       1.862   7.916  20.706  0.00  0.00    +0.000 C 
ATOM      9  C   UNL     1       1.098   8.764  20.007  0.00  0.00    +0.000 C 
ATOM     10  C   UNL     1       1.369   8.652  18.542  0.00  0.00    +0.000 C 
ATOM     11  C   UNL     1       2.737   7.944  18.524  0.00  0.00    +0.000 C 
ATOM     12  C   UNL     1       2.992   7.105  17.265  0.00  0.00    +0.000 C 
ATOM     13  N   UNL     1       2.028   6.001  17.229  0.00  0.00    +0.000 N 
ATOM     14  H   UNL     1       1.964   5.524  16.337  0.00  0.00    +0.000 HD
ENDROOT
BRANCH  12  15
ATOM     15  C   UNL     1       4.455   6.650  17.112  0.00  0.00    +0.000 A 
ATOM     16  C   UNL     1       5.541   7.326  17.701  0.00  0.00    +0.000 A 
ATOM     17  C   UNL     1       6.862   6.918  17.496  0.00  0.00    +0.000 A 
ATOM     18  C   UNL     1       7.136   5.798  16.716  0.00  0.00    +0.000 A 
ATOM     19  C   UNL     1       6.076   5.090  16.156  0.00  0.00    +0.000 A 
ATOM     20 CL   UNL     1       6.403   3.690  15.208  0.00  0.00    +0.000 Cl
ATOM     21  C   UNL     1       4.750   5.505  16.351  0.00  0.00    +0.000 A 
ENDBRANCH  12  15
BRANCH   1  23
ATOM     22  O   UNL     1       0.886   2.406  22.479  0.00  0.00    +0.000 OA
ATOM     23  C   UNL     1       1.871   2.603  21.791  0.00  0.00    +0.000 C 
BRANCH  23  24
ATOM     24  O   UNL     1       3.090   2.096  22.082  0.00  0.00    +0.000 OA
ATOM     25  H   UNL     1       3.078   1.297  22.641  0.00  0.00    +0.000 HD
ENDBRANCH  23  24
ENDBRANCH   1  23
TORSDOF 3
ENDMDL
MODEL 5
REMARK VINA RESULT:      -7.0      1.149      1.522
REMARK  Name = 
REMARK  3 active torsions:
REMARK  status: ('A' for Active; 'I' for Inactive)
REMARK    1  A    between atoms: C_2  and  O_3
REMARK    2  A    between atoms: C_2  and  C_4
REMARK    3  A    between atoms: C_15  and  C_16
REMARK                            x       y       z     vdW  Elec       q    Type
REMARK                         _______ _______ _______ _____ _____    ______ ____
ROOT
ATOM      1  C   UNL     1       7.759   7.899  18.108  0.00  0.00    +0.000 A 
ATOM      2  C   UNL     1       8.450   6.744  18.480  0.00  0.00    +0.000 A 
ATOM      3  C   UNL     1       7.874   5.491  18.259  0.00  0.00    +0.000 A 
ATOM      4  C   UNL     1       6.620   5.372  17.644  0.00  0.00    +0.000 A 
ATOM      5  C   UNL     1       5.895   6.536  17.331  0.00  0.00    +0.000 A 
ATOM      6  C   UNL     1       6.477   7.795  17.560  0.00  0.00    +0.000 A 
ATOM      7  C   UNL     1       4.522   6.445  16.700  0.00  0.00    +0.000 C 
ATOM      8  C   UNL     1       3.437   7.041  17.561  0.00  0.00    +0.000 C 
ATOM      9  C   UNL     1       2.694   6.102  18.159  0.00  0.00    +0.000 C 
ATOM     10  C   UNL     1       3.166   4.730  17.799  0.00  0.00    +0.000 C 
ATOM     11  C   UNL     1       4.001   5.004  16.533  0.00  0.00    +0.000 C 
ATOM     12  C   UNL     1       5.127   3.990  16.294  0.00  0.00    +0.000 C 
ATOM     13  N   UNL     1       6.102   4.100  17.383  0.00  0.00    +0.000 N 
ATOM     14  H   UNL     1       6.760   3.331  17.442  0.00  0.00    +0.000 HD
ENDROOT
BRANCH  12  15
ATOM     15  C   UNL     1       5.758   4.086  14.892  0.00  0.00    +0.000 A 
ATOM     16  C   UNL     1       5.233   3.430  13.762  0.00  0.00    +0.000 A 
ATOM     17  C   UNL     1       5.863   3.493  12.515  0.00  0.00    +0.000 A 
ATOM     18  C   UNL     1       7.025   4.242  12.355  0.00  0.00    +0.000 A 
ATOM     19  C   UNL     1       7.540   4.931  13.450  0.00  0.00    +0.000 A 
ATOM     20 CL   UNL     1       8.966   5.877  13.256  0.00  0.00    +0.000 Cl
ATOM     21  C   UNL     1       6.917   4.859  14.704  0.00  0.00    +0.000 A 
ENDBRANCH  12  15
BRANCH   1  23
ATOM     22  O   UNL     1       8.065  10.200  17.580  0.00  0.00    +0.000 OA
ATOM     23  C   UNL     1       8.333   9.254  18.299  0.00  0.00    +0.000 C 
BRANCH  23  24
ATOM     24  O   UNL     1       9.229   9.323  19.309  0.00  0.00    +0.000 OA
ATOM     25  H   UNL     1      10.101   8.937  19.108  0.00  0.00    +0.000 HD
ENDBRANCH  23  24
ENDBRANCH   1  23
TORSDOF 3
ENDMDL
MODEL 6
REMARK VINA RESULT:      -6.8      3.728      6.112
REMARK  Name = 
REMARK  3 active torsions:
REMARK  status: ('A' for Active; 'I' for Inactive)
REMARK    1  A    between atoms: C_2  and  O_3
REMARK    2  A    between atoms: C_2  and  C_4
REMARK    3  A    between atoms: C_15  and  C_16
REMARK                            x       y       z     vdW  Elec       q    Type
REMARK                         _______ _______ _______ _____ _____    ______ ____
ROOT
ATOM      1  C   UNL     1       6.732   5.948  18.683  0.00  0.00    +0.000 A 
ATOM      2  C   UNL     1       6.383   6.562  17.477  0.00  0.00    +0.000 A 
ATOM      3  C   UNL     1       5.053   6.547  17.052  0.00  0.00    +0.000 A 
ATOM      4  C   UNL     1       4.054   5.946  17.830  0.00  0.00    +0.000 A 
ATOM      5  C   UNL     1       4.414   5.271  19.009  0.00  0.00    +0.000 A 
ATOM      6  C   UNL     1       5.756   5.284  19.431  0.00  0.00    +0.000 A 
ATOM      7  C   UNL     1       3.366   4.579  19.855  0.00  0.00    +0.000 C 
ATOM      8  C   UNL     1       3.583   3.091  19.963  0.00  0.00    +0.000 C 
ATOM      9  C   UNL     1       2.728   2.400  19.199  0.00  0.00    +0.000 C 
ATOM     10  C   UNL     1       1.808   3.315  18.457  0.00  0.00    +0.000 C 
ATOM     11  C   UNL     1       1.946   4.623  19.257  0.00  0.00    +0.000 C 
ATOM     12  C   UNL     1       1.688   5.892  18.433  0.00  0.00    +0.000 C 
ATOM     13  N   UNL     1       2.724   6.005  17.402  0.00  0.00    +0.000 N 
ATOM     14  H   UNL     1       2.522   6.676  16.670  0.00  0.00    +0.000 HD
ENDROOT
BRANCH  12  15
ATOM     15  C   UNL     1       1.531   7.163  19.289  0.00  0.00    +0.000 A 
ATOM     16  C   UNL     1       1.377   7.138  20.689  0.00  0.00    +0.000 A 
ATOM     17  C   UNL     1       1.180   8.308  21.429  0.00  0.00    +0.000 A 
ATOM     18  C   UNL     1       1.163   9.546  20.791  0.00  0.00    +0.000 A 
ATOM     19  C   UNL     1       1.353   9.597  19.413  0.00  0.00    +0.000 A 
ATOM     20 CL   UNL     1       1.354  11.125  18.618  0.00  0.00    +0.000 Cl
ATOM     21  C   UNL     1       1.538   8.424  18.667  0.00  0.00    +0.000 A 
ENDBRANCH  12  15
BRANCH   1  23
ATOM     22  O   UNL     1       8.666   4.969  19.665  0.00  0.00    +0.000 OA
ATOM     23  C   UNL     1       8.125   5.953  19.194  0.00  0.00    +0.000 C 
BRANCH  23  24
ATOM     24  O   UNL     1       8.714   7.169  19.143  0.00  0.00    +0.000 OA
ATOM     25  H   UNL     1       8.159   7.876  18.766  0.00  0.00    +0.000 HD
ENDBRANCH  23  24
ENDBRANCH   1  23
TORSDOF 3
ENDMDL
MODEL 7
REMARK VINA RESULT:      -6.7      8.484     10.071
REMARK  Name = 
REMARK  3 active torsions:
REMARK  status: ('A' for Active; 'I' for Inactive)
REMARK    1  A    between atoms: C_2  and  O_3
REMARK    2  A    between atoms: C_2  and  C_4
REMARK    3  A    between atoms: C_15  and  C_16
REMARK                            x       y       z     vdW  Elec       q    Type
REMARK                         _______ _______ _______ _____ _____    ______ ____
ROOT
ATOM      1  C   UNL     1       2.060  14.140  18.350  0.00  0.00    +0.000 A 
ATOM      2  C   UNL     1       2.642  12.898  18.087  0.00  0.00    +0.000 A 
ATOM      3  C   UNL     1       2.016  11.732  18.533  0.00  0.00    +0.000 A 
ATOM      4  C   UNL     1       0.796  11.785  19.220  0.00  0.00    +0.000 A 
ATOM      5  C   UNL     1       0.244  13.037  19.543  0.00  0.00    +0.000 A 
ATOM      6  C   UNL     1       0.880  14.210  19.096  0.00  0.00    +0.000 A 
ATOM      7  C   UNL     1      -1.054  13.134  20.316  0.00  0.00    +0.000 C 
ATOM      8  C   UNL     1      -0.898  13.826  21.647  0.00  0.00    +0.000 C 
ATOM      9  C   UNL     1      -0.914  12.963  22.669  0.00  0.00    +0.000 C 
ATOM     10  C   UNL     1      -1.077  11.558  22.187  0.00  0.00    +0.000 C 
ATOM     11  C   UNL     1      -1.623  11.772  20.762  0.00  0.00    +0.000 C 
ATOM     12  C   UNL     1      -1.285  10.639  19.785  0.00  0.00    +0.000 C 
ATOM     13  N   UNL     1       0.168  10.594  19.597  0.00  0.00    +0.000 N 
ATOM     14  H   UNL     1       0.512   9.751  19.152  0.00  0.00    +0.000 HD
ENDROOT
BRANCH  12  15
ATOM     15  C   UNL     1      -2.075  10.707  18.464  0.00  0.00    +0.000 A 
ATOM     16  C   UNL     1      -1.638  10.100  17.271  0.00  0.00    +0.000 A 
ATOM     17  C   UNL     1      -2.352  10.229  16.075  0.00  0.00    +0.000 A 
ATOM     18  C   UNL     1      -3.544  10.947  16.044  0.00  0.00    +0.000 A 
ATOM     19  C   UNL     1      -4.014  11.523  17.221  0.00  0.00    +0.000 A 
ATOM     20 CL   UNL     1      -5.499  12.396  17.198  0.00  0.00    +0.000 Cl
ATOM     21  C   UNL     1      -3.294  11.405  18.418  0.00  0.00    +0.000 A 
ENDBRANCH  12  15
BRANCH   1  23
ATOM     22  O   UNL     1       2.227  16.507  18.167  0.00  0.00    +0.000 OA
ATOM     23  C   UNL     1       2.669  15.409  17.881  0.00  0.00    +0.000 C 
BRANCH  23  24
ATOM     24  O   UNL     1       3.724  15.228  17.056  0.00  0.00    +0.000 OA
ATOM     25  H   UNL     1       3.728  14.378  16.577  0.00  0.00    +0.000 HD
ENDBRANCH  23  24
ENDBRANCH   1  23
TORSDOF 3
ENDMDL
MODEL 8
REMARK VINA RESULT:      -6.7      9.664     12.298
REMARK  Name = 
REMARK  3 active torsions:
REMARK  status: ('A' for Active; 'I' for Inactive)
REMARK    1  A    between atoms: C_2  and  O_3
REMARK    2  A    between atoms: C_2  and  C_4
REMARK    3  A    between atoms: C_15  and  C_16
REMARK                            x       y       z     vdW  Elec       q    Type
REMARK                         _______ _______ _______ _____ _____    ______ ____
ROOT
ATOM      1  C   UNL     1      -4.872  11.479  18.413  0.00  0.00    +0.000 A 
ATOM      2  C   UNL     1      -3.896  11.129  17.478  0.00  0.00    +0.000 A 
ATOM      3  C   UNL     1      -2.567  11.505  17.690  0.00  0.00    +0.000 A 
ATOM      4  C   UNL     1      -2.193  12.209  18.843  0.00  0.00    +0.000 A 
ATOM      5  C   UNL     1      -3.185  12.620  19.750  0.00  0.00    +0.000 A 
ATOM      6  C   UNL     1      -4.522  12.243  19.531  0.00  0.00    +0.000 A 
ATOM      7  C   UNL     1      -2.821  13.413  20.987  0.00  0.00    +0.000 C 
ATOM      8  C   UNL     1      -3.449  14.784  21.015  0.00  0.00    +0.000 C 
ATOM      9  C   UNL     1      -2.568  15.748  20.725  0.00  0.00    +0.000 C 
ATOM     10  C   UNL     1      -1.213  15.178  20.453  0.00  0.00    +0.000 C 
ATOM     11  C   UNL     1      -1.326  13.777  21.084  0.00  0.00    +0.000 C 
ATOM     12  C   UNL     1      -0.417  12.724  20.438  0.00  0.00    +0.000 C 
ATOM     13  N   UNL     1      -0.844  12.516  19.051  0.00  0.00    +0.000 N 
ATOM     14  H   UNL     1      -0.180  12.013  18.474  0.00  0.00    +0.000 HD
ENDROOT
BRANCH  12  15
ATOM     15  C   UNL     1      -0.308  11.419  21.250  0.00  0.00    +0.000 A 
ATOM     16  C   UNL     1      -0.891  11.249  22.520  0.00  0.00    +0.000 A 
ATOM     17  C   UNL     1      -0.725  10.071  23.255  0.00  0.00    +0.000 A 
ATOM     18  C   UNL     1       0.007   9.012  22.726  0.00  0.00    +0.000 A 
ATOM     19  C   UNL     1       0.560   9.144  21.454  0.00  0.00    +0.000 A 
ATOM     20 CL   UNL     1       1.450   7.832  20.781  0.00  0.00    +0.000 Cl
ATOM     21  C   UNL     1       0.405  10.329  20.721  0.00  0.00    +0.000 A 
ENDBRANCH  12  15
BRANCH   1  23
ATOM     22  O   UNL     1      -6.789  10.124  18.808  0.00  0.00    +0.000 OA
ATOM     23  C   UNL     1      -6.294  11.086  18.250  0.00  0.00    +0.000 C 
BRANCH  23  24
ATOM     24  O   UNL     1      -6.971  11.862  17.374  0.00  0.00    +0.000 OA
ATOM     25  H   UNL     1      -6.509  12.680  17.112  0.00  0.00    +0.000 HD
ENDBRANCH  23  24
ENDBRANCH   1  23
TORSDOF 3
ENDMDL
MODEL 9
REMARK VINA RESULT:      -6.7      6.580     10.544
REMARK  Name = 
REMARK  3 active torsions:
REMARK  status: ('A' for Active; 'I' for Inactive)
REMARK    1  A    between atoms: C_2  and  O_3
REMARK    2  A    between atoms: C_2  and  C_4
REMARK    3  A    between atoms: C_15  and  C_16
REMARK                            x       y       z     vdW  Elec       q    Type
REMARK                         _______ _______ _______ _____ _____    ______ ____
ROOT
ATOM      1  C   UNL     1       9.058  10.419  18.990  0.00  0.00    +0.000 A 
ATOM      2  C   UNL     1       9.324  10.574  20.353  0.00  0.00    +0.000 A 
ATOM      3  C   UNL     1       9.826  11.788  20.827  0.00  0.00    +0.000 A 
ATOM      4  C   UNL     1      10.044  12.867  19.959  0.00  0.00    +0.000 A 
ATOM      5  C   UNL     1       9.840  12.690  18.579  0.00  0.00    +0.000 A 
ATOM      6  C   UNL     1       9.339  11.464  18.105  0.00  0.00    +0.000 A 
ATOM      7  C   UNL     1      10.100  13.822  17.608  0.00  0.00    +0.000 C 
ATOM      8  C   UNL     1      11.186  13.506  16.610  0.00  0.00    +0.000 C 
ATOM      9  C   UNL     1      12.333  14.131  16.898  0.00  0.00    +0.000 C 
ATOM     10  C   UNL     1      12.200  14.961  18.134  0.00  0.00    +0.000 C 
ATOM     11  C   UNL     1      10.671  15.095  18.264  0.00  0.00    +0.000 C 
ATOM     12  C   UNL     1      10.179  15.291  19.704  0.00  0.00    +0.000 C 
ATOM     13  N   UNL     1      10.489  14.086  20.478  0.00  0.00    +0.000 N 
ATOM     14  H   UNL     1      10.411  14.196  21.483  0.00  0.00    +0.000 HD
ENDROOT
BRANCH  12  15
ATOM     15  C   UNL     1       8.703  15.721  19.800  0.00  0.00    +0.000 A 
ATOM     16  C   UNL     1       8.075  16.546  18.847  0.00  0.00    +0.000 A 
ATOM     17  C   UNL     1       6.749  16.963  18.994  0.00  0.00    +0.000 A 
ATOM     18  C   UNL     1       5.998  16.541  20.088  0.00  0.00    +0.000 A 
ATOM     19  C   UNL     1       6.587  15.692  21.021  0.00  0.00    +0.000 A 
ATOM     20 CL   UNL     1       5.660  15.146  22.367  0.00  0.00    +0.000 Cl
ATOM     21  C   UNL     1       7.921  15.283  20.882  0.00  0.00    +0.000 A 
ENDBRANCH  12  15
BRANCH   1  23
ATOM     22  O   UNL     1       7.751   9.127  17.478  0.00  0.00    +0.000 OA
ATOM     23  C   UNL     1       8.503   9.160  18.435  0.00  0.00    +0.000 C 
BRANCH  23  24
ATOM     24  O   UNL     1       8.863   8.059  19.133  0.00  0.00    +0.000 OA
ATOM     25  H   UNL     1       8.118   7.523  19.464  0.00  0.00    +0.000 HD
ENDBRANCH  23  24
ENDBRANCH   1  23
TORSDOF 3
ENDMDL
