MODEL 1
REMARK VINA RESULT:      -8.2      0.000      0.000
REMARK  Name = 
REMARK  4 active torsions:
REMARK  status: ('A' for Active; 'I' for Inactive)
REMARK    1  A    between atoms: C_1  and  C_2
REMARK    2  A    between atoms: C_5  and  N_6
REMARK    3  A    between atoms: C_7  and  C_9
REMARK    4  A    between atoms: C_9  and  N_10
REMARK                            x       y       z     vdW  Elec       q    Type
REMARK                         _______ _______ _______ _____ _____    ______ ____
ROOT
ATOM      1  N   UNL     1       3.214   6.105  17.799  0.00  0.00    +0.000 N 
ATOM      2  C   UNL     1       2.229   5.150  18.080  0.00  0.00    +0.000 C 
ATOM      3  O   UNL     1       1.085   5.226  17.624  0.00  0.00    +0.000 OA
ATOM      4  C   UNL     1       2.412   4.230  19.205  0.00  0.00    +0.000 A 
ATOM      5  C   UNL     1       1.456   4.264  20.227  0.00  0.00    +0.000 A 
ATOM      6  C   UNL     1       1.597   3.427  21.324  0.00  0.00    +0.000 A 
ATOM      7  C   UNL     1       2.690   2.581  21.351  0.00  0.00    +0.000 A 
ATOM      8  N   UNL     1       3.602   2.497  20.354  0.00  0.00    +0.000 NA
ATOM      9  C   UNL     1       3.440   3.318  19.283  0.00  0.00    +0.000 A 
ATOM     10  S   UNL     1       4.525   3.065  17.915  0.00  0.00    +0.000 S 
ATOM     11  C   UNL     1       5.307   4.668  17.835  0.00  0.00    +0.000 A 
ATOM     12  C   UNL     1       6.714   4.588  17.702  0.00  0.00    +0.000 A 
ATOM     13  C   UNL     1       7.498   5.725  17.552  0.00  0.00    +0.000 A 
ATOM     14  C   UNL     1       6.886   6.964  17.568  0.00  0.00    +0.000 A 
ATOM     15  C   UNL     1       5.495   7.057  17.716  0.00  0.00    +0.000 A 
ATOM     16  C   UNL     1       4.654   5.925  17.821  0.00  0.00    +0.000 A 
ENDROOT
BRANCH   1  17
ATOM     17  C   UNL     1       2.637   7.411  17.443  0.00  0.00    +0.000 C 
BRANCH  17  19
ATOM     18  N   UNL     1       1.411   9.272  18.491  0.00  0.00    +0.000 N 
ATOM     19  C   UNL     1       2.165   8.127  18.719  0.00  0.00    +0.000 C 
ATOM     20  O   UNL     1       2.413   7.648  19.825  0.00  0.00    +0.000 OA
ATOM     21  H   UNL     1       1.329   9.591  17.526  0.00  0.00    +0.000 HD
BRANCH  18  26
ATOM     22  C   UNL     1      -0.770  12.784  22.508  0.00  0.00    +0.000 C 
ATOM     23  C   UNL     1      -0.239  11.874  21.438  0.00  0.00    +0.000 A 
ATOM     24  C   UNL     1      -0.590  10.523  21.410  0.00  0.00    +0.000 A 
ATOM     25  C   UNL     1      -0.061   9.661  20.441  0.00  0.00    +0.000 A 
ATOM     26  C   UNL     1       0.827  10.126  19.467  0.00  0.00    +0.000 A 
ATOM     27  C   UNL     1       1.146  11.497  19.472  0.00  0.00    +0.000 A 
ATOM     28 BR   UNL     1       2.326  12.244  18.181  0.00  0.00    +0.000 Br
ATOM     29  C   UNL     1       0.627  12.359  20.453  0.00  0.00    +0.000 A 
ENDBRANCH  18  26
ENDBRANCH  17  19
ENDBRANCH   1  17
TORSDOF 3
ENDMDL
MODEL 2
REMARK VINA RESULT:      -8.0      1.089      1.176
REMARK  Name = 
REMARK  4 active torsions:
REMARK  status: ('A' for Active; 'I' for Inactive)
REMARK    1  A    between atoms: C_1  and  C_2
REMARK    2  A    between atoms: C_5  and  N_6
REMARK    3  A    between atoms: C_7  and  C_9
REMARK    4  A    between atoms: C_9  and  N_10
REMARK                            x       y       z     vdW  Elec       q    Type
REMARK                         _______ _______ _______ _____ _____    ______ ____
ROOT
ATOM      1  N   UNL     1       3.218   6.092  17.762  0.00  0.00    +0.000 N 
ATOM      2  C   UNL     1       2.230   5.137  18.035  0.00  0.00    +0.000 C 
ATOM      3  O   UNL     1       1.104   5.191  17.535  0.00  0.00    +0.000 OA
ATOM      4  C   UNL     1       2.378   4.252  19.192  0.00  0.00    +0.000 A 
ATOM      5  C   UNL     1       1.384   4.307  20.177  0.00  0.00    +0.000 A 
ATOM      6  C   UNL     1       1.491   3.504  21.302  0.00  0.00    +0.000 A 
ATOM      7  C   UNL     1       2.588   2.668  21.394  0.00  0.00    +0.000 A 
ATOM      8  N   UNL     1       3.537   2.562  20.434  0.00  0.00    +0.000 NA
ATOM      9  C   UNL     1       3.409   3.351  19.335  0.00  0.00    +0.000 A 
ATOM     10  S   UNL     1       4.546   3.067  18.015  0.00  0.00    +0.000 S 
ATOM     11  C   UNL     1       5.318   4.673  17.917  0.00  0.00    +0.000 A 
ATOM     12  C   UNL     1       6.730   4.601  17.838  0.00  0.00    +0.000 A 
ATOM     13  C   UNL     1       7.511   5.740  17.684  0.00  0.00    +0.000 A 
ATOM     14  C   UNL     1       6.890   6.974  17.641  0.00  0.00    +0.000 A 
ATOM     15  C   UNL     1       5.494   7.060  17.735  0.00  0.00    +0.000 A 
ATOM     16  C   UNL     1       4.658   5.924  17.843  0.00  0.00    +0.000 A 
ENDROOT
BRANCH   1  17
ATOM     17  C   UNL     1       2.645   7.382  17.347  0.00  0.00    +0.000 C 
BRANCH  17  19
ATOM     18  N   UNL     1       1.223   9.168  18.271  0.00  0.00    +0.000 N 
ATOM     19  C   UNL     1       2.061   8.101  18.574  0.00  0.00    +0.000 C 
ATOM     20  O   UNL     1       2.300   7.685  19.708  0.00  0.00    +0.000 OA
ATOM     21  H   UNL     1       1.155   9.443  17.292  0.00  0.00    +0.000 HD
BRANCH  18  26
ATOM     22  C   UNL     1      -1.613  12.689  21.846  0.00  0.00    +0.000 C 
ATOM     23  C   UNL     1      -0.887  11.738  20.939  0.00  0.00    +0.000 A 
ATOM     24  C   UNL     1       0.384  11.266  21.269  0.00  0.00    +0.000 A 
ATOM     25  C   UNL     1       1.083  10.414  20.404  0.00  0.00    +0.000 A 
ATOM     26  C   UNL     1       0.528  10.003  19.189  0.00  0.00    +0.000 A 
ATOM     27  C   UNL     1      -0.772  10.446  18.880  0.00  0.00    +0.000 A 
ATOM     28 BR   UNL     1      -1.635   9.932  17.264  0.00  0.00    +0.000 Br
ATOM     29  C   UNL     1      -1.467  11.313  19.739  0.00  0.00    +0.000 A 
ENDBRANCH  18  26
ENDBRANCH  17  19
ENDBRANCH   1  17
TORSDOF 3
ENDMDL
MODEL 3
REMARK VINA RESULT:      -7.9      3.602      8.871
REMARK  Name = 
REMARK  4 active torsions:
REMARK  status: ('A' for Active; 'I' for Inactive)
REMARK    1  A    between atoms: C_1  and  C_2
REMARK    2  A    between atoms: C_5  and  N_6
REMARK    3  A    between atoms: C_7  and  C_9
REMARK    4  A    between atoms: C_9  and  N_10
REMARK                            x       y       z     vdW  Elec       q    Type
REMARK                         _______ _______ _______ _____ _____    ______ ____
ROOT
ATOM      1  N   UNL     1       0.444  10.940  21.015  0.00  0.00    +0.000 N 
ATOM      2  C   UNL     1       1.041  11.239  19.783  0.00  0.00    +0.000 C 
ATOM      3  O   UNL     1       1.756  10.434  19.182  0.00  0.00    +0.000 OA
ATOM      4  C   UNL     1       1.132  12.633  19.343  0.00  0.00    +0.000 A 
ATOM      5  C   UNL     1       2.412  13.155  19.117  0.00  0.00    +0.000 A 
ATOM      6  C   UNL     1       2.552  14.476  18.720  0.00  0.00    +0.000 A 
ATOM      7  C   UNL     1       1.400  15.224  18.555  0.00  0.00    +0.000 A 
ATOM      8  N   UNL     1       0.151  14.729  18.722  0.00  0.00    +0.000 NA
ATOM      9  C   UNL     1       0.036  13.429  19.102  0.00  0.00    +0.000 A 
ATOM     10  S   UNL     1      -1.593  12.751  19.132  0.00  0.00    +0.000 S 
ATOM     11  C   UNL     1      -1.705  12.282  20.851  0.00  0.00    +0.000 A 
ATOM     12  C   UNL     1      -2.922  12.682  21.452  0.00  0.00    +0.000 A 
ATOM     13  C   UNL     1      -3.231  12.349  22.766  0.00  0.00    +0.000 A 
ATOM     14  C   UNL     1      -2.307  11.638  23.508  0.00  0.00    +0.000 A 
ATOM     15  C   UNL     1      -1.091  11.250  22.929  0.00  0.00    +0.000 A 
ATOM     16  C   UNL     1      -0.758  11.525  21.582  0.00  0.00    +0.000 A 
ENDROOT
BRANCH   1  17
ATOM     17  C   UNL     1       1.180   9.899  21.751  0.00  0.00    +0.000 C 
BRANCH  17  19
ATOM     18  N   UNL     1       1.902   7.786  20.711  0.00  0.00    +0.000 N 
ATOM     19  C   UNL     1       0.817   8.518  21.182  0.00  0.00    +0.000 C 
ATOM     20  O   UNL     1      -0.347   8.118  21.221  0.00  0.00    +0.000 OA
ATOM     21  H   UNL     1       2.805   8.258  20.685  0.00  0.00    +0.000 HD
BRANCH  18  26
ATOM     22  C   UNL     1       1.696   2.560  18.289  0.00  0.00    +0.000 C 
ATOM     23  C   UNL     1       1.788   3.911  18.939  0.00  0.00    +0.000 A 
ATOM     24  C   UNL     1       1.376   4.097  20.260  0.00  0.00    +0.000 A 
ATOM     25  C   UNL     1       1.418   5.365  20.856  0.00  0.00    +0.000 A 
ATOM     26  C   UNL     1       1.879   6.480  20.151  0.00  0.00    +0.000 A 
ATOM     27  C   UNL     1       2.334   6.280  18.833  0.00  0.00    +0.000 A 
ATOM     28 BR   UNL     1       3.004   7.722  17.788  0.00  0.00    +0.000 Br
ATOM     29  C   UNL     1       2.278   5.013  18.231  0.00  0.00    +0.000 A 
ENDBRANCH  18  26
ENDBRANCH  17  19
ENDBRANCH   1  17
TORSDOF 3
ENDMDL
MODEL 4
REMARK VINA RESULT:      -7.6      3.512      8.426
REMARK  Name = 
REMARK  4 active torsions:
REMARK  status: ('A' for Active; 'I' for Inactive)
REMARK    1  A    between atoms: C_1  and  C_2
REMARK    2  A    between atoms: C_5  and  N_6
REMARK    3  A    between atoms: C_7  and  C_9
REMARK    4  A    between atoms: C_9  and  N_10
REMARK                            x       y       z     vdW  Elec       q    Type
REMARK                         _______ _______ _______ _____ _____    ______ ____
ROOT
ATOM      1  N   UNL     1       0.267  11.045  19.409  0.00  0.00    +0.000 N 
ATOM      2  C   UNL     1       0.541  12.363  19.021  0.00  0.00    +0.000 C 
ATOM      3  O   UNL     1       0.308  12.778  17.883  0.00  0.00    +0.000 OA
ATOM      4  C   UNL     1       1.440  13.185  19.834  0.00  0.00    +0.000 A 
ATOM      5  C   UNL     1       2.601  13.672  19.220  0.00  0.00    +0.000 A 
ATOM      6  C   UNL     1       3.494  14.438  19.954  0.00  0.00    +0.000 A 
ATOM      7  C   UNL     1       3.184  14.694  21.277  0.00  0.00    +0.000 A 
ATOM      8  N   UNL     1       2.046  14.275  21.880  0.00  0.00    +0.000 NA
ATOM      9  C   UNL     1       1.180  13.534  21.140  0.00  0.00    +0.000 A 
ATOM     10  S   UNL     1      -0.377  13.157  21.880  0.00  0.00    +0.000 S 
ATOM     11  C   UNL     1      -0.308  11.373  21.861  0.00  0.00    +0.000 A 
ATOM     12  C   UNL     1      -0.692  10.794  23.094  0.00  0.00    +0.000 A 
ATOM     13  C   UNL     1      -0.773   9.417  23.259  0.00  0.00    +0.000 A 
ATOM     14  C   UNL     1      -0.436   8.597  22.199  0.00  0.00    +0.000 A 
ATOM     15  C   UNL     1      -0.037   9.158  20.978  0.00  0.00    +0.000 A 
ATOM     16  C   UNL     1       0.011  10.553  20.751  0.00  0.00    +0.000 A 
ENDROOT
BRANCH   1  17
ATOM     17  C   UNL     1       0.249  10.120  18.265  0.00  0.00    +0.000 C 
BRANCH  17  19
ATOM     18  N   UNL     1       1.736   8.158  18.321  0.00  0.00    +0.000 N 
ATOM     19  C   UNL     1       1.652   9.522  18.069  0.00  0.00    +0.000 C 
ATOM     20  O   UNL     1       2.574  10.228  17.662  0.00  0.00    +0.000 OA
ATOM     21  H   UNL     1       0.909   7.704  18.708  0.00  0.00    +0.000 HD
BRANCH  18  26
ATOM     22  C   UNL     1       6.454   4.858  18.049  0.00  0.00    +0.000 C 
ATOM     23  C   UNL     1       5.207   5.693  18.089  0.00  0.00    +0.000 A 
ATOM     24  C   UNL     1       5.003   6.718  17.163  0.00  0.00    +0.000 A 
ATOM     25  C   UNL     1       3.862   7.528  17.224  0.00  0.00    +0.000 A 
ATOM     26  C   UNL     1       2.888   7.332  18.207  0.00  0.00    +0.000 A 
ATOM     27  C   UNL     1       3.075   6.270  19.113  0.00  0.00    +0.000 A 
ATOM     28 BR   UNL     1       1.804   5.898  20.477  0.00  0.00    +0.000 Br
ATOM     29  C   UNL     1       4.227   5.467  19.061  0.00  0.00    +0.000 A 
ENDBRANCH  18  26
ENDBRANCH  17  19
ENDBRANCH   1  17
TORSDOF 3
ENDMDL
MODEL 5
REMARK VINA RESULT:      -7.4      2.078      4.151
REMARK  Name = 
REMARK  4 active torsions:
REMARK  status: ('A' for Active; 'I' for Inactive)
REMARK    1  A    between atoms: C_1  and  C_2
REMARK    2  A    between atoms: C_5  and  N_6
REMARK    3  A    between atoms: C_7  and  C_9
REMARK    4  A    between atoms: C_9  and  N_10
REMARK                            x       y       z     vdW  Elec       q    Type
REMARK                         _______ _______ _______ _____ _____    ______ ____
ROOT
ATOM      1  N   UNL     1       2.823   6.294  18.051  0.00  0.00    +0.000 N 
ATOM      2  C   UNL     1       3.989   6.817  17.476  0.00  0.00    +0.000 C 
ATOM      3  O   UNL     1       4.107   8.012  17.194  0.00  0.00    +0.000 OA
ATOM      4  C   UNL     1       4.962   5.912  16.862  0.00  0.00    +0.000 A 
ATOM      5  C   UNL     1       5.238   6.090  15.500  0.00  0.00    +0.000 A 
ATOM      6  C   UNL     1       6.138   5.245  14.868  0.00  0.00    +0.000 A 
ATOM      7  C   UNL     1       6.733   4.255  15.628  0.00  0.00    +0.000 A 
ATOM      8  N   UNL     1       6.518   4.092  16.955  0.00  0.00    +0.000 NA
ATOM      9  C   UNL     1       5.641   4.938  17.558  0.00  0.00    +0.000 A 
ATOM     10  S   UNL     1       5.515   4.833  19.315  0.00  0.00    +0.000 S 
ATOM     11  C   UNL     1       3.784   4.428  19.480  0.00  0.00    +0.000 A 
ATOM     12  C   UNL     1       3.552   3.364  20.385  0.00  0.00    +0.000 A 
ATOM     13  C   UNL     1       2.266   2.947  20.705  0.00  0.00    +0.000 A 
ATOM     14  C   UNL     1       1.192   3.568  20.096  0.00  0.00    +0.000 A 
ATOM     15  C   UNL     1       1.410   4.612  19.185  0.00  0.00    +0.000 A 
ATOM     16  C   UNL     1       2.698   5.101  18.869  0.00  0.00    +0.000 A 
ENDROOT
BRANCH   1  17
ATOM     17  C   UNL     1       1.638   7.111  17.747  0.00  0.00    +0.000 C 
BRANCH  17  19
ATOM     18  N   UNL     1       1.487   9.569  17.756  0.00  0.00    +0.000 N 
ATOM     19  C   UNL     1       1.716   8.434  18.526  0.00  0.00    +0.000 C 
ATOM     20  O   UNL     1       1.908   8.427  19.741  0.00  0.00    +0.000 OA
ATOM     21  H   UNL     1       1.398   9.438  16.749  0.00  0.00    +0.000 HD
BRANCH  18  26
ATOM     22  C   UNL     1       1.290  15.082  19.426  0.00  0.00    +0.000 C 
ATOM     23  C   UNL     1       1.359  13.636  19.030  0.00  0.00    +0.000 A 
ATOM     24  C   UNL     1       2.538  13.091  18.516  0.00  0.00    +0.000 A 
ATOM     25  C   UNL     1       2.594  11.754  18.103  0.00  0.00    +0.000 A 
ATOM     26  C   UNL     1       1.476  10.920  18.198  0.00  0.00    +0.000 A 
ATOM     27  C   UNL     1       0.302  11.460  18.757  0.00  0.00    +0.000 A 
ATOM     28 BR   UNL     1      -1.272  10.411  18.956  0.00  0.00    +0.000 Br
ATOM     29  C   UNL     1       0.241  12.805  19.157  0.00  0.00    +0.000 A 
ENDBRANCH  18  26
ENDBRANCH  17  19
ENDBRANCH   1  17
TORSDOF 3
ENDMDL
MODEL 6
REMARK VINA RESULT:      -7.3      4.399      8.881
REMARK  Name = 
REMARK  4 active torsions:
REMARK  status: ('A' for Active; 'I' for Inactive)
REMARK    1  A    between atoms: C_1  and  C_2
REMARK    2  A    between atoms: C_5  and  N_6
REMARK    3  A    between atoms: C_7  and  C_9
REMARK    4  A    between atoms: C_9  and  N_10
REMARK                            x       y       z     vdW  Elec       q    Type
REMARK                         _______ _______ _______ _____ _____    ______ ____
ROOT
ATOM      1  N   UNL     1      -1.392  12.782  18.924  0.00  0.00    +0.000 N 
ATOM      2  C   UNL     1      -1.382  13.582  20.073  0.00  0.00    +0.000 C 
ATOM      3  O   UNL     1      -0.638  14.559  20.192  0.00  0.00    +0.000 OA
ATOM      4  C   UNL     1      -1.987  13.082  21.309  0.00  0.00    +0.000 A 
ATOM      5  C   UNL     1      -1.157  12.959  22.430  0.00  0.00    +0.000 A 
ATOM      6  C   UNL     1      -1.679  12.471  23.618  0.00  0.00    +0.000 A 
ATOM      7  C   UNL     1      -3.019  12.130  23.640  0.00  0.00    +0.000 A 
ATOM      8  N   UNL     1      -3.852  12.284  22.584  0.00  0.00    +0.000 NA
ATOM      9  C   UNL     1      -3.323  12.774  21.433  0.00  0.00    +0.000 A 
ATOM     10  S   UNL     1      -4.456  13.143  20.131  0.00  0.00    +0.000 S 
ATOM     11  C   UNL     1      -3.827  12.065  18.854  0.00  0.00    +0.000 A 
ATOM     12  C   UNL     1      -4.846  11.330  18.204  0.00  0.00    +0.000 A 
ATOM     13  C   UNL     1      -4.568  10.488  17.133  0.00  0.00    +0.000 A 
ATOM     14  C   UNL     1      -3.257  10.345  16.720  0.00  0.00    +0.000 A 
ATOM     15  C   UNL     1      -2.237  11.056  17.367  0.00  0.00    +0.000 A 
ATOM     16  C   UNL     1      -2.481  11.960  18.427  0.00  0.00    +0.000 A 
ENDROOT
BRANCH   1  17
ATOM     17  C   UNL     1      -0.117  12.843  18.192  0.00  0.00    +0.000 C 
BRANCH  17  19
ATOM     18  N   UNL     1       0.574  10.480  18.274  0.00  0.00    +0.000 N 
ATOM     19  C   UNL     1       0.837  11.766  18.735  0.00  0.00    +0.000 C 
ATOM     20  O   UNL     1       1.775  12.081  19.467  0.00  0.00    +0.000 OA
ATOM     21  H   UNL     1      -0.269  10.348  17.718  0.00  0.00    +0.000 HD
BRANCH  18  26
ATOM     22  C   UNL     1       3.562   5.760  19.694  0.00  0.00    +0.000 C 
ATOM     23  C   UNL     1       2.755   6.964  19.304  0.00  0.00    +0.000 A 
ATOM     24  C   UNL     1       2.886   7.532  18.035  0.00  0.00    +0.000 A 
ATOM     25  C   UNL     1       2.168   8.682  17.683  0.00  0.00    +0.000 A 
ATOM     26  C   UNL     1       1.292   9.293  18.586  0.00  0.00    +0.000 A 
ATOM     27  C   UNL     1       1.130   8.692  19.849  0.00  0.00    +0.000 A 
ATOM     28 BR   UNL     1      -0.052   9.424  21.147  0.00  0.00    +0.000 Br
ATOM     29  C   UNL     1       1.861   7.548  20.208  0.00  0.00    +0.000 A 
ENDBRANCH  18  26
ENDBRANCH  17  19
ENDBRANCH   1  17
TORSDOF 3
ENDMDL
MODEL 7
REMARK VINA RESULT:      -7.3      3.791      8.334
REMARK  Name = 
REMARK  4 active torsions:
REMARK  status: ('A' for Active; 'I' for Inactive)
REMARK    1  A    between atoms: C_1  and  C_2
REMARK    2  A    between atoms: C_5  and  N_6
REMARK    3  A    between atoms: C_7  and  C_9
REMARK    4  A    between atoms: C_9  and  N_10
REMARK                            x       y       z     vdW  Elec       q    Type
REMARK                         _______ _______ _______ _____ _____    ______ ____
ROOT
ATOM      1  N   UNL     1      -0.080  11.047  19.018  0.00  0.00    +0.000 N 
ATOM      2  C   UNL     1       0.120  11.869  20.134  0.00  0.00    +0.000 C 
ATOM      3  O   UNL     1       1.229  12.321  20.431  0.00  0.00    +0.000 OA
ATOM      4  C   UNL     1      -0.899  11.926  21.183  0.00  0.00    +0.000 A 
ATOM      5  C   UNL     1      -0.519  11.538  22.474  0.00  0.00    +0.000 A 
ATOM      6  C   UNL     1      -1.454  11.554  23.498  0.00  0.00    +0.000 A 
ATOM      7  C   UNL     1      -2.737  11.968  23.190  0.00  0.00    +0.000 A 
ATOM      8  N   UNL     1      -3.117  12.392  21.961  0.00  0.00    +0.000 NA
ATOM      9  C   UNL     1      -2.183  12.378  20.975  0.00  0.00    +0.000 A 
ATOM     10  S   UNL     1      -2.641  13.107  19.434  0.00  0.00    +0.000 S 
ATOM     11  C   UNL     1      -2.441  11.702  18.352  0.00  0.00    +0.000 A 
ATOM     12  C   UNL     1      -3.535  11.527  17.471  0.00  0.00    +0.000 A 
ATOM     13  C   UNL     1      -3.539  10.530  16.502  0.00  0.00    +0.000 A 
ATOM     14  C   UNL     1      -2.458   9.673  16.423  0.00  0.00    +0.000 A 
ATOM     15  C   UNL     1      -1.376   9.826  17.301  0.00  0.00    +0.000 A 
ATOM     16  C   UNL     1      -1.309  10.856  18.268  0.00  0.00    +0.000 A 
ENDROOT
BRANCH   1  17
ATOM     17  C   UNL     1       1.146  10.337  18.621  0.00  0.00    +0.000 C 
BRANCH  17  19
ATOM     18  N   UNL     1       2.085   8.070  18.827  0.00  0.00    +0.000 N 
ATOM     19  C   UNL     1       1.251   9.019  19.406  0.00  0.00    +0.000 C 
ATOM     20  O   UNL     1       0.670   8.893  20.484  0.00  0.00    +0.000 OA
ATOM     21  H   UNL     1       2.460   8.281  17.903  0.00  0.00    +0.000 HD
BRANCH  18  26
ATOM     22  C   UNL     1       3.288   2.744  20.674  0.00  0.00    +0.000 C 
ATOM     23  C   UNL     1       3.000   4.147  20.225  0.00  0.00    +0.000 A 
ATOM     24  C   UNL     1       2.005   4.906  20.845  0.00  0.00    +0.000 A 
ATOM     25  C   UNL     1       1.702   6.199  20.400  0.00  0.00    +0.000 A 
ATOM     26  C   UNL     1       2.390   6.774  19.327  0.00  0.00    +0.000 A 
ATOM     27  C   UNL     1       3.422   6.023  18.732  0.00  0.00    +0.000 A 
ATOM     28 BR   UNL     1       4.438   6.715  17.281  0.00  0.00    +0.000 Br
ATOM     29  C   UNL     1       3.716   4.721  19.168  0.00  0.00    +0.000 A 
ENDBRANCH  18  26
ENDBRANCH  17  19
ENDBRANCH   1  17
TORSDOF 3
ENDMDL
MODEL 8
REMARK VINA RESULT:      -7.3      1.536      3.741
REMARK  Name = 
REMARK  4 active torsions:
REMARK  status: ('A' for Active; 'I' for Inactive)
REMARK    1  A    between atoms: C_1  and  C_2
REMARK    2  A    between atoms: C_5  and  N_6
REMARK    3  A    between atoms: C_7  and  C_9
REMARK    4  A    between atoms: C_9  and  N_10
REMARK                            x       y       z     vdW  Elec       q    Type
REMARK                         _______ _______ _______ _____ _____    ______ ____
ROOT
ATOM      1  N   UNL     1       2.892   6.366  18.096  0.00  0.00    +0.000 N 
ATOM      2  C   UNL     1       4.083   6.840  17.532  0.00  0.00    +0.000 C 
ATOM      3  O   UNL     1       4.276   8.037  17.306  0.00  0.00    +0.000 OA
ATOM      4  C   UNL     1       4.989   5.905  16.861  0.00  0.00    +0.000 A 
ATOM      5  C   UNL     1       5.262   6.132  15.506  0.00  0.00    +0.000 A 
ATOM      6  C   UNL     1       6.097   5.262  14.821  0.00  0.00    +0.000 A 
ATOM      7  C   UNL     1       6.635   4.200  15.524  0.00  0.00    +0.000 A 
ATOM      8  N   UNL     1       6.423   3.986  16.845  0.00  0.00    +0.000 NA
ATOM      9  C   UNL     1       5.610   4.856  17.499  0.00  0.00    +0.000 A 
ATOM     10  S   UNL     1       5.496   4.673  19.251  0.00  0.00    +0.000 S 
ATOM     11  C   UNL     1       3.744   4.373  19.420  0.00  0.00    +0.000 A 
ATOM     12  C   UNL     1       3.453   3.284  20.275  0.00  0.00    +0.000 A 
ATOM     13  C   UNL     1       2.145   2.935  20.592  0.00  0.00    +0.000 A 
ATOM     14  C   UNL     1       1.108   3.653  20.029  0.00  0.00    +0.000 A 
ATOM     15  C   UNL     1       1.384   4.725  19.167  0.00  0.00    +0.000 A 
ATOM     16  C   UNL     1       2.698   5.145  18.857  0.00  0.00    +0.000 A 
ENDROOT
BRANCH   1  17
ATOM     17  C   UNL     1       1.760   7.272  17.849  0.00  0.00    +0.000 C 
BRANCH  17  19
ATOM     18  N   UNL     1       0.855   9.378  18.751  0.00  0.00    +0.000 N 
ATOM     19  C   UNL     1       1.620   8.250  19.027  0.00  0.00    +0.000 C 
ATOM     20  O   UNL     1       2.116   7.977  20.120  0.00  0.00    +0.000 OA
ATOM     21  H   UNL     1       0.551   9.509  17.787  0.00  0.00    +0.000 HD
BRANCH  18  26
ATOM     22  C   UNL     1      -0.235  13.699  22.405  0.00  0.00    +0.000 C 
ATOM     23  C   UNL     1       0.013  12.584  21.431  0.00  0.00    +0.000 A 
ATOM     24  C   UNL     1      -0.629  11.353  21.576  0.00  0.00    +0.000 A 
ATOM     25  C   UNL     1      -0.367  10.295  20.696  0.00  0.00    +0.000 A 
ATOM     26  C   UNL     1       0.538  10.440  19.641  0.00  0.00    +0.000 A 
ATOM     27  C   UNL     1       1.151  11.696  19.472  0.00  0.00    +0.000 A 
ATOM     28 BR   UNL     1       2.383  12.013  18.057  0.00  0.00    +0.000 Br
ATOM     29  C   UNL     1       0.900  12.752  20.363  0.00  0.00    +0.000 A 
ENDBRANCH  18  26
ENDBRANCH  17  19
ENDBRANCH   1  17
TORSDOF 3
ENDMDL
MODEL 9
REMARK VINA RESULT:      -7.0      2.207      4.341
REMARK  Name = 
REMARK  4 active torsions:
REMARK  status: ('A' for Active; 'I' for Inactive)
REMARK    1  A    between atoms: C_1  and  C_2
REMARK    2  A    between atoms: C_5  and  N_6
REMARK    3  A    between atoms: C_7  and  C_9
REMARK    4  A    between atoms: C_9  and  N_10
REMARK                            x       y       z     vdW  Elec       q    Type
REMARK                         _______ _______ _______ _____ _____    ______ ____
ROOT
ATOM      1  N   UNL     1       3.412   5.102  19.482  0.00  0.00    +0.000 N 
ATOM      2  C   UNL     1       4.699   5.327  18.977  0.00  0.00    +0.000 C 
ATOM      3  O   UNL     1       5.556   5.952  19.606  0.00  0.00    +0.000 OA
ATOM      4  C   UNL     1       4.958   5.143  17.547  0.00  0.00    +0.000 A 
ATOM      5  C   UNL     1       5.411   6.254  16.826  0.00  0.00    +0.000 A 
ATOM      6  C   UNL     1       5.651   6.135  15.465  0.00  0.00    +0.000 A 
ATOM      7  C   UNL     1       5.433   4.902  14.878  0.00  0.00    +0.000 A 
ATOM      8  N   UNL     1       5.039   3.802  15.563  0.00  0.00    +0.000 NA
ATOM      9  C   UNL     1       4.821   3.937  16.897  0.00  0.00    +0.000 A 
ATOM     10  S   UNL     1       4.492   2.458  17.803  0.00  0.00    +0.000 S 
ATOM     11  C   UNL     1       2.876   2.843  18.454  0.00  0.00    +0.000 A 
ATOM     12  C   UNL     1       1.952   1.782  18.297  0.00  0.00    +0.000 A 
ATOM     13  C   UNL     1       0.660   1.859  18.802  0.00  0.00    +0.000 A 
ATOM     14  C   UNL     1       0.262   3.016  19.444  0.00  0.00    +0.000 A 
ATOM     15  C   UNL     1       1.163   4.081  19.591  0.00  0.00    +0.000 A 
ATOM     16  C   UNL     1       2.501   4.026  19.137  0.00  0.00    +0.000 A 
ENDROOT
BRANCH   1  17
ATOM     17  C   UNL     1       3.020   6.115  20.474  0.00  0.00    +0.000 C 
BRANCH  17  19
ATOM     18  N   UNL     1       1.616   8.133  20.628  0.00  0.00    +0.000 N 
ATOM     19  C   UNL     1       2.276   7.261  19.769  0.00  0.00    +0.000 C 
ATOM     20  O   UNL     1       2.345   7.384  18.547  0.00  0.00    +0.000 OA
ATOM     21  H   UNL     1       1.591   7.883  21.616  0.00  0.00    +0.000 HD
BRANCH  18  26
ATOM     22  C   UNL     1      -1.593  12.718  19.250  0.00  0.00    +0.000 C 
ATOM     23  C   UNL     1      -0.722  11.550  19.612  0.00  0.00    +0.000 A 
ATOM     24  C   UNL     1       0.054  10.910  18.644  0.00  0.00    +0.000 A 
ATOM     25  C   UNL     1       0.833   9.792  18.968  0.00  0.00    +0.000 A 
ATOM     26  C   UNL     1       0.865   9.286  20.271  0.00  0.00    +0.000 A 
ATOM     27  C   UNL     1       0.115   9.960  21.254  0.00  0.00    +0.000 A 
ATOM     28 BR   UNL     1       0.102   9.374  23.064  0.00  0.00    +0.000 Br
ATOM     29  C   UNL     1      -0.678  11.072  20.926  0.00  0.00    +0.000 A 
ENDBRANCH  18  26
ENDBRANCH  17  19
ENDBRANCH   1  17
TORSDOF 3
ENDMDL
