MODEL 1
REMARK VINA RESULT:      -8.0      0.000      0.000
REMARK  Name = 
REMARK  7 active torsions:
REMARK  status: ('A' for Active; 'I' for Inactive)
REMARK    1  A    between atoms: C_1  and  N_2
REMARK    2  A    between atoms: C_3  and  C_5
REMARK    3  A    between atoms: C_5  and  C_9
REMARK    4  A    between atoms: N_6  and  O_7
REMARK    5  A    between atoms: O_7  and  C_8
REMARK    6  A    between atoms: C_14  and  O_15
REMARK    7  A    between atoms: O_15  and  C_16
REMARK                            x       y       z     vdW  Elec       q    Type
REMARK                         _______ _______ _______ _____ _____    ______ ____
ROOT
ATOM      1  C   UNL     1       4.115   4.160  17.264  0.00  0.00    +0.000 A 
ATOM      2  C   UNL     1       3.753   2.799  17.305  0.00  0.00    +0.000 A 
ATOM      3  C   UNL     1       2.507   2.385  17.785  0.00  0.00    +0.000 A 
ATOM      4  C   UNL     1       1.605   3.325  18.257  0.00  0.00    +0.000 A 
ATOM      5  C   UNL     1       1.941   4.675  18.233  0.00  0.00    +0.000 A 
ATOM      6  C   UNL     1       3.168   5.113  17.692  0.00  0.00    +0.000 A 
ENDROOT
BRANCH   1   7
ATOM      7  C   UNL     1       5.517   4.460  16.816  0.00  0.00    +0.000 C 
ATOM      8  N   UNL     1       6.605   4.564  17.530  0.00  0.00    +0.000 NA
BRANCH   7  11
ATOM      9  C   UNL     1       6.390   3.763  13.161  0.00  0.00    +0.000 C 
ATOM     10  N   UNL     1       6.089   3.677  14.564  0.00  0.00    +0.000 N 
ATOM     11  C   UNL     1       5.723   4.780  15.312  0.00  0.00    +0.000 C 
ATOM     12  O   UNL     1       5.619   5.915  14.875  0.00  0.00    +0.000 OA
ATOM     13  H   UNL     1       5.980   2.773  15.016  0.00  0.00    +0.000 HD
ENDBRANCH   7  11
BRANCH   8  14
ATOM     14  O   UNL     1       6.364   4.473  18.901  0.00  0.00    +0.000 OA
ATOM     15  C   UNL     1       7.070   5.520  19.556  0.00  0.00    +0.000 C 
ENDBRANCH   8  14
ENDBRANCH   1   7
BRANCH   6  16
ATOM     16  O   UNL     1       3.461   6.464  17.687  0.00  0.00    +0.000 OA
BRANCH  16  17
ATOM     17  C   UNL     1       2.681   7.340  18.432  0.00  0.00    +0.000 A 
ATOM     18  C   UNL     1       2.150   8.428  17.739  0.00  0.00    +0.000 A 
ATOM     19  C   UNL     1       1.354   9.372  18.399  0.00  0.00    +0.000 A 
ATOM     20  C   UNL     1       1.092   9.225  19.759  0.00  0.00    +0.000 A 
ATOM     21  I   UNL     1      -0.076  10.633  20.746  0.00  0.00    +0.000 I 
ATOM     22  C   UNL     1       1.599   8.130  20.457  0.00  0.00    +0.000 A 
ATOM     23  C   UNL     1       2.371   7.173  19.788  0.00  0.00    +0.000 A 
ENDBRANCH  16  17
ENDBRANCH   6  16
TORSDOF 5
ENDMDL
MODEL 2
REMARK VINA RESULT:      -7.8      0.196      1.042
REMARK  Name = 
REMARK  7 active torsions:
REMARK  status: ('A' for Active; 'I' for Inactive)
REMARK    1  A    between atoms: C_1  and  N_2
REMARK    2  A    between atoms: C_3  and  C_5
REMARK    3  A    between atoms: C_5  and  C_9
REMARK    4  A    between atoms: N_6  and  O_7
REMARK    5  A    between atoms: O_7  and  C_8
REMARK    6  A    between atoms: C_14  and  O_15
REMARK    7  A    between atoms: O_15  and  C_16
REMARK                            x       y       z     vdW  Elec       q    Type
REMARK                         _______ _______ _______ _____ _____    ______ ____
ROOT
ATOM      1  C   UNL     1       4.150   4.213  17.325  0.00  0.00    +0.000 A 
ATOM      2  C   UNL     1       3.849   2.846  17.487  0.00  0.00    +0.000 A 
ATOM      3  C   UNL     1       2.610   2.420  17.973  0.00  0.00    +0.000 A 
ATOM      4  C   UNL     1       1.652   3.355  18.332  0.00  0.00    +0.000 A 
ATOM      5  C   UNL     1       1.927   4.712  18.188  0.00  0.00    +0.000 A 
ATOM      6  C   UNL     1       3.149   5.156  17.638  0.00  0.00    +0.000 A 
ENDROOT
BRANCH   1   7
ATOM      7  C   UNL     1       5.549   4.537  16.885  0.00  0.00    +0.000 C 
ATOM      8  N   UNL     1       6.626   4.684  17.609  0.00  0.00    +0.000 NA
BRANCH   7  11
ATOM      9  C   UNL     1       6.381   3.753  13.239  0.00  0.00    +0.000 C 
ATOM     10  N   UNL     1       6.081   3.700  14.643  0.00  0.00    +0.000 N 
ATOM     11  C   UNL     1       5.764   4.827  15.377  0.00  0.00    +0.000 C 
ATOM     12  O   UNL     1       5.707   5.959  14.924  0.00  0.00    +0.000 OA
ATOM     13  H   UNL     1       5.935   2.808  15.108  0.00  0.00    +0.000 HD
ENDBRANCH   7  11
BRANCH   8  14
ATOM     14  O   UNL     1       6.372   4.618  18.979  0.00  0.00    +0.000 OA
ATOM     15  C   UNL     1       7.255   5.511  19.646  0.00  0.00    +0.000 C 
ENDBRANCH   8  14
ENDBRANCH   1   7
BRANCH   6  16
ATOM     16  O   UNL     1       3.380   6.513  17.511  0.00  0.00    +0.000 OA
BRANCH  16  17
ATOM     17  C   UNL     1       2.629   7.411  18.259  0.00  0.00    +0.000 A 
ATOM     18  C   UNL     1       2.468   7.100  19.610  0.00  0.00    +0.000 A 
ATOM     19  C   UNL     1       1.724   7.936  20.450  0.00  0.00    +0.000 A 
ATOM     20  C   UNL     1       1.137   9.089  19.933  0.00  0.00    +0.000 A 
ATOM     21  I   UNL     1       0.018  10.327  21.174  0.00  0.00    +0.000 I 
ATOM     22  C   UNL     1       1.309   9.423  18.591  0.00  0.00    +0.000 A 
ATOM     23  C   UNL     1       2.078   8.599  17.760  0.00  0.00    +0.000 A 
ENDBRANCH  16  17
ENDBRANCH   6  16
TORSDOF 5
ENDMDL
MODEL 3
REMARK VINA RESULT:      -7.5      0.920      2.665
REMARK  Name = 
REMARK  7 active torsions:
REMARK  status: ('A' for Active; 'I' for Inactive)
REMARK    1  A    between atoms: C_1  and  N_2
REMARK    2  A    between atoms: C_3  and  C_5
REMARK    3  A    between atoms: C_5  and  C_9
REMARK    4  A    between atoms: N_6  and  O_7
REMARK    5  A    between atoms: O_7  and  C_8
REMARK    6  A    between atoms: C_14  and  O_15
REMARK    7  A    between atoms: O_15  and  C_16
REMARK                            x       y       z     vdW  Elec       q    Type
REMARK                         _______ _______ _______ _____ _____    ______ ____
ROOT
ATOM      1  C   UNL     1       4.035   4.049  17.606  0.00  0.00    +0.000 A 
ATOM      2  C   UNL     1       3.738   2.679  17.748  0.00  0.00    +0.000 A 
ATOM      3  C   UNL     1       2.435   2.230  17.981  0.00  0.00    +0.000 A 
ATOM      4  C   UNL     1       1.403   3.147  18.101  0.00  0.00    +0.000 A 
ATOM      5  C   UNL     1       1.671   4.507  17.972  0.00  0.00    +0.000 A 
ATOM      6  C   UNL     1       2.970   4.970  17.673  0.00  0.00    +0.000 A 
ENDROOT
BRANCH   1   7
ATOM      7  C   UNL     1       5.488   4.400  17.455  0.00  0.00    +0.000 C 
ATOM      8  N   UNL     1       6.259   4.279  16.408  0.00  0.00    +0.000 NA
BRANCH   7  11
ATOM      9  C   UNL     1       8.306   6.004  19.476  0.00  0.00    +0.000 C 
ATOM     10  N   UNL     1       7.430   5.522  18.444  0.00  0.00    +0.000 N 
ATOM     11  C   UNL     1       6.228   4.899  18.723  0.00  0.00    +0.000 C 
ATOM     12  O   UNL     1       5.793   4.695  19.845  0.00  0.00    +0.000 OA
ATOM     13  H   UNL     1       7.591   5.768  17.471  0.00  0.00    +0.000 HD
ENDBRANCH   7  11
BRANCH   8  14
ATOM     14  O   UNL     1       5.626   3.642  15.340  0.00  0.00    +0.000 OA
ATOM     15  C   UNL     1       6.262   4.044  14.133  0.00  0.00    +0.000 C 
ENDBRANCH   8  14
ENDBRANCH   1   7
BRANCH   6  16
ATOM     16  O   UNL     1       3.192   6.330  17.552  0.00  0.00    +0.000 OA
BRANCH  16  17
ATOM     17  C   UNL     1       2.533   7.212  18.399  0.00  0.00    +0.000 A 
ATOM     18  C   UNL     1       2.035   8.373  17.807  0.00  0.00    +0.000 A 
ATOM     19  C   UNL     1       1.360   9.330  18.575  0.00  0.00    +0.000 A 
ATOM     20  C   UNL     1       1.186   9.122  19.941  0.00  0.00    +0.000 A 
ATOM     21  I   UNL     1       0.198  10.548  21.087  0.00  0.00    +0.000 I 
ATOM     22  C   UNL     1       1.659   7.956  20.539  0.00  0.00    +0.000 A 
ATOM     23  C   UNL     1       2.309   6.988  19.764  0.00  0.00    +0.000 A 
ENDBRANCH  16  17
ENDBRANCH   6  16
TORSDOF 5
ENDMDL
MODEL 4
REMARK VINA RESULT:      -7.4      0.874      2.727
REMARK  Name = 
REMARK  7 active torsions:
REMARK  status: ('A' for Active; 'I' for Inactive)
REMARK    1  A    between atoms: C_1  and  N_2
REMARK    2  A    between atoms: C_3  and  C_5
REMARK    3  A    between atoms: C_5  and  C_9
REMARK    4  A    between atoms: N_6  and  O_7
REMARK    5  A    between atoms: O_7  and  C_8
REMARK    6  A    between atoms: C_14  and  O_15
REMARK    7  A    between atoms: O_15  and  C_16
REMARK                            x       y       z     vdW  Elec       q    Type
REMARK                         _______ _______ _______ _____ _____    ______ ____
ROOT
ATOM      1  C   UNL     1       4.434   4.146  17.039  0.00  0.00    +0.000 A 
ATOM      2  C   UNL     1       4.114   2.774  17.065  0.00  0.00    +0.000 A 
ATOM      3  C   UNL     1       2.917   2.309  17.616  0.00  0.00    +0.000 A 
ATOM      4  C   UNL     1       2.022   3.208  18.175  0.00  0.00    +0.000 A 
ATOM      5  C   UNL     1       2.317   4.568  18.168  0.00  0.00    +0.000 A 
ATOM      6  C   UNL     1       3.492   5.058  17.558  0.00  0.00    +0.000 A 
ENDROOT
BRANCH   1   7
ATOM      7  C   UNL     1       5.792   4.500  16.506  0.00  0.00    +0.000 C 
ATOM      8  N   UNL     1       6.181   4.634  15.266  0.00  0.00    +0.000 NA
BRANCH   7  11
ATOM      9  C   UNL     1       7.506   5.704  19.702  0.00  0.00    +0.000 C 
ATOM     10  N   UNL     1       6.577   5.390  18.650  0.00  0.00    +0.000 N 
ATOM     11  C   UNL     1       6.938   4.652  17.539  0.00  0.00    +0.000 C 
ATOM     12  O   UNL     1       8.053   4.198  17.336  0.00  0.00    +0.000 OA
ATOM     13  H   UNL     1       5.583   5.566  18.767  0.00  0.00    +0.000 HD
ENDBRANCH   7  11
BRANCH   8  14
ATOM     14  O   UNL     1       5.186   4.296  14.347  0.00  0.00    +0.000 OA
ATOM     15  C   UNL     1       5.807   3.754  13.188  0.00  0.00    +0.000 C 
ENDBRANCH   8  14
ENDBRANCH   1   7
BRANCH   6  16
ATOM     16  O   UNL     1       3.745   6.417  17.572  0.00  0.00    +0.000 OA
BRANCH  16  17
ATOM     17  C   UNL     1       2.910   7.264  18.290  0.00  0.00    +0.000 A 
ATOM     18  C   UNL     1       2.380   8.345  17.584  0.00  0.00    +0.000 A 
ATOM     19  C   UNL     1       1.532   9.261  18.216  0.00  0.00    +0.000 A 
ATOM     20  C   UNL     1       1.215   9.094  19.562  0.00  0.00    +0.000 A 
ATOM     21  I   UNL     1      -0.032  10.461  20.509  0.00  0.00    +0.000 I 
ATOM     22  C   UNL     1       1.720   8.006  20.273  0.00  0.00    +0.000 A 
ATOM     23  C   UNL     1       2.545   7.076  19.630  0.00  0.00    +0.000 A 
ENDBRANCH  16  17
ENDBRANCH   6  16
TORSDOF 5
ENDMDL
MODEL 5
REMARK VINA RESULT:      -7.4      0.909      2.848
REMARK  Name = 
REMARK  7 active torsions:
REMARK  status: ('A' for Active; 'I' for Inactive)
REMARK    1  A    between atoms: C_1  and  N_2
REMARK    2  A    between atoms: C_3  and  C_5
REMARK    3  A    between atoms: C_5  and  C_9
REMARK    4  A    between atoms: N_6  and  O_7
REMARK    5  A    between atoms: O_7  and  C_8
REMARK    6  A    between atoms: C_14  and  O_15
REMARK    7  A    between atoms: O_15  and  C_16
REMARK                            x       y       z     vdW  Elec       q    Type
REMARK                         _______ _______ _______ _____ _____    ______ ____
ROOT
ATOM      1  C   UNL     1       4.038   4.160  17.556  0.00  0.00    +0.000 A 
ATOM      2  C   UNL     1       3.716   2.795  17.694  0.00  0.00    +0.000 A 
ATOM      3  C   UNL     1       2.412   2.372  17.966  0.00  0.00    +0.000 A 
ATOM      4  C   UNL     1       1.405   3.309  18.130  0.00  0.00    +0.000 A 
ATOM      5  C   UNL     1       1.698   4.664  18.005  0.00  0.00    +0.000 A 
ATOM      6  C   UNL     1       2.996   5.103  17.667  0.00  0.00    +0.000 A 
ENDROOT
BRANCH   1   7
ATOM      7  C   UNL     1       5.492   4.482  17.359  0.00  0.00    +0.000 C 
ATOM      8  N   UNL     1       6.231   4.332  16.293  0.00  0.00    +0.000 NA
BRANCH   7  11
ATOM      9  C   UNL     1       8.234   6.334  19.269  0.00  0.00    +0.000 C 
ATOM     10  N   UNL     1       7.338   5.808  18.277  0.00  0.00    +0.000 N 
ATOM     11  C   UNL     1       6.277   4.984  18.599  0.00  0.00    +0.000 C 
ATOM     12  O   UNL     1       5.993   4.623  19.730  0.00  0.00    +0.000 OA
ATOM     13  H   UNL     1       7.361   6.155  17.322  0.00  0.00    +0.000 HD
ENDBRANCH   7  11
BRANCH   8  14
ATOM     14  O   UNL     1       5.558   3.692  15.252  0.00  0.00    +0.000 OA
ATOM     15  C   UNL     1       6.263   3.933  14.041  0.00  0.00    +0.000 C 
ENDBRANCH   8  14
ENDBRANCH   1   7
BRANCH   6  16
ATOM     16  O   UNL     1       3.243   6.459  17.552  0.00  0.00    +0.000 OA
BRANCH  16  17
ATOM     17  C   UNL     1       2.522   7.357  18.329  0.00  0.00    +0.000 A 
ATOM     18  C   UNL     1       2.405   7.040  19.683  0.00  0.00    +0.000 A 
ATOM     19  C   UNL     1       1.694   7.877  20.551  0.00  0.00    +0.000 A 
ATOM     20  C   UNL     1       1.097   9.035  20.059  0.00  0.00    +0.000 A 
ATOM     21  I   UNL     1       0.027  10.273  21.342  0.00  0.00    +0.000 I 
ATOM     22  C   UNL     1       1.225   9.374  18.713  0.00  0.00    +0.000 A 
ATOM     23  C   UNL     1       1.961   8.550  17.853  0.00  0.00    +0.000 A 
ENDBRANCH  16  17
ENDBRANCH   6  16
TORSDOF 5
ENDMDL
MODEL 6
REMARK VINA RESULT:      -7.2      1.596      2.150
REMARK  Name = 
REMARK  7 active torsions:
REMARK  status: ('A' for Active; 'I' for Inactive)
REMARK    1  A    between atoms: C_1  and  N_2
REMARK    2  A    between atoms: C_3  and  C_5
REMARK    3  A    between atoms: C_5  and  C_9
REMARK    4  A    between atoms: N_6  and  O_7
REMARK    5  A    between atoms: O_7  and  C_8
REMARK    6  A    between atoms: C_14  and  O_15
REMARK    7  A    between atoms: O_15  and  C_16
REMARK                            x       y       z     vdW  Elec       q    Type
REMARK                         _______ _______ _______ _____ _____    ______ ____
ROOT
ATOM      1  C   UNL     1       3.037   3.629  18.697  0.00  0.00    +0.000 A 
ATOM      2  C   UNL     1       2.375   2.468  18.253  0.00  0.00    +0.000 A 
ATOM      3  C   UNL     1       1.047   2.203  18.598  0.00  0.00    +0.000 A 
ATOM      4  C   UNL     1       0.359   3.085  19.416  0.00  0.00    +0.000 A 
ATOM      5  C   UNL     1       0.993   4.236  19.873  0.00  0.00    +0.000 A 
ATOM      6  C   UNL     1       2.312   4.550  19.481  0.00  0.00    +0.000 A 
ENDROOT
BRANCH   1   7
ATOM      7  C   UNL     1       4.490   3.744  18.334  0.00  0.00    +0.000 C 
ATOM      8  N   UNL     1       5.543   3.465  19.054  0.00  0.00    +0.000 NA
BRANCH   7  11
ATOM      9  C   UNL     1       6.131   3.959  14.890  0.00  0.00    +0.000 C 
ATOM     10  N   UNL     1       5.649   3.554  16.182  0.00  0.00    +0.000 N 
ATOM     11  C   UNL     1       4.824   4.356  16.949  0.00  0.00    +0.000 C 
ATOM     12  O   UNL     1       4.428   5.463  16.621  0.00  0.00    +0.000 OA
ATOM     13  H   UNL     1       5.769   2.598  16.504  0.00  0.00    +0.000 HD
ENDBRANCH   7  11
BRANCH   8  14
ATOM     14  O   UNL     1       5.224   3.109  20.365  0.00  0.00    +0.000 OA
ATOM     15  C   UNL     1       5.073   1.696  20.425  0.00  0.00    +0.000 C 
ENDBRANCH   8  14
ENDBRANCH   1   7
BRANCH   6  16
ATOM     16  O   UNL     1       2.903   5.705  19.958  0.00  0.00    +0.000 OA
BRANCH  16  17
ATOM     17  C   UNL     1       2.336   6.939  19.663  0.00  0.00    +0.000 A 
ATOM     18  C   UNL     1       1.718   7.599  20.725  0.00  0.00    +0.000 A 
ATOM     19  C   UNL     1       1.112   8.846  20.533  0.00  0.00    +0.000 A 
ATOM     20  C   UNL     1       1.124   9.432  19.269  0.00  0.00    +0.000 A 
ATOM     21  I   UNL     1       0.211  11.277  18.975  0.00  0.00    +0.000 I 
ATOM     22  C   UNL     1       1.757   8.793  18.205  0.00  0.00    +0.000 A 
ATOM     23  C   UNL     1       2.387   7.559  18.407  0.00  0.00    +0.000 A 
ENDBRANCH  16  17
ENDBRANCH   6  16
TORSDOF 5
ENDMDL
MODEL 7
REMARK VINA RESULT:      -7.2      1.655      2.058
REMARK  Name = 
REMARK  7 active torsions:
REMARK  status: ('A' for Active; 'I' for Inactive)
REMARK    1  A    between atoms: C_1  and  N_2
REMARK    2  A    between atoms: C_3  and  C_5
REMARK    3  A    between atoms: C_5  and  C_9
REMARK    4  A    between atoms: N_6  and  O_7
REMARK    5  A    between atoms: O_7  and  C_8
REMARK    6  A    between atoms: C_14  and  O_15
REMARK    7  A    between atoms: O_15  and  C_16
REMARK                            x       y       z     vdW  Elec       q    Type
REMARK                         _______ _______ _______ _____ _____    ______ ____
ROOT
ATOM      1  C   UNL     1       3.001   3.615  18.801  0.00  0.00    +0.000 A 
ATOM      2  C   UNL     1       2.296   2.463  18.399  0.00  0.00    +0.000 A 
ATOM      3  C   UNL     1       0.958   2.262  18.749  0.00  0.00    +0.000 A 
ATOM      4  C   UNL     1       0.303   3.200  19.530  0.00  0.00    +0.000 A 
ATOM      5  C   UNL     1       0.979   4.344  19.945  0.00  0.00    +0.000 A 
ATOM      6  C   UNL     1       2.309   4.591  19.546  0.00  0.00    +0.000 A 
ENDROOT
BRANCH   1   7
ATOM      7  C   UNL     1       4.458   3.660  18.438  0.00  0.00    +0.000 C 
ATOM      8  N   UNL     1       5.494   3.295  19.145  0.00  0.00    +0.000 NA
BRANCH   7  11
ATOM      9  C   UNL     1       6.297   4.034  15.110  0.00  0.00    +0.000 C 
ATOM     10  N   UNL     1       5.769   3.584  16.368  0.00  0.00    +0.000 N 
ATOM     11  C   UNL     1       4.826   4.305  17.076  0.00  0.00    +0.000 C 
ATOM     12  O   UNL     1       4.352   5.371  16.719  0.00  0.00    +0.000 OA
ATOM     13  H   UNL     1       5.955   2.642  16.701  0.00  0.00    +0.000 HD
ENDBRANCH   7  11
BRANCH   8  14
ATOM     14  O   UNL     1       5.156   2.908  20.442  0.00  0.00    +0.000 OA
ATOM     15  C   UNL     1       5.128   1.487  20.496  0.00  0.00    +0.000 C 
ENDBRANCH   8  14
ENDBRANCH   1   7
BRANCH   6  16
ATOM     16  O   UNL     1       2.943   5.741  19.980  0.00  0.00    +0.000 OA
BRANCH  16  17
ATOM     17  C   UNL     1       2.309   6.969  19.842  0.00  0.00    +0.000 A 
ATOM     18  C   UNL     1       2.392   7.564  18.582  0.00  0.00    +0.000 A 
ATOM     19  C   UNL     1       1.791   8.805  18.339  0.00  0.00    +0.000 A 
ATOM     20  C   UNL     1       1.106   9.453  19.364  0.00  0.00    +0.000 A 
ATOM     21  I   UNL     1       0.226  11.303  19.012  0.00  0.00    +0.000 I 
ATOM     22  C   UNL     1       0.997   8.859  20.621  0.00  0.00    +0.000 A 
ATOM     23  C   UNL     1       1.574   7.605  20.852  0.00  0.00    +0.000 A 
ENDBRANCH  16  17
ENDBRANCH   6  16
TORSDOF 5
ENDMDL
MODEL 8
REMARK VINA RESULT:      -7.2      1.239      2.637
REMARK  Name = 
REMARK  7 active torsions:
REMARK  status: ('A' for Active; 'I' for Inactive)
REMARK    1  A    between atoms: C_1  and  N_2
REMARK    2  A    between atoms: C_3  and  C_5
REMARK    3  A    between atoms: C_5  and  C_9
REMARK    4  A    between atoms: N_6  and  O_7
REMARK    5  A    between atoms: O_7  and  C_8
REMARK    6  A    between atoms: C_14  and  O_15
REMARK    7  A    between atoms: O_15  and  C_16
REMARK                            x       y       z     vdW  Elec       q    Type
REMARK                         _______ _______ _______ _____ _____    ______ ____
ROOT
ATOM      1  C   UNL     1       4.280   4.749  17.168  0.00  0.00    +0.000 A 
ATOM      2  C   UNL     1       4.174   3.348  17.275  0.00  0.00    +0.000 A 
ATOM      3  C   UNL     1       3.039   2.736  17.812  0.00  0.00    +0.000 A 
ATOM      4  C   UNL     1       1.992   3.515  18.278  0.00  0.00    +0.000 A 
ATOM      5  C   UNL     1       2.074   4.902  18.191  0.00  0.00    +0.000 A 
ATOM      6  C   UNL     1       3.186   5.532  17.592  0.00  0.00    +0.000 A 
ENDROOT
BRANCH   1   7
ATOM      7  C   UNL     1       5.590   5.279  16.661  0.00  0.00    +0.000 C 
ATOM      8  N   UNL     1       6.163   5.086  15.503  0.00  0.00    +0.000 NA
BRANCH   7  11
ATOM      9  C   UNL     1       7.904   8.096  17.807  0.00  0.00    +0.000 C 
ATOM     10  N   UNL     1       7.021   7.225  17.081  0.00  0.00    +0.000 N 
ATOM     11  C   UNL     1       6.449   6.105  17.654  0.00  0.00    +0.000 C 
ATOM     12  O   UNL     1       6.627   5.743  18.806  0.00  0.00    +0.000 OA
ATOM     13  H   UNL     1       6.662   7.495  16.169  0.00  0.00    +0.000 HD
ENDBRANCH   7  11
BRANCH   8  14
ATOM     14  O   UNL     1       5.472   4.179  14.701  0.00  0.00    +0.000 OA
ATOM     15  C   UNL     1       6.257   3.906  13.547  0.00  0.00    +0.000 C 
ENDBRANCH   8  14
ENDBRANCH   1   7
BRANCH   6  16
ATOM     16  O   UNL     1       3.226   6.913  17.524  0.00  0.00    +0.000 OA
BRANCH  16  17
ATOM     17  C   UNL     1       2.477   7.666  18.419  0.00  0.00    +0.000 A 
ATOM     18  C   UNL     1       1.839   8.790  17.891  0.00  0.00    +0.000 A 
ATOM     19  C   UNL     1       1.065   9.620  18.710  0.00  0.00    +0.000 A 
ATOM     20  C   UNL     1       0.930   9.323  20.064  0.00  0.00    +0.000 A 
ATOM     21  I   UNL     1      -0.207  10.561  21.287  0.00  0.00    +0.000 I 
ATOM     22  C   UNL     1       1.543   8.191  20.599  0.00  0.00    +0.000 A 
ATOM     23  C   UNL     1       2.294   7.348  19.772  0.00  0.00    +0.000 A 
ENDBRANCH  16  17
ENDBRANCH   6  16
TORSDOF 5
ENDMDL
MODEL 9
REMARK VINA RESULT:      -7.1      1.635      1.736
REMARK  Name = 
REMARK  7 active torsions:
REMARK  status: ('A' for Active; 'I' for Inactive)
REMARK    1  A    between atoms: C_1  and  N_2
REMARK    2  A    between atoms: C_3  and  C_5
REMARK    3  A    between atoms: C_5  and  C_9
REMARK    4  A    between atoms: N_6  and  O_7
REMARK    5  A    between atoms: O_7  and  C_8
REMARK    6  A    between atoms: C_14  and  O_15
REMARK    7  A    between atoms: O_15  and  C_16
REMARK                            x       y       z     vdW  Elec       q    Type
REMARK                         _______ _______ _______ _____ _____    ______ ____
ROOT
ATOM      1  C   UNL     1       4.037   4.226  19.155  0.00  0.00    +0.000 A 
ATOM      2  C   UNL     1       3.812   3.024  19.856  0.00  0.00    +0.000 A 
ATOM      3  C   UNL     1       2.798   2.911  20.811  0.00  0.00    +0.000 A 
ATOM      4  C   UNL     1       2.002   4.007  21.103  0.00  0.00    +0.000 A 
ATOM      5  C   UNL     1       2.209   5.207  20.430  0.00  0.00    +0.000 A 
ATOM      6  C   UNL     1       3.185   5.319  19.418  0.00  0.00    +0.000 A 
ENDROOT
BRANCH   1   7
ATOM      7  C   UNL     1       5.218   4.241  18.227  0.00  0.00    +0.000 C 
ATOM      8  N   UNL     1       6.462   4.550  18.481  0.00  0.00    +0.000 NA
BRANCH   7  11
ATOM      9  C   UNL     1       6.017   3.894  14.506  0.00  0.00    +0.000 C 
ATOM     10  N   UNL     1       6.063   4.071  15.932  0.00  0.00    +0.000 N 
ATOM     11  C   UNL     1       4.944   3.934  16.731  0.00  0.00    +0.000 C 
ATOM     12  O   UNL     1       3.827   3.657  16.325  0.00  0.00    +0.000 OA
ATOM     13  H   UNL     1       6.953   4.144  16.416  0.00  0.00    +0.000 HD
ENDBRANCH   7  11
BRANCH   8  14
ATOM     14  O   UNL     1       6.648   5.017  19.783  0.00  0.00    +0.000 OA
ATOM     15  C   UNL     1       7.897   5.694  19.846  0.00  0.00    +0.000 C 
ENDBRANCH   8  14
ENDBRANCH   1   7
BRANCH   6  16
ATOM     16  O   UNL     1       3.356   6.530  18.773  0.00  0.00    +0.000 OA
BRANCH  16  17
ATOM     17  C   UNL     1       2.454   7.561  18.998  0.00  0.00    +0.000 A 
ATOM     18  C   UNL     1       2.075   8.300  17.876  0.00  0.00    +0.000 A 
ATOM     19  C   UNL     1       1.174   9.365  17.996  0.00  0.00    +0.000 A 
ATOM     20  C   UNL     1       0.653   9.692  19.245  0.00  0.00    +0.000 A 
ATOM     21  I   UNL     1      -0.673  11.282  19.430  0.00  0.00    +0.000 I 
ATOM     22  C   UNL     1       1.006   8.947  20.370  0.00  0.00    +0.000 A 
ATOM     23  C   UNL     1       1.885   7.865  20.242  0.00  0.00    +0.000 A 
ENDBRANCH  16  17
ENDBRANCH   6  16
TORSDOF 5
ENDMDL
