MODEL 1
REMARK VINA RESULT:      -7.4      0.000      0.000
REMARK  Name = 
REMARK  7 active torsions:
REMARK  status: ('A' for Active; 'I' for Inactive)
REMARK    1  A    between atoms: C_1  and  C_2
REMARK    2  A    between atoms: N_4  and  C_5
REMARK    3  A    between atoms: C_10  and  C_11
REMARK    4  A    between atoms: N_13  and  C_14
REMARK    5  A    between atoms: N_13  and  C_15
REMARK    6  A    between atoms: C_15  and  C_16
REMARK    7  A    between atoms: C_15  and  C_17
REMARK                            x       y       z     vdW  Elec       q    Type
REMARK                         _______ _______ _______ _____ _____    ______ ____
ROOT
ATOM      1  C   UNL     1       1.716   5.421  20.553  0.00  0.00    +0.000 A 
ATOM      2  C   UNL     1       0.821   4.367  20.386  0.00  0.00    +0.000 A 
ATOM      3  C   UNL     1       1.230   3.190  19.758  0.00  0.00    +0.000 A 
ATOM      4  C   UNL     1       2.524   3.071  19.236  0.00  0.00    +0.000 A 
ATOM      5 CL   UNL     1       2.928   1.543  18.539  0.00  0.00    +0.000 Cl
ATOM      6  C   UNL     1       3.408   4.160  19.300  0.00  0.00    +0.000 A 
ATOM      7  C   UNL     1       3.003   5.313  20.004  0.00  0.00    +0.000 A 
ENDROOT
BRANCH   1  11
ATOM      8  C   UNL     1       0.999   8.916  21.780  0.00  0.00    +0.000 C 
ATOM      9  C   UNL     1       1.431   7.885  20.771  0.00  0.00    +0.000 C 
ATOM     10  O   UNL     1       1.750   8.220  19.636  0.00  0.00    +0.000 OA
ATOM     11  N   UNL     1       1.395   6.593  21.273  0.00  0.00    +0.000 N 
ATOM     12  H   UNL     1       0.968   6.470  22.183  0.00  0.00    +0.000 HD
ENDBRANCH   1  11
BRANCH   6  13
ATOM     13  C   UNL     1       4.807   4.077  18.775  0.00  0.00    +0.000 C 
ATOM     14  O   UNL     1       5.658   3.593  19.520  0.00  0.00    +0.000 OA
ATOM     15  N   UNL     1       5.141   4.602  17.514  0.00  0.00    +0.000 N 
ATOM     16  C   UNL     1       4.195   5.097  16.520  0.00  0.00    +0.000 C 
BRANCH  15  17
ATOM     17  C   UNL     1       6.566   4.677  17.099  0.00  0.00    +0.000 C 
ATOM     18  C   UNL     1       6.764   4.336  15.616  0.00  0.00    +0.000 C 
BRANCH  17  19
ATOM     19  C   UNL     1       7.344   5.912  17.552  0.00  0.00    +0.000 A 
ATOM     20  C   UNL     1       7.979   5.975  18.780  0.00  0.00    +0.000 A 
ATOM     21  C   UNL     1       8.467   7.203  19.167  0.00  0.00    +0.000 A 
ATOM     22  N   UNL     1       8.370   8.319  18.415  0.00  0.00    +0.000 NA
ATOM     23  C   UNL     1       7.771   8.156  17.235  0.00  0.00    +0.000 A 
ATOM     24  N   UNL     1       7.245   7.010  16.764  0.00  0.00    +0.000 NA
ENDBRANCH  17  19
ENDBRANCH  15  17
ENDBRANCH   6  13
TORSDOF 4
ENDMDL
MODEL 2
REMARK VINA RESULT:      -7.2      3.040      7.183
REMARK  Name = 
REMARK  7 active torsions:
REMARK  status: ('A' for Active; 'I' for Inactive)
REMARK    1  A    between atoms: C_1  and  C_2
REMARK    2  A    between atoms: N_4  and  C_5
REMARK    3  A    between atoms: C_10  and  C_11
REMARK    4  A    between atoms: N_13  and  C_14
REMARK    5  A    between atoms: N_13  and  C_15
REMARK    6  A    between atoms: C_15  and  C_16
REMARK    7  A    between atoms: C_15  and  C_17
REMARK                            x       y       z     vdW  Elec       q    Type
REMARK                         _______ _______ _______ _____ _____    ______ ____
ROOT
ATOM      1  C   UNL     1       5.668   4.439  14.723  0.00  0.00    +0.000 A 
ATOM      2  C   UNL     1       7.002   4.840  14.692  0.00  0.00    +0.000 A 
ATOM      3  C   UNL     1       7.637   5.263  15.860  0.00  0.00    +0.000 A 
ATOM      4  C   UNL     1       6.931   5.345  17.067  0.00  0.00    +0.000 A 
ATOM      5 CL   UNL     1       7.844   5.821  18.454  0.00  0.00    +0.000 Cl
ATOM      6  C   UNL     1       5.559   5.046  17.099  0.00  0.00    +0.000 A 
ATOM      7  C   UNL     1       4.953   4.550  15.926  0.00  0.00    +0.000 A 
ENDROOT
BRANCH   1  11
ATOM      8  C   UNL     1       4.624   2.934  11.425  0.00  0.00    +0.000 C 
ATOM      9  C   UNL     1       5.606   3.494  12.420  0.00  0.00    +0.000 C 
ATOM     10  O   UNL     1       6.802   3.539  12.158  0.00  0.00    +0.000 OA
ATOM     11  N   UNL     1       5.002   3.902  13.600  0.00  0.00    +0.000 N 
ATOM     12  H   UNL     1       4.025   3.663  13.717  0.00  0.00    +0.000 HD
ENDBRANCH   1  11
BRANCH   6  13
ATOM     13  C   UNL     1       4.765   5.100  18.367  0.00  0.00    +0.000 C 
ATOM     14  O   UNL     1       4.970   4.212  19.194  0.00  0.00    +0.000 OA
ATOM     15  N   UNL     1       3.776   6.079  18.562  0.00  0.00    +0.000 N 
ATOM     16  C   UNL     1       3.530   7.227  17.695  0.00  0.00    +0.000 C 
BRANCH  15  17
ATOM     17  C   UNL     1       2.877   5.995  19.742  0.00  0.00    +0.000 C 
ATOM     18  C   UNL     1       2.090   7.292  19.973  0.00  0.00    +0.000 C 
BRANCH  17  19
ATOM     19  C   UNL     1       2.024   4.733  19.860  0.00  0.00    +0.000 A 
ATOM     20  C   UNL     1       1.884   4.045  21.052  0.00  0.00    +0.000 A 
ATOM     21  C   UNL     1       1.268   2.814  20.995  0.00  0.00    +0.000 A 
ATOM     22  N   UNL     1       0.793   2.267  19.857  0.00  0.00    +0.000 NA
ATOM     23  C   UNL     1       0.943   3.016  18.763  0.00  0.00    +0.000 A 
ATOM     24  N   UNL     1       1.541   4.221  18.702  0.00  0.00    +0.000 NA
ENDBRANCH  17  19
ENDBRANCH  15  17
ENDBRANCH   6  13
TORSDOF 4
ENDMDL
MODEL 3
REMARK VINA RESULT:      -6.9      3.106      7.407
REMARK  Name = 
REMARK  7 active torsions:
REMARK  status: ('A' for Active; 'I' for Inactive)
REMARK    1  A    between atoms: C_1  and  C_2
REMARK    2  A    between atoms: N_4  and  C_5
REMARK    3  A    between atoms: C_10  and  C_11
REMARK    4  A    between atoms: N_13  and  C_14
REMARK    5  A    between atoms: N_13  and  C_15
REMARK    6  A    between atoms: C_15  and  C_16
REMARK    7  A    between atoms: C_15  and  C_17
REMARK                            x       y       z     vdW  Elec       q    Type
REMARK                         _______ _______ _______ _____ _____    ______ ____
ROOT
ATOM      1  C   UNL     1       6.163   4.164  14.655  0.00  0.00    +0.000 A 
ATOM      2  C   UNL     1       7.266   5.000  14.499  0.00  0.00    +0.000 A 
ATOM      3  C   UNL     1       7.703   5.795  15.559  0.00  0.00    +0.000 A 
ATOM      4  C   UNL     1       7.007   5.810  16.774  0.00  0.00    +0.000 A 
ATOM      5 CL   UNL     1       7.684   6.786  18.029  0.00  0.00    +0.000 Cl
ATOM      6  C   UNL     1       5.832   5.055  16.918  0.00  0.00    +0.000 A 
ATOM      7  C   UNL     1       5.449   4.202  15.863  0.00  0.00    +0.000 A 
ENDROOT
BRANCH   1  11
ATOM      8  C   UNL     1       5.551   2.136  11.533  0.00  0.00    +0.000 C 
ATOM      9  C   UNL     1       6.168   3.249  12.339  0.00  0.00    +0.000 C 
ATOM     10  O   UNL     1       6.972   4.018  11.826  0.00  0.00    +0.000 OA
ATOM     11  N   UNL     1       5.737   3.260  13.657  0.00  0.00    +0.000 N 
ATOM     12  H   UNL     1       5.184   2.468  13.962  0.00  0.00    +0.000 HD
ENDBRANCH   1  11
BRANCH   6  13
ATOM     13  C   UNL     1       5.064   5.022  18.202  0.00  0.00    +0.000 C 
ATOM     14  O   UNL     1       5.352   4.134  19.004  0.00  0.00    +0.000 OA
ATOM     15  N   UNL     1       4.010   5.920  18.441  0.00  0.00    +0.000 N 
ATOM     16  C   UNL     1       3.662   7.066  17.607  0.00  0.00    +0.000 C 
BRANCH  15  17
ATOM     17  C   UNL     1       3.145   5.744  19.636  0.00  0.00    +0.000 C 
ATOM     18  C   UNL     1       2.267   6.972  19.912  0.00  0.00    +0.000 C 
BRANCH  17  19
ATOM     19  C   UNL     1       2.394   4.417  19.744  0.00  0.00    +0.000 A 
ATOM     20  C   UNL     1       1.688   3.880  18.683  0.00  0.00    +0.000 A 
ATOM     21  C   UNL     1       0.883   2.795  18.954  0.00  0.00    +0.000 A 
ATOM     22  N   UNL     1       0.765   2.237  20.176  0.00  0.00    +0.000 NA
ATOM     23  C   UNL     1       1.507   2.801  21.130  0.00  0.00    +0.000 A 
ATOM     24  N   UNL     1       2.313   3.869  20.981  0.00  0.00    +0.000 NA
ENDBRANCH  17  19
ENDBRANCH  15  17
ENDBRANCH   6  13
TORSDOF 4
ENDMDL
MODEL 4
REMARK VINA RESULT:      -6.8      1.623      2.826
REMARK  Name = 
REMARK  7 active torsions:
REMARK  status: ('A' for Active; 'I' for Inactive)
REMARK    1  A    between atoms: C_1  and  C_2
REMARK    2  A    between atoms: N_4  and  C_5
REMARK    3  A    between atoms: C_10  and  C_11
REMARK    4  A    between atoms: N_13  and  C_14
REMARK    5  A    between atoms: N_13  and  C_15
REMARK    6  A    between atoms: C_15  and  C_16
REMARK    7  A    between atoms: C_15  and  C_17
REMARK                            x       y       z     vdW  Elec       q    Type
REMARK                         _______ _______ _______ _____ _____    ______ ____
ROOT
ATOM      1  C   UNL     1       1.912   5.644  20.414  0.00  0.00    +0.000 A 
ATOM      2  C   UNL     1       0.999   4.593  20.374  0.00  0.00    +0.000 A 
ATOM      3  C   UNL     1       1.277   3.446  19.630  0.00  0.00    +0.000 A 
ATOM      4  C   UNL     1       2.448   3.357  18.867  0.00  0.00    +0.000 A 
ATOM      5 CL   UNL     1       2.708   1.862  18.041  0.00  0.00    +0.000 Cl
ATOM      6  C   UNL     1       3.332   4.446  18.809  0.00  0.00    +0.000 A 
ATOM      7  C   UNL     1       3.071   5.566  19.626  0.00  0.00    +0.000 A 
ENDROOT
BRANCH   1  11
ATOM      8  C   UNL     1       1.369   9.068  21.901  0.00  0.00    +0.000 C 
ATOM      9  C   UNL     1       1.564   8.082  20.780  0.00  0.00    +0.000 C 
ATOM     10  O   UNL     1       1.541   8.454  19.612  0.00  0.00    +0.000 OA
ATOM     11  N   UNL     1       1.737   6.782  21.231  0.00  0.00    +0.000 N 
ATOM     12  H   UNL     1       1.583   6.619  22.218  0.00  0.00    +0.000 HD
ENDBRANCH   1  11
BRANCH   6  13
ATOM     13  C   UNL     1       4.605   4.393  18.025  0.00  0.00    +0.000 C 
ATOM     14  O   UNL     1       5.262   3.354  18.093  0.00  0.00    +0.000 OA
ATOM     15  N   UNL     1       5.063   5.511  17.308  0.00  0.00    +0.000 N 
ATOM     16  C   UNL     1       4.314   6.743  17.082  0.00  0.00    +0.000 C 
BRANCH  15  17
ATOM     17  C   UNL     1       6.418   5.493  16.696  0.00  0.00    +0.000 C 
ATOM     18  C   UNL     1       7.453   4.791  17.584  0.00  0.00    +0.000 C 
BRANCH  17  19
ATOM     19  C   UNL     1       6.496   5.087  15.225  0.00  0.00    +0.000 A 
ATOM     20  C   UNL     1       5.606   4.194  14.657  0.00  0.00    +0.000 A 
ATOM     21  C   UNL     1       5.897   3.744  13.388  0.00  0.00    +0.000 A 
ATOM     22  N   UNL     1       6.979   4.136  12.684  0.00  0.00    +0.000 NA
ATOM     23  C   UNL     1       7.763   5.022  13.299  0.00  0.00    +0.000 A 
ATOM     24  N   UNL     1       7.584   5.516  14.539  0.00  0.00    +0.000 NA
ENDBRANCH  17  19
ENDBRANCH  15  17
ENDBRANCH   6  13
TORSDOF 4
ENDMDL
MODEL 5
REMARK VINA RESULT:      -6.6      1.927      3.047
REMARK  Name = 
REMARK  7 active torsions:
REMARK  status: ('A' for Active; 'I' for Inactive)
REMARK    1  A    between atoms: C_1  and  C_2
REMARK    2  A    between atoms: N_4  and  C_5
REMARK    3  A    between atoms: C_10  and  C_11
REMARK    4  A    between atoms: N_13  and  C_14
REMARK    5  A    between atoms: N_13  and  C_15
REMARK    6  A    between atoms: C_15  and  C_16
REMARK    7  A    between atoms: C_15  and  C_17
REMARK                            x       y       z     vdW  Elec       q    Type
REMARK                         _______ _______ _______ _____ _____    ______ ____
ROOT
ATOM      1  C   UNL     1       1.724   6.242  20.358  0.00  0.00    +0.000 A 
ATOM      2  C   UNL     1       0.946   5.114  20.110  0.00  0.00    +0.000 A 
ATOM      3  C   UNL     1       1.347   4.178  19.156  0.00  0.00    +0.000 A 
ATOM      4  C   UNL     1       2.505   4.385  18.395  0.00  0.00    +0.000 A 
ATOM      5 CL   UNL     1       2.930   3.124  17.293  0.00  0.00    +0.000 Cl
ATOM      6  C   UNL     1       3.248   5.566  18.556  0.00  0.00    +0.000 A 
ATOM      7  C   UNL     1       2.868   6.464  19.576  0.00  0.00    +0.000 A 
ENDROOT
BRANCH   1  11
ATOM      8  C   UNL     1       0.773   9.208  22.486  0.00  0.00    +0.000 C 
ATOM      9  C   UNL     1       1.054   8.490  21.193  0.00  0.00    +0.000 C 
ATOM     10  O   UNL     1       0.930   9.068  20.119  0.00  0.00    +0.000 OA
ATOM     11  N   UNL     1       1.427   7.168  21.382  0.00  0.00    +0.000 N 
ATOM     12  H   UNL     1       1.341   6.801  22.322  0.00  0.00    +0.000 HD
ENDBRANCH   1  11
BRANCH   6  13
ATOM     13  C   UNL     1       4.502   5.825  17.782  0.00  0.00    +0.000 C 
ATOM     14  O   UNL     1       4.444   6.668  16.887  0.00  0.00    +0.000 OA
ATOM     15  N   UNL     1       5.669   5.081  18.022  0.00  0.00    +0.000 N 
ATOM     16  C   UNL     1       5.870   4.140  19.120  0.00  0.00    +0.000 C 
BRANCH  15  17
ATOM     17  C   UNL     1       6.838   5.226  17.115  0.00  0.00    +0.000 C 
ATOM     18  C   UNL     1       8.115   4.609  17.700  0.00  0.00    +0.000 C 
BRANCH  17  19
ATOM     19  C   UNL     1       6.607   4.878  15.645  0.00  0.00    +0.000 A 
ATOM     20  C   UNL     1       5.683   3.929  15.246  0.00  0.00    +0.000 A 
ATOM     21  C   UNL     1       5.709   3.550  13.923  0.00  0.00    +0.000 A 
ATOM     22  N   UNL     1       6.566   4.060  13.014  0.00  0.00    +0.000 NA
ATOM     23  C   UNL     1       7.398   4.992  13.481  0.00  0.00    +0.000 A 
ATOM     24  N   UNL     1       7.470   5.425  14.754  0.00  0.00    +0.000 NA
ENDBRANCH  17  19
ENDBRANCH  15  17
ENDBRANCH   6  13
TORSDOF 4
ENDMDL
MODEL 6
REMARK VINA RESULT:      -6.4      2.718      3.879
REMARK  Name = 
REMARK  7 active torsions:
REMARK  status: ('A' for Active; 'I' for Inactive)
REMARK    1  A    between atoms: C_1  and  C_2
REMARK    2  A    between atoms: N_4  and  C_5
REMARK    3  A    between atoms: C_10  and  C_11
REMARK    4  A    between atoms: N_13  and  C_14
REMARK    5  A    between atoms: N_13  and  C_15
REMARK    6  A    between atoms: C_15  and  C_16
REMARK    7  A    between atoms: C_15  and  C_17
REMARK                            x       y       z     vdW  Elec       q    Type
REMARK                         _______ _______ _______ _____ _____    ______ ____
ROOT
ATOM      1  C   UNL     1       1.064   8.782  20.048  0.00  0.00    +0.000 A 
ATOM      2  C   UNL     1       1.151   9.626  18.944  0.00  0.00    +0.000 A 
ATOM      3  C   UNL     1       1.945   9.276  17.851  0.00  0.00    +0.000 A 
ATOM      4  C   UNL     1       2.709   8.102  17.871  0.00  0.00    +0.000 A 
ATOM      5 CL   UNL     1       3.599   7.747  16.434  0.00  0.00    +0.000 Cl
ATOM      6  C   UNL     1       2.717   7.290  19.017  0.00  0.00    +0.000 A 
ATOM      7  C   UNL     1       1.852   7.621  20.080  0.00  0.00    +0.000 A 
ENDROOT
BRANCH   1  11
ATOM      8  C   UNL     1      -0.577   9.626  23.339  0.00  0.00    +0.000 C 
ATOM      9  C   UNL     1       0.589   9.405  22.412  0.00  0.00    +0.000 C 
ATOM     10  O   UNL     1       1.738   9.575  22.804  0.00  0.00    +0.000 OA
ATOM     11  N   UNL     1       0.197   9.029  21.136  0.00  0.00    +0.000 N 
ATOM     12  H   UNL     1      -0.793   9.076  20.932  0.00  0.00    +0.000 HD
ENDBRANCH   1  11
BRANCH   6  13
ATOM     13  C   UNL     1       3.500   6.016  19.080  0.00  0.00    +0.000 C 
ATOM     14  O   UNL     1       4.541   6.031  19.735  0.00  0.00    +0.000 OA
ATOM     15  N   UNL     1       3.097   4.880  18.357  0.00  0.00    +0.000 N 
ATOM     16  C   UNL     1       1.835   4.729  17.640  0.00  0.00    +0.000 C 
BRANCH  15  17
ATOM     17  C   UNL     1       3.990   3.694  18.286  0.00  0.00    +0.000 C 
ATOM     18  C   UNL     1       3.221   2.395  18.015  0.00  0.00    +0.000 C 
BRANCH  17  19
ATOM     19  C   UNL     1       5.256   3.844  17.441  0.00  0.00    +0.000 A 
ATOM     20  C   UNL     1       6.458   4.265  17.980  0.00  0.00    +0.000 A 
ATOM     21  C   UNL     1       7.469   4.563  17.094  0.00  0.00    +0.000 A 
ATOM     22  N   UNL     1       7.349   4.451  15.755  0.00  0.00    +0.000 NA
ATOM     23  C   UNL     1       6.166   4.007  15.328  0.00  0.00    +0.000 A 
ATOM     24  N   UNL     1       5.106   3.703  16.101  0.00  0.00    +0.000 NA
ENDBRANCH  17  19
ENDBRANCH  15  17
ENDBRANCH   6  13
TORSDOF 4
ENDMDL
MODEL 7
REMARK VINA RESULT:      -6.2      0.689      1.050
REMARK  Name = 
REMARK  7 active torsions:
REMARK  status: ('A' for Active; 'I' for Inactive)
REMARK    1  A    between atoms: C_1  and  C_2
REMARK    2  A    between atoms: N_4  and  C_5
REMARK    3  A    between atoms: C_10  and  C_11
REMARK    4  A    between atoms: N_13  and  C_14
REMARK    5  A    between atoms: N_13  and  C_15
REMARK    6  A    between atoms: C_15  and  C_16
REMARK    7  A    between atoms: C_15  and  C_17
REMARK                            x       y       z     vdW  Elec       q    Type
REMARK                         _______ _______ _______ _____ _____    ______ ____
ROOT
ATOM      1  C   UNL     1       1.535   5.062  20.392  0.00  0.00    +0.000 A 
ATOM      2  C   UNL     1       0.833   3.877  20.188  0.00  0.00    +0.000 A 
ATOM      3  C   UNL     1       1.466   2.771  19.619  0.00  0.00    +0.000 A 
ATOM      4  C   UNL     1       2.798   2.853  19.193  0.00  0.00    +0.000 A 
ATOM      5 CL   UNL     1       3.488   1.399  18.564  0.00  0.00    +0.000 Cl
ATOM      6  C   UNL     1       3.493   4.069  19.292  0.00  0.00    +0.000 A 
ATOM      7  C   UNL     1       2.861   5.152  19.937  0.00  0.00    +0.000 A 
ENDROOT
BRANCH   1  11
ATOM      8  C   UNL     1       0.458   8.461  21.624  0.00  0.00    +0.000 C 
ATOM      9  C   UNL     1       1.227   7.507  20.749  0.00  0.00    +0.000 C 
ATOM     10  O   UNL     1       1.962   7.928  19.863  0.00  0.00    +0.000 OA
ATOM     11  N   UNL     1       0.982   6.178  21.057  0.00  0.00    +0.000 N 
ATOM     12  H   UNL     1       0.237   5.994  21.718  0.00  0.00    +0.000 HD
ENDBRANCH   1  11
BRANCH   6  13
ATOM     13  C   UNL     1       4.922   4.202  18.869  0.00  0.00    +0.000 C 
ATOM     14  O   UNL     1       5.781   4.025  19.733  0.00  0.00    +0.000 OA
ATOM     15  N   UNL     1       5.258   4.589  17.561  0.00  0.00    +0.000 N 
ATOM     16  C   UNL     1       4.327   4.721  16.445  0.00  0.00    +0.000 C 
BRANCH  15  17
ATOM     17  C   UNL     1       6.672   4.897  17.221  0.00  0.00    +0.000 C 
ATOM     18  C   UNL     1       6.999   4.609  15.750  0.00  0.00    +0.000 C 
BRANCH  17  19
ATOM     19  C   UNL     1       7.216   6.236  17.718  0.00  0.00    +0.000 A 
ATOM     20  C   UNL     1       7.104   7.400  16.978  0.00  0.00    +0.000 A 
ATOM     21  C   UNL     1       7.809   8.495  17.425  0.00  0.00    +0.000 A 
ATOM     22  N   UNL     1       8.576   8.489  18.535  0.00  0.00    +0.000 NA
ATOM     23  C   UNL     1       8.598   7.334  19.202  0.00  0.00    +0.000 A 
ATOM     24  N   UNL     1       7.962   6.201  18.849  0.00  0.00    +0.000 NA
ENDBRANCH  17  19
ENDBRANCH  15  17
ENDBRANCH   6  13
TORSDOF 4
ENDMDL
MODEL 8
REMARK VINA RESULT:      -6.2      2.675      3.951
REMARK  Name = 
REMARK  7 active torsions:
REMARK  status: ('A' for Active; 'I' for Inactive)
REMARK    1  A    between atoms: C_1  and  C_2
REMARK    2  A    between atoms: N_4  and  C_5
REMARK    3  A    between atoms: C_10  and  C_11
REMARK    4  A    between atoms: N_13  and  C_14
REMARK    5  A    between atoms: N_13  and  C_15
REMARK    6  A    between atoms: C_15  and  C_16
REMARK    7  A    between atoms: C_15  and  C_17
REMARK                            x       y       z     vdW  Elec       q    Type
REMARK                         _______ _______ _______ _____ _____    ______ ____
ROOT
ATOM      1  C   UNL     1       0.929   8.744  20.297  0.00  0.00    +0.000 A 
ATOM      2  C   UNL     1       0.887   9.591  19.191  0.00  0.00    +0.000 A 
ATOM      3  C   UNL     1       1.623   9.289  18.045  0.00  0.00    +0.000 A 
ATOM      4  C   UNL     1       2.457   8.164  18.007  0.00  0.00    +0.000 A 
ATOM      5 CL   UNL     1       3.265   7.863  16.510  0.00  0.00    +0.000 Cl
ATOM      6  C   UNL     1       2.595   7.355  19.147  0.00  0.00    +0.000 A 
ATOM      7  C   UNL     1       1.788   7.634  20.269  0.00  0.00    +0.000 A 
ENDROOT
BRANCH   1  11
ATOM      8  C   UNL     1      -0.915  10.002  23.338  0.00  0.00    +0.000 C 
ATOM      9  C   UNL     1       0.060  10.102  22.194  0.00  0.00    +0.000 C 
ATOM     10  O   UNL     1       0.683  11.138  21.995  0.00  0.00    +0.000 OA
ATOM     11  N   UNL     1       0.128   8.938  21.443  0.00  0.00    +0.000 N 
ATOM     12  H   UNL     1      -0.558   8.223  21.650  0.00  0.00    +0.000 HD
ENDBRANCH   1  11
BRANCH   6  13
ATOM     13  C   UNL     1       3.457   6.132  19.151  0.00  0.00    +0.000 C 
ATOM     14  O   UNL     1       4.530   6.206  19.748  0.00  0.00    +0.000 OA
ATOM     15  N   UNL     1       3.086   4.980  18.436  0.00  0.00    +0.000 N 
ATOM     16  C   UNL     1       1.798   4.758  17.787  0.00  0.00    +0.000 C 
BRANCH  15  17
ATOM     17  C   UNL     1       4.046   3.854  18.301  0.00  0.00    +0.000 C 
ATOM     18  C   UNL     1       3.360   2.545  17.887  0.00  0.00    +0.000 C 
BRANCH  17  19
ATOM     19  C   UNL     1       5.332   4.142  17.527  0.00  0.00    +0.000 A 
ATOM     20  C   UNL     1       5.411   4.012  16.152  0.00  0.00    +0.000 A 
ATOM     21  C   UNL     1       6.665   4.094  15.588  0.00  0.00    +0.000 A 
ATOM     22  N   UNL     1       7.793   4.304  16.299  0.00  0.00    +0.000 NA
ATOM     23  C   UNL     1       7.616   4.450  17.613  0.00  0.00    +0.000 A 
ATOM     24  N   UNL     1       6.443   4.373  18.269  0.00  0.00    +0.000 NA
ENDBRANCH  17  19
ENDBRANCH  15  17
ENDBRANCH   6  13
TORSDOF 4
ENDMDL
MODEL 9
REMARK VINA RESULT:      -6.2      2.900      5.061
REMARK  Name = 
REMARK  7 active torsions:
REMARK  status: ('A' for Active; 'I' for Inactive)
REMARK    1  A    between atoms: C_1  and  C_2
REMARK    2  A    between atoms: N_4  and  C_5
REMARK    3  A    between atoms: C_10  and  C_11
REMARK    4  A    between atoms: N_13  and  C_14
REMARK    5  A    between atoms: N_13  and  C_15
REMARK    6  A    between atoms: C_15  and  C_16
REMARK    7  A    between atoms: C_15  and  C_17
REMARK                            x       y       z     vdW  Elec       q    Type
REMARK                         _______ _______ _______ _____ _____    ______ ____
ROOT
ATOM      1  C   UNL     1       4.261   2.026  20.437  0.00  0.00    +0.000 A 
ATOM      2  C   UNL     1       3.271   2.300  21.378  0.00  0.00    +0.000 A 
ATOM      3  C   UNL     1       2.552   3.494  21.318  0.00  0.00    +0.000 A 
ATOM      4  C   UNL     1       2.853   4.459  20.348  0.00  0.00    +0.000 A 
ATOM      5 CL   UNL     1       1.852   5.867  20.337  0.00  0.00    +0.000 Cl
ATOM      6  C   UNL     1       3.917   4.249  19.456  0.00  0.00    +0.000 A 
ATOM      7  C   UNL     1       4.581   3.006  19.485  0.00  0.00    +0.000 A 
ENDROOT
BRANCH   1  11
ATOM      8  C   UNL     1       6.385  -1.041  20.995  0.00  0.00    +0.000 C 
ATOM      9  C   UNL     1       5.850   0.327  21.325  0.00  0.00    +0.000 C 
ATOM     10  O   UNL     1       6.203   0.904  22.347  0.00  0.00    +0.000 OA
ATOM     11  N   UNL     1       4.947   0.793  20.382  0.00  0.00    +0.000 N 
ATOM     12  H   UNL     1       4.650   0.134  19.672  0.00  0.00    +0.000 HD
ENDBRANCH   1  11
BRANCH   6  13
ATOM     13  C   UNL     1       4.265   5.241  18.390  0.00  0.00    +0.000 C 
ATOM     14  O   UNL     1       3.344   5.654  17.687  0.00  0.00    +0.000 OA
ATOM     15  N   UNL     1       5.599   5.619  18.159  0.00  0.00    +0.000 N 
ATOM     16  C   UNL     1       6.741   5.269  18.997  0.00  0.00    +0.000 C 
BRANCH  15  17
ATOM     17  C   UNL     1       5.935   6.455  16.977  0.00  0.00    +0.000 C 
ATOM     18  C   UNL     1       7.037   7.480  17.278  0.00  0.00    +0.000 C 
BRANCH  17  19
ATOM     19  C   UNL     1       6.131   5.716  15.654  0.00  0.00    +0.000 A 
ATOM     20  C   UNL     1       5.133   4.949  15.081  0.00  0.00    +0.000 A 
ATOM     21  C   UNL     1       5.486   4.166  14.004  0.00  0.00    +0.000 A 
ATOM     22  N   UNL     1       6.732   4.124  13.486  0.00  0.00    +0.000 NA
ATOM     23  C   UNL     1       7.620   4.920  14.082  0.00  0.00    +0.000 A 
ATOM     24  N   UNL     1       7.389   5.712  15.147  0.00  0.00    +0.000 NA
ENDBRANCH  17  19
ENDBRANCH  15  17
ENDBRANCH   6  13
TORSDOF 4
ENDMDL
