MODEL 1
REMARK VINA RESULT:      -6.4      0.000      0.000
REMARK  Name = 
REMARK  10 active torsions:
REMARK  status: ('A' for Active; 'I' for Inactive)
REMARK    1  A    between atoms: C_1  and  O_2
REMARK    2  A    between atoms: O_2  and  C_3
REMARK    3  A    between atoms: C_5  and  C_6
REMARK    4  A    between atoms: C_7  and  O_8
REMARK    5  A    between atoms: O_8  and  C_9
REMARK    6  A    between atoms: C_13  and  O_14
REMARK    7  A    between atoms: O_14  and  C_15
REMARK    8  A    between atoms: C_23  and  C_25
REMARK    9  A    between atoms: C_25  and  C_26
REMARK   10  A    between atoms: C_25  and  C_27
REMARK                            x       y       z     vdW  Elec       q    Type
REMARK                         _______ _______ _______ _____ _____    ______ ____
ROOT
ATOM      1  C   UNL     1      -0.882  11.631  22.521  0.00  0.00    +0.000 A 
ATOM      2  C   UNL     1      -2.028  12.270  23.030  0.00  0.00    +0.000 A 
ATOM      3  C   UNL     1      -2.733  13.267  22.322  0.00  0.00    +0.000 A 
ATOM      4  C   UNL     1      -2.254  13.519  21.019  0.00  0.00    +0.000 A 
ATOM      5  C   UNL     1      -1.207  12.780  20.420  0.00  0.00    +0.000 A 
ATOM      6  C   UNL     1      -0.493  11.869  21.206  0.00  0.00    +0.000 A 
ATOM      7  O   UNL     1       0.597  11.229  20.676  0.00  0.00    +0.000 OA
ATOM      8  C   UNL     1       0.192  10.197  19.769  0.00  0.00    +0.000 C 
ATOM      9  C   UNL     1       0.101  10.761  18.354  0.00  0.00    +0.000 C 
ATOM     10  N   UNL     1      -1.038  11.675  18.204  0.00  0.00    +0.000 N 
ATOM     11  C   UNL     1      -2.301  11.294  17.756  0.00  0.00    +0.000 C 
ATOM     12  O   UNL     1      -3.262  12.068  17.782  0.00  0.00    +0.000 OA
ATOM     13  C   UNL     1      -0.920  12.948  18.940  0.00  0.00    +0.000 C 
ENDROOT
BRANCH   3  14
ATOM     14  C   UNL     1      -3.949  13.977  22.906  0.00  0.00    +0.000 A 
ATOM     15  C   UNL     1      -3.848  15.177  23.680  0.00  0.00    +0.000 A 
ATOM     16  C   UNL     1      -4.990  15.817  24.200  0.00  0.00    +0.000 A 
ATOM     17  C   UNL     1      -6.256  15.294  24.005  0.00  0.00    +0.000 A 
ATOM     18  C   UNL     1      -6.398  14.124  23.277  0.00  0.00    +0.000 A 
ATOM     19  C   UNL     1      -5.276  13.460  22.745  0.00  0.00    +0.000 A 
BRANCH  15  20
ATOM     20  O   UNL     1      -2.610  15.754  23.868  0.00  0.00    +0.000 OA
ATOM     21  C   UNL     1      -2.026  15.573  25.159  0.00  0.00    +0.000 C 
ENDBRANCH  15  20
BRANCH  19  22
ATOM     22  O   UNL     1      -5.438  12.300  22.024  0.00  0.00    +0.000 OA
ATOM     23  C   UNL     1      -6.505  12.228  21.089  0.00  0.00    +0.000 C 
ENDBRANCH  19  22
ENDBRANCH   3  14
BRANCH  11  24
ATOM     24  C   UNL     1      -2.469   9.890  17.148  0.00  0.00    +0.000 C 
ATOM     25  C   UNL     1      -3.691   9.173  17.727  0.00  0.00    +0.000 C 
ATOM     26  C   UNL     1      -2.599   9.985  15.629  0.00  0.00    +0.000 C 
ENDBRANCH  11  24
BRANCH   1  28
ATOM     27  C   UNL     1      -0.585   9.351  23.128  0.00  0.00    +0.000 C 
ATOM     28  O   UNL     1      -0.310  10.724  23.384  0.00  0.00    +0.000 OA
ENDBRANCH   1  28
TORSDOF 5
ENDMDL
MODEL 2
REMARK VINA RESULT:      -6.3      0.108      2.439
REMARK  Name = 
REMARK  10 active torsions:
REMARK  status: ('A' for Active; 'I' for Inactive)
REMARK    1  A    between atoms: C_1  and  O_2
REMARK    2  A    between atoms: O_2  and  C_3
REMARK    3  A    between atoms: C_5  and  C_6
REMARK    4  A    between atoms: C_7  and  O_8
REMARK    5  A    between atoms: O_8  and  C_9
REMARK    6  A    between atoms: C_13  and  O_14
REMARK    7  A    between atoms: O_14  and  C_15
REMARK    8  A    between atoms: C_23  and  C_25
REMARK    9  A    between atoms: C_25  and  C_26
REMARK   10  A    between atoms: C_25  and  C_27
REMARK                            x       y       z     vdW  Elec       q    Type
REMARK                         _______ _______ _______ _____ _____    ______ ____
ROOT
ATOM      1  C   UNL     1      -0.826  11.579  22.531  0.00  0.00    +0.000 A 
ATOM      2  C   UNL     1      -1.959  12.234  23.050  0.00  0.00    +0.000 A 
ATOM      3  C   UNL     1      -2.653  13.244  22.350  0.00  0.00    +0.000 A 
ATOM      4  C   UNL     1      -2.176  13.496  21.046  0.00  0.00    +0.000 A 
ATOM      5  C   UNL     1      -1.144  12.744  20.437  0.00  0.00    +0.000 A 
ATOM      6  C   UNL     1      -0.440  11.818  21.215  0.00  0.00    +0.000 A 
ATOM      7  O   UNL     1       0.637  11.164  20.677  0.00  0.00    +0.000 OA
ATOM      8  C   UNL     1       0.212  10.142  19.767  0.00  0.00    +0.000 C 
ATOM      9  C   UNL     1       0.122  10.715  18.355  0.00  0.00    +0.000 C 
ATOM     10  N   UNL     1      -1.003  11.646  18.215  0.00  0.00    +0.000 N 
ATOM     11  C   UNL     1      -2.275  11.287  17.772  0.00  0.00    +0.000 C 
ATOM     12  O   UNL     1      -3.224  12.076  17.807  0.00  0.00    +0.000 OA
ATOM     13  C   UNL     1      -0.862  12.914  18.957  0.00  0.00    +0.000 C 
ENDROOT
BRANCH   3  14
ATOM     14  C   UNL     1      -3.855  13.971  22.943  0.00  0.00    +0.000 A 
ATOM     15  C   UNL     1      -5.197  13.497  22.793  0.00  0.00    +0.000 A 
ATOM     16  C   UNL     1      -6.289  14.185  23.360  0.00  0.00    +0.000 A 
ATOM     17  C   UNL     1      -6.106  15.363  24.061  0.00  0.00    +0.000 A 
ATOM     18  C   UNL     1      -4.826  15.867  24.214  0.00  0.00    +0.000 A 
ATOM     19  C   UNL     1      -3.714  15.204  23.659  0.00  0.00    +0.000 A 
BRANCH  15  20
ATOM     20  O   UNL     1      -5.422  12.307  22.134  0.00  0.00    +0.000 OA
ATOM     21  C   UNL     1      -6.523  12.296  21.223  0.00  0.00    +0.000 C 
ENDBRANCH  15  20
BRANCH  19  22
ATOM     22  O   UNL     1      -2.450  15.719  23.824  0.00  0.00    +0.000 OA
ATOM     23  C   UNL     1      -1.921  15.806  25.139  0.00  0.00    +0.000 C 
ENDBRANCH  19  22
ENDBRANCH   3  14
BRANCH  11  24
ATOM     24  C   UNL     1      -2.467   9.889  17.159  0.00  0.00    +0.000 C 
ATOM     25  C   UNL     1      -3.697   9.188  17.741  0.00  0.00    +0.000 C 
ATOM     26  C   UNL     1      -2.605   9.994  15.641  0.00  0.00    +0.000 C 
ENDBRANCH  11  24
BRANCH   1  28
ATOM     27  C   UNL     1      -0.636   9.300  23.184  0.00  0.00    +0.000 C 
ATOM     28  O   UNL     1      -0.264  10.659  23.387  0.00  0.00    +0.000 OA
ENDBRANCH   1  28
TORSDOF 5
ENDMDL
MODEL 3
REMARK VINA RESULT:      -5.9      2.179      6.914
REMARK  Name = 
REMARK  10 active torsions:
REMARK  status: ('A' for Active; 'I' for Inactive)
REMARK    1  A    between atoms: C_1  and  O_2
REMARK    2  A    between atoms: O_2  and  C_3
REMARK    3  A    between atoms: C_5  and  C_6
REMARK    4  A    between atoms: C_7  and  O_8
REMARK    5  A    between atoms: O_8  and  C_9
REMARK    6  A    between atoms: C_13  and  O_14
REMARK    7  A    between atoms: O_14  and  C_15
REMARK    8  A    between atoms: C_23  and  C_25
REMARK    9  A    between atoms: C_25  and  C_26
REMARK   10  A    between atoms: C_25  and  C_27
REMARK                            x       y       z     vdW  Elec       q    Type
REMARK                         _______ _______ _______ _____ _____    ______ ____
ROOT
ATOM      1  C   UNL     1      -1.401  14.795  21.018  0.00  0.00    +0.000 A 
ATOM      2  C   UNL     1      -1.568  13.897  19.947  0.00  0.00    +0.000 A 
ATOM      3  C   UNL     1      -2.066  12.587  20.110  0.00  0.00    +0.000 A 
ATOM      4  C   UNL     1      -2.468  12.265  21.424  0.00  0.00    +0.000 A 
ATOM      5  C   UNL     1      -2.464  13.197  22.488  0.00  0.00    +0.000 A 
ATOM      6  C   UNL     1      -1.876  14.450  22.281  0.00  0.00    +0.000 A 
ATOM      7  O   UNL     1      -1.759  15.323  23.331  0.00  0.00    +0.000 OA
ATOM      8  C   UNL     1      -3.023  15.919  23.643  0.00  0.00    +0.000 C 
ATOM      9  C   UNL     1      -3.743  15.080  24.696  0.00  0.00    +0.000 C 
ATOM     10  N   UNL     1      -4.208  13.801  24.149  0.00  0.00    +0.000 N 
ATOM     11  C   UNL     1      -5.477  13.585  23.617  0.00  0.00    +0.000 C 
ATOM     12  O   UNL     1      -5.772  12.533  23.041  0.00  0.00    +0.000 OA
ATOM     13  C   UNL     1      -3.140  12.845  23.800  0.00  0.00    +0.000 C 
ENDROOT
BRANCH   3  14
ATOM     14  C   UNL     1      -2.203  11.614  18.944  0.00  0.00    +0.000 A 
ATOM     15  C   UNL     1      -3.439  11.402  18.254  0.00  0.00    +0.000 A 
ATOM     16  C   UNL     1      -3.535  10.502  17.174  0.00  0.00    +0.000 A 
ATOM     17  C   UNL     1      -2.440   9.767  16.755  0.00  0.00    +0.000 A 
ATOM     18  C   UNL     1      -1.230   9.927  17.408  0.00  0.00    +0.000 A 
ATOM     19  C   UNL     1      -1.101  10.817  18.491  0.00  0.00    +0.000 A 
BRANCH  15  20
ATOM     20  O   UNL     1      -4.546  12.141  18.613  0.00  0.00    +0.000 OA
ATOM     21  C   UNL     1      -5.812  11.511  18.406  0.00  0.00    +0.000 C 
ENDBRANCH  15  20
BRANCH  19  22
ATOM     22  O   UNL     1       0.110  10.965  19.124  0.00  0.00    +0.000 OA
ATOM     23  C   UNL     1       1.042   9.894  19.061  0.00  0.00    +0.000 C 
ENDBRANCH  19  22
ENDBRANCH   3  14
BRANCH  11  24
ATOM     24  C   UNL     1      -6.551  14.668  23.825  0.00  0.00    +0.000 C 
ATOM     25  C   UNL     1      -6.768  15.490  22.552  0.00  0.00    +0.000 C 
ATOM     26  C   UNL     1      -7.869  14.028  24.256  0.00  0.00    +0.000 C 
ENDBRANCH  11  24
BRANCH   1  28
ATOM     27  C   UNL     1      -0.469  16.145  19.297  0.00  0.00    +0.000 C 
ATOM     28  O   UNL     1      -0.855  16.007  20.661  0.00  0.00    +0.000 OA
ENDBRANCH   1  28
TORSDOF 5
ENDMDL
MODEL 4
REMARK VINA RESULT:      -5.9      2.131      6.680
REMARK  Name = 
REMARK  10 active torsions:
REMARK  status: ('A' for Active; 'I' for Inactive)
REMARK    1  A    between atoms: C_1  and  O_2
REMARK    2  A    between atoms: O_2  and  C_3
REMARK    3  A    between atoms: C_5  and  C_6
REMARK    4  A    between atoms: C_7  and  O_8
REMARK    5  A    between atoms: O_8  and  C_9
REMARK    6  A    between atoms: C_13  and  O_14
REMARK    7  A    between atoms: O_14  and  C_15
REMARK    8  A    between atoms: C_23  and  C_25
REMARK    9  A    between atoms: C_25  and  C_26
REMARK   10  A    between atoms: C_25  and  C_27
REMARK                            x       y       z     vdW  Elec       q    Type
REMARK                         _______ _______ _______ _____ _____    ______ ____
ROOT
ATOM      1  C   UNL     1      -1.475  14.979  20.890  0.00  0.00    +0.000 A 
ATOM      2  C   UNL     1      -1.578  14.014  19.870  0.00  0.00    +0.000 A 
ATOM      3  C   UNL     1      -2.005  12.689  20.103  0.00  0.00    +0.000 A 
ATOM      4  C   UNL     1      -2.405  12.420  21.429  0.00  0.00    +0.000 A 
ATOM      5  C   UNL     1      -2.467  13.410  22.438  0.00  0.00    +0.000 A 
ATOM      6  C   UNL     1      -1.947  14.680  22.165  0.00  0.00    +0.000 A 
ATOM      7  O   UNL     1      -1.892  15.616  23.164  0.00  0.00    +0.000 OA
ATOM      8  C   UNL     1      -3.192  16.157  23.430  0.00  0.00    +0.000 C 
ATOM      9  C   UNL     1      -3.877  15.339  24.522  0.00  0.00    +0.000 C 
ATOM     10  N   UNL     1      -4.262  14.007  24.045  0.00  0.00    +0.000 N 
ATOM     11  C   UNL     1      -5.511  13.690  23.513  0.00  0.00    +0.000 C 
ATOM     12  O   UNL     1      -5.739  12.592  22.996  0.00  0.00    +0.000 OA
ATOM     13  C   UNL     1      -3.139  13.094  23.761  0.00  0.00    +0.000 C 
ENDROOT
BRANCH   3  14
ATOM     14  C   UNL     1      -2.072  11.646  18.993  0.00  0.00    +0.000 A 
ATOM     15  C   UNL     1      -0.925  10.918  18.544  0.00  0.00    +0.000 A 
ATOM     16  C   UNL     1      -1.019   9.953  17.521  0.00  0.00    +0.000 A 
ATOM     17  C   UNL     1      -2.222   9.692  16.891  0.00  0.00    +0.000 A 
ATOM     18  C   UNL     1      -3.354  10.387  17.282  0.00  0.00    +0.000 A 
ATOM     19  C   UNL     1      -3.294  11.358  18.300  0.00  0.00    +0.000 A 
BRANCH  15  20
ATOM     20  O   UNL     1       0.287  11.120  19.168  0.00  0.00    +0.000 OA
ATOM     21  C   UNL     1       0.723  10.073  20.039  0.00  0.00    +0.000 C 
ENDBRANCH  15  20
BRANCH  19  22
ATOM     22  O   UNL     1      -4.429  12.037  18.676  0.00  0.00    +0.000 OA
ATOM     23  C   UNL     1      -5.544  12.030  17.796  0.00  0.00    +0.000 C 
ENDBRANCH  19  22
ENDBRANCH   3  14
BRANCH  11  24
ATOM     24  C   UNL     1      -6.646  14.720  23.649  0.00  0.00    +0.000 C 
ATOM     25  C   UNL     1      -7.007  15.335  22.294  0.00  0.00    +0.000 C 
ATOM     26  C   UNL     1      -7.882  14.066  24.264  0.00  0.00    +0.000 C 
ENDBRANCH  11  24
BRANCH   1  28
ATOM     27  C   UNL     1      -0.190  16.185  19.293  0.00  0.00    +0.000 C 
ATOM     28  O   UNL     1      -0.994  16.198  20.469  0.00  0.00    +0.000 OA
ENDBRANCH   1  28
TORSDOF 5
ENDMDL
MODEL 5
REMARK VINA RESULT:      -5.7      2.960      5.305
REMARK  Name = 
REMARK  10 active torsions:
REMARK  status: ('A' for Active; 'I' for Inactive)
REMARK    1  A    between atoms: C_1  and  O_2
REMARK    2  A    between atoms: O_2  and  C_3
REMARK    3  A    between atoms: C_5  and  C_6
REMARK    4  A    between atoms: C_7  and  O_8
REMARK    5  A    between atoms: O_8  and  C_9
REMARK    6  A    between atoms: C_13  and  O_14
REMARK    7  A    between atoms: O_14  and  C_15
REMARK    8  A    between atoms: C_23  and  C_25
REMARK    9  A    between atoms: C_25  and  C_26
REMARK   10  A    between atoms: C_25  and  C_27
REMARK                            x       y       z     vdW  Elec       q    Type
REMARK                         _______ _______ _______ _____ _____    ______ ____
ROOT
ATOM      1  C   UNL     1      -0.396  12.308  21.683  0.00  0.00    +0.000 A 
ATOM      2  C   UNL     1      -1.460  11.849  20.884  0.00  0.00    +0.000 A 
ATOM      3  C   UNL     1      -2.365  12.714  20.233  0.00  0.00    +0.000 A 
ATOM      4  C   UNL     1      -2.076  14.088  20.374  0.00  0.00    +0.000 A 
ATOM      5  C   UNL     1      -0.924  14.576  21.034  0.00  0.00    +0.000 A 
ATOM      6  C   UNL     1      -0.117  13.672  21.732  0.00  0.00    +0.000 A 
ATOM      7  O   UNL     1       0.937  14.139  22.473  0.00  0.00    +0.000 OA
ATOM      8  C   UNL     1       2.026  14.525  21.626  0.00  0.00    +0.000 C 
ATOM      9  C   UNL     1       1.898  16.003  21.264  0.00  0.00    +0.000 C 
ATOM     10  N   UNL     1       0.780  16.244  20.346  0.00  0.00    +0.000 N 
ATOM     11  C   UNL     1       0.893  16.276  18.957  0.00  0.00    +0.000 C 
ATOM     12  O   UNL     1      -0.099  16.341  18.225  0.00  0.00    +0.000 OA
ATOM     13  C   UNL     1      -0.561  16.045  20.927  0.00  0.00    +0.000 C 
ENDROOT
BRANCH   3  14
ATOM     14  C   UNL     1      -3.536  12.198  19.404  0.00  0.00    +0.000 A 
ATOM     15  C   UNL     1      -3.374  11.659  18.088  0.00  0.00    +0.000 A 
ATOM     16  C   UNL     1      -4.473  11.181  17.346  0.00  0.00    +0.000 A 
ATOM     17  C   UNL     1      -5.759  11.241  17.854  0.00  0.00    +0.000 A 
ATOM     18  C   UNL     1      -5.963  11.773  19.116  0.00  0.00    +0.000 A 
ATOM     19  C   UNL     1      -4.886  12.259  19.881  0.00  0.00    +0.000 A 
BRANCH  15  20
ATOM     20  O   UNL     1      -2.106  11.546  17.558  0.00  0.00    +0.000 OA
ATOM     21  C   UNL     1      -1.570  10.222  17.497  0.00  0.00    +0.000 C 
ENDBRANCH  15  20
BRANCH  19  22
ATOM     22  O   UNL     1      -5.108  12.781  21.133  0.00  0.00    +0.000 OA
ATOM     23  C   UNL     1      -6.434  12.776  21.643  0.00  0.00    +0.000 C 
ENDBRANCH  19  22
ENDBRANCH   3  14
BRANCH  11  24
ATOM     24  C   UNL     1       2.301  16.302  18.338  0.00  0.00    +0.000 C 
ATOM     25  C   UNL     1       2.742  14.905  17.894  0.00  0.00    +0.000 C 
ATOM     26  C   UNL     1       2.336  17.257  17.146  0.00  0.00    +0.000 C 
ENDBRANCH  11  24
BRANCH   1  28
ATOM     27  C   UNL     1      -0.394  10.219  22.818  0.00  0.00    +0.000 C 
ATOM     28  O   UNL     1       0.343  11.307  22.271  0.00  0.00    +0.000 OA
ENDBRANCH   1  28
TORSDOF 5
ENDMDL
MODEL 6
REMARK VINA RESULT:      -5.6      2.959      5.206
REMARK  Name = 
REMARK  10 active torsions:
REMARK  status: ('A' for Active; 'I' for Inactive)
REMARK    1  A    between atoms: C_1  and  O_2
REMARK    2  A    between atoms: O_2  and  C_3
REMARK    3  A    between atoms: C_5  and  C_6
REMARK    4  A    between atoms: C_7  and  O_8
REMARK    5  A    between atoms: O_8  and  C_9
REMARK    6  A    between atoms: C_13  and  O_14
REMARK    7  A    between atoms: O_14  and  C_15
REMARK    8  A    between atoms: C_23  and  C_25
REMARK    9  A    between atoms: C_25  and  C_26
REMARK   10  A    between atoms: C_25  and  C_27
REMARK                            x       y       z     vdW  Elec       q    Type
REMARK                         _______ _______ _______ _____ _____    ______ ____
ROOT
ATOM      1  C   UNL     1      -0.713  12.505  21.936  0.00  0.00    +0.000 A 
ATOM      2  C   UNL     1      -1.751  12.014  21.122  0.00  0.00    +0.000 A 
ATOM      3  C   UNL     1      -2.618  12.853  20.388  0.00  0.00    +0.000 A 
ATOM      4  C   UNL     1      -2.314  14.229  20.464  0.00  0.00    +0.000 A 
ATOM      5  C   UNL     1      -1.182  14.739  21.141  0.00  0.00    +0.000 A 
ATOM      6  C   UNL     1      -0.416  13.865  21.920  0.00  0.00    +0.000 A 
ATOM      7  O   UNL     1       0.615  14.360  22.675  0.00  0.00    +0.000 OA
ATOM      8  C   UNL     1       1.742  14.685  21.853  0.00  0.00    +0.000 C 
ATOM      9  C   UNL     1       1.650  16.141  21.404  0.00  0.00    +0.000 C 
ATOM     10  N   UNL     1       0.572  16.345  20.430  0.00  0.00    +0.000 N 
ATOM     11  C   UNL     1       0.739  16.297  19.047  0.00  0.00    +0.000 C 
ATOM     12  O   UNL     1      -0.222  16.334  18.274  0.00  0.00    +0.000 OA
ATOM     13  C   UNL     1      -0.793  16.195  20.967  0.00  0.00    +0.000 C 
ENDROOT
BRANCH   3  14
ATOM     14  C   UNL     1      -3.762  12.306  19.543  0.00  0.00    +0.000 A 
ATOM     15  C   UNL     1      -5.126  12.335  19.973  0.00  0.00    +0.000 A 
ATOM     16  C   UNL     1      -6.165  11.829  19.167  0.00  0.00    +0.000 A 
ATOM     17  C   UNL     1      -5.901  11.258  17.935  0.00  0.00    +0.000 A 
ATOM     18  C   UNL     1      -4.593  11.192  17.487  0.00  0.00    +0.000 A 
ATOM     19  C   UNL     1      -3.532  11.687  18.270  0.00  0.00    +0.000 A 
BRANCH  15  20
ATOM     20  O   UNL     1      -5.439  12.928  21.178  0.00  0.00    +0.000 OA
ATOM     21  C   UNL     1      -6.434  13.953  21.130  0.00  0.00    +0.000 C 
ENDBRANCH  15  20
BRANCH  19  22
ATOM     22  O   UNL     1      -2.239  11.615  17.807  0.00  0.00    +0.000 OA
ATOM     23  C   UNL     1      -1.700  10.337  17.501  0.00  0.00    +0.000 C 
ENDBRANCH  19  22
ENDBRANCH   3  14
BRANCH  11  24
ATOM     24  C   UNL     1       2.171  16.271  18.485  0.00  0.00    +0.000 C 
ATOM     25  C   UNL     1       2.598  14.850  18.110  0.00  0.00    +0.000 C 
ATOM     26  C   UNL     1       2.273  17.180  17.260  0.00  0.00    +0.000 C 
ENDBRANCH  11  24
BRANCH   1  28
ATOM     27  C   UNL     1      -0.774  10.432  23.099  0.00  0.00    +0.000 C 
ATOM     28  O   UNL     1      -0.011  11.529  22.607  0.00  0.00    +0.000 OA
ENDBRANCH   1  28
TORSDOF 5
ENDMDL
MODEL 7
REMARK VINA RESULT:      -5.5      2.030      6.766
REMARK  Name = 
REMARK  10 active torsions:
REMARK  status: ('A' for Active; 'I' for Inactive)
REMARK    1  A    between atoms: C_1  and  O_2
REMARK    2  A    between atoms: O_2  and  C_3
REMARK    3  A    between atoms: C_5  and  C_6
REMARK    4  A    between atoms: C_7  and  O_8
REMARK    5  A    between atoms: O_8  and  C_9
REMARK    6  A    between atoms: C_13  and  O_14
REMARK    7  A    between atoms: O_14  and  C_15
REMARK    8  A    between atoms: C_23  and  C_25
REMARK    9  A    between atoms: C_25  and  C_26
REMARK   10  A    between atoms: C_25  and  C_27
REMARK                            x       y       z     vdW  Elec       q    Type
REMARK                         _______ _______ _______ _____ _____    ______ ____
ROOT
ATOM      1  C   UNL     1      -0.778  14.577  22.081  0.00  0.00    +0.000 A 
ATOM      2  C   UNL     1      -0.414  13.628  21.106  0.00  0.00    +0.000 A 
ATOM      3  C   UNL     1      -0.888  12.299  21.109  0.00  0.00    +0.000 A 
ATOM      4  C   UNL     1      -1.829  12.008  22.120  0.00  0.00    +0.000 A 
ATOM      5  C   UNL     1      -2.336  12.981  23.013  0.00  0.00    +0.000 A 
ATOM      6  C   UNL     1      -1.760  14.256  23.015  0.00  0.00    +0.000 A 
ATOM      7  O   UNL     1      -2.157  15.176  23.949  0.00  0.00    +0.000 OA
ATOM      8  C   UNL     1      -3.445  15.711  23.624  0.00  0.00    +0.000 C 
ATOM      9  C   UNL     1      -4.534  14.875  24.292  0.00  0.00    +0.000 C 
ATOM     10  N   UNL     1      -4.660  13.550  23.675  0.00  0.00    +0.000 N 
ATOM     11  C   UNL     1      -5.545  13.240  22.644  0.00  0.00    +0.000 C 
ATOM     12  O   UNL     1      -5.514  12.151  22.064  0.00  0.00    +0.000 OA
ATOM     13  C   UNL     1      -3.518  12.644  23.901  0.00  0.00    +0.000 C 
ENDROOT
BRANCH   3  14
ATOM     14  C   UNL     1      -0.453  11.274  20.068  0.00  0.00    +0.000 A 
ATOM     15  C   UNL     1      -1.070  11.167  18.781  0.00  0.00    +0.000 A 
ATOM     16  C   UNL     1      -0.641  10.214  17.835  0.00  0.00    +0.000 A 
ATOM     17  C   UNL     1       0.379   9.326  18.126  0.00  0.00    +0.000 A 
ATOM     18  C   UNL     1       0.991   9.383  19.366  0.00  0.00    +0.000 A 
ATOM     19  C   UNL     1       0.585  10.322  20.334  0.00  0.00    +0.000 A 
BRANCH  15  20
ATOM     20  O   UNL     1      -2.065  12.056  18.436  0.00  0.00    +0.000 OA
ATOM     21  C   UNL     1      -3.389  11.521  18.380  0.00  0.00    +0.000 C 
ENDBRANCH  15  20
BRANCH  19  22
ATOM     22  O   UNL     1       1.208  10.364  21.559  0.00  0.00    +0.000 OA
ATOM     23  C   UNL     1       1.161   9.208  22.382  0.00  0.00    +0.000 C 
ENDBRANCH  19  22
ENDBRANCH   3  14
BRANCH  11  24
ATOM     24  C   UNL     1      -6.632  14.267  22.282  0.00  0.00    +0.000 C 
ATOM     25  C   UNL     1      -6.948  14.240  20.784  0.00  0.00    +0.000 C 
ATOM     26  C   UNL     1      -7.905  13.992  23.081  0.00  0.00    +0.000 C 
ENDBRANCH  11  24
BRANCH   1  28
ATOM     27  C   UNL     1       1.180  15.894  22.375  0.00  0.00    +0.000 C 
ATOM     28  O   UNL     1      -0.170  15.803  21.931  0.00  0.00    +0.000 OA
ENDBRANCH   1  28
TORSDOF 5
ENDMDL
MODEL 8
REMARK VINA RESULT:      -5.4      2.162      6.493
REMARK  Name = 
REMARK  10 active torsions:
REMARK  status: ('A' for Active; 'I' for Inactive)
REMARK    1  A    between atoms: C_1  and  O_2
REMARK    2  A    between atoms: O_2  and  C_3
REMARK    3  A    between atoms: C_5  and  C_6
REMARK    4  A    between atoms: C_7  and  O_8
REMARK    5  A    between atoms: O_8  and  C_9
REMARK    6  A    between atoms: C_13  and  O_14
REMARK    7  A    between atoms: O_14  and  C_15
REMARK    8  A    between atoms: C_23  and  C_25
REMARK    9  A    between atoms: C_25  and  C_26
REMARK   10  A    between atoms: C_25  and  C_27
REMARK                            x       y       z     vdW  Elec       q    Type
REMARK                         _______ _______ _______ _____ _____    ______ ____
ROOT
ATOM      1  C   UNL     1      -0.747  14.249  23.035  0.00  0.00    +0.000 A 
ATOM      2  C   UNL     1      -0.328  13.411  21.985  0.00  0.00    +0.000 A 
ATOM      3  C   UNL     1      -1.071  12.292  21.548  0.00  0.00    +0.000 A 
ATOM      4  C   UNL     1      -2.316  12.121  22.190  0.00  0.00    +0.000 A 
ATOM      5  C   UNL     1      -2.836  13.037  23.134  0.00  0.00    +0.000 A 
ATOM      6  C   UNL     1      -2.013  14.074  23.587  0.00  0.00    +0.000 A 
ATOM      7  O   UNL     1      -2.457  14.902  24.585  0.00  0.00    +0.000 OA
ATOM      8  C   UNL     1      -3.426  15.831  24.085  0.00  0.00    +0.000 C 
ATOM      9  C   UNL     1      -4.828  15.245  24.237  0.00  0.00    +0.000 C 
ATOM     10  N   UNL     1      -5.057  14.133  23.308  0.00  0.00    +0.000 N 
ATOM     11  C   UNL     1      -5.631  14.265  22.045  0.00  0.00    +0.000 C 
ATOM     12  O   UNL     1      -5.672  13.324  21.246  0.00  0.00    +0.000 OA
ATOM     13  C   UNL     1      -4.278  12.912  23.589  0.00  0.00    +0.000 C 
ENDROOT
BRANCH   3  14
ATOM     14  C   UNL     1      -0.583  11.372  20.435  0.00  0.00    +0.000 A 
ATOM     15  C   UNL     1       0.539  10.497  20.590  0.00  0.00    +0.000 A 
ATOM     16  C   UNL     1       0.963   9.650  19.546  0.00  0.00    +0.000 A 
ATOM     17  C   UNL     1       0.324   9.653  18.318  0.00  0.00    +0.000 A 
ATOM     18  C   UNL     1      -0.754  10.499  18.119  0.00  0.00    +0.000 A 
ATOM     19  C   UNL     1      -1.201  11.357  19.142  0.00  0.00    +0.000 A 
BRANCH  15  20
ATOM     20  O   UNL     1       1.181  10.434  21.808  0.00  0.00    +0.000 OA
ATOM     21  C   UNL     1       1.107   9.180  22.489  0.00  0.00    +0.000 C 
ENDBRANCH  15  20
BRANCH  19  22
ATOM     22  O   UNL     1      -2.276  12.188  18.926  0.00  0.00    +0.000 OA
ATOM     23  C   UNL     1      -3.486  11.618  18.447  0.00  0.00    +0.000 C 
ENDBRANCH  19  22
ENDBRANCH   3  14
BRANCH  11  24
ATOM     24  C   UNL     1      -6.290  15.606  21.678  0.00  0.00    +0.000 C 
ATOM     25  C   UNL     1      -6.054  15.961  20.208  0.00  0.00    +0.000 C 
ATOM     26  C   UNL     1      -7.791  15.550  21.960  0.00  0.00    +0.000 C 
ENDBRANCH  11  24
BRANCH   1  28
ATOM     27  C   UNL     1       0.253  16.307  22.390  0.00  0.00    +0.000 C 
ATOM     28  O   UNL     1       0.140  15.256  23.343  0.00  0.00    +0.000 OA
ENDBRANCH   1  28
TORSDOF 5
ENDMDL
MODEL 9
REMARK VINA RESULT:      -5.4      2.621      7.124
REMARK  Name = 
REMARK  10 active torsions:
REMARK  status: ('A' for Active; 'I' for Inactive)
REMARK    1  A    between atoms: C_1  and  O_2
REMARK    2  A    between atoms: O_2  and  C_3
REMARK    3  A    between atoms: C_5  and  C_6
REMARK    4  A    between atoms: C_7  and  O_8
REMARK    5  A    between atoms: O_8  and  C_9
REMARK    6  A    between atoms: C_13  and  O_14
REMARK    7  A    between atoms: O_14  and  C_15
REMARK    8  A    between atoms: C_23  and  C_25
REMARK    9  A    between atoms: C_25  and  C_26
REMARK   10  A    between atoms: C_25  and  C_27
REMARK                            x       y       z     vdW  Elec       q    Type
REMARK                         _______ _______ _______ _____ _____    ______ ____
ROOT
ATOM      1  C   UNL     1      -1.348  11.528  22.667  0.00  0.00    +0.000 A 
ATOM      2  C   UNL     1      -0.238  11.916  21.894  0.00  0.00    +0.000 A 
ATOM      3  C   UNL     1      -0.298  12.926  20.909  0.00  0.00    +0.000 A 
ATOM      4  C   UNL     1      -1.543  13.584  20.812  0.00  0.00    +0.000 A 
ATOM      5  C   UNL     1      -2.627  13.329  21.683  0.00  0.00    +0.000 A 
ATOM      6  C   UNL     1      -2.532  12.256  22.577  0.00  0.00    +0.000 A 
ATOM      7  O   UNL     1      -3.615  11.921  23.347  0.00  0.00    +0.000 OA
ATOM      8  C   UNL     1      -3.788  12.855  24.419  0.00  0.00    +0.000 C 
ATOM      9  C   UNL     1      -4.719  13.981  23.975  0.00  0.00    +0.000 C 
ATOM     10  N   UNL     1      -4.081  14.860  22.989  0.00  0.00    +0.000 N 
ATOM     11  C   UNL     1      -3.391  16.029  23.304  0.00  0.00    +0.000 C 
ATOM     12  O   UNL     1      -2.752  16.657  22.455  0.00  0.00    +0.000 OA
ATOM     13  C   UNL     1      -3.835  14.246  21.670  0.00  0.00    +0.000 C 
ENDROOT
BRANCH   3  14
ATOM     14  C   UNL     1       0.905  13.306  20.054  0.00  0.00    +0.000 A 
ATOM     15  C   UNL     1       1.326  12.536  18.923  0.00  0.00    +0.000 A 
ATOM     16  C   UNL     1       2.438  12.915  18.145  0.00  0.00    +0.000 A 
ATOM     17  C   UNL     1       3.184  14.036  18.462  0.00  0.00    +0.000 A 
ATOM     18  C   UNL     1       2.823  14.799  19.560  0.00  0.00    +0.000 A 
ATOM     19  C   UNL     1       1.719  14.446  20.358  0.00  0.00    +0.000 A 
BRANCH  15  20
ATOM     20  O   UNL     1       0.589  11.432  18.548  0.00  0.00    +0.000 OA
ATOM     21  C   UNL     1       1.290  10.187  18.536  0.00  0.00    +0.000 C 
ENDBRANCH  15  20
BRANCH  19  22
ATOM     22  O   UNL     1       1.375  15.218  21.442  0.00  0.00    +0.000 OA
ATOM     23  C   UNL     1       0.939  16.551  21.213  0.00  0.00    +0.000 C 
ENDBRANCH  19  22
ENDBRANCH   3  14
BRANCH  11  24
ATOM     24  C   UNL     1      -3.500  16.578  24.737  0.00  0.00    +0.000 C 
ATOM     25  C   UNL     1      -2.160  16.487  25.473  0.00  0.00    +0.000 C 
ATOM     26  C   UNL     1      -3.976  18.029  24.712  0.00  0.00    +0.000 C 
ENDBRANCH  11  24
BRANCH   1  28
ATOM     27  C   UNL     1      -0.130   9.537  23.116  0.00  0.00    +0.000 C 
ATOM     28  O   UNL     1      -1.097  10.492  23.537  0.00  0.00    +0.000 OA
ENDBRANCH   1  28
TORSDOF 5
ENDMDL
