MODEL 1
REMARK VINA RESULT:      -5.9      0.000      0.000
REMARK  Name = 
REMARK  1 active torsions:
REMARK  status: ('A' for Active; 'I' for Inactive)
REMARK    1  A    between atoms: C_1  and  N_2
REMARK                            x       y       z     vdW  Elec       q    Type
REMARK                         _______ _______ _______ _____ _____    ______ ____
ROOT
ATOM      1  C   UNL     1       3.347   3.447  19.163  0.00  0.00    +0.000 C 
ATOM      2  N   UNL     1       4.116   4.629  19.525  0.00  0.00    +0.000 NA
ATOM      3  C   UNL     1       3.376   5.875  19.314  0.00  0.00    +0.000 C 
ATOM      4  C   UNL     1       3.425   6.397  17.878  0.00  0.00    +0.000 C 
ATOM      5  C   UNL     1       4.864   6.511  17.380  0.00  0.00    +0.000 C 
ATOM      6  C   UNL     1       5.630   5.170  17.509  0.00  0.00    +0.000 C 
ATOM      7  C   UNL     1       5.124   4.102  16.507  0.00  0.00    +0.000 C 
ATOM      8  C   UNL     1       5.449   4.464  15.058  0.00  0.00    +0.000 C 
ATOM      9  C   UNL     1       6.933   4.759  14.881  0.00  0.00    +0.000 C 
ATOM     10  N   UNL     1       7.419   5.771  15.820  0.00  0.00    +0.000 NA
ATOM     11  C   UNL     1       7.140   5.391  17.211  0.00  0.00    +0.000 C 
ATOM     12  C   UNL     1       5.477   4.680  18.974  0.00  0.00    +0.000 C 
ATOM     13  H   UNL     1       6.967   6.661  15.616  0.00  0.00    +0.000 HD
ENDROOT
TORSDOF 0
ENDMDL
MODEL 2
REMARK VINA RESULT:      -5.7      2.007      4.974
REMARK  Name = 
REMARK  1 active torsions:
REMARK  status: ('A' for Active; 'I' for Inactive)
REMARK    1  A    between atoms: C_1  and  N_2
REMARK                            x       y       z     vdW  Elec       q    Type
REMARK                         _______ _______ _______ _____ _____    ______ ____
ROOT
ATOM      1  C   UNL     1       5.950   4.462  18.323  0.00  0.00    +0.000 C 
ATOM      2  N   UNL     1       4.864   4.383  17.357  0.00  0.00    +0.000 NA
ATOM      3  C   UNL     1       4.297   5.692  17.029  0.00  0.00    +0.000 C 
ATOM      4  C   UNL     1       3.250   6.189  18.026  0.00  0.00    +0.000 C 
ATOM      5  C   UNL     1       2.156   5.147  18.244  0.00  0.00    +0.000 C 
ATOM      6  C   UNL     1       2.737   3.780  18.686  0.00  0.00    +0.000 C 
ATOM      7  C   UNL     1       3.308   3.818  20.125  0.00  0.00    +0.000 C 
ATOM      8  C   UNL     1       2.216   4.005  21.178  0.00  0.00    +0.000 C 
ATOM      9  C   UNL     1       1.116   2.962  21.025  0.00  0.00    +0.000 C 
ATOM     10  N   UNL     1       0.567   2.921  19.670  0.00  0.00    +0.000 NA
ATOM     11  C   UNL     1       1.620   2.698  18.670  0.00  0.00    +0.000 C 
ATOM     12  C   UNL     1       3.832   3.381  17.660  0.00  0.00    +0.000 C 
ATOM     13  H   UNL     1       0.097   3.803  19.473  0.00  0.00    +0.000 HD
ENDROOT
TORSDOF 0
ENDMDL
MODEL 3
REMARK VINA RESULT:      -5.6      1.150      4.176
REMARK  Name = 
REMARK  1 active torsions:
REMARK  status: ('A' for Active; 'I' for Inactive)
REMARK    1  A    between atoms: C_1  and  N_2
REMARK                            x       y       z     vdW  Elec       q    Type
REMARK                         _______ _______ _______ _____ _____    ______ ____
ROOT
ATOM      1  C   UNL     1       7.353   6.830  17.185  0.00  0.00    +0.000 C 
ATOM      2  N   UNL     1       7.346   5.383  17.023  0.00  0.00    +0.000 NA
ATOM      3  C   UNL     1       7.036   4.966  15.654  0.00  0.00    +0.000 C 
ATOM      4  C   UNL     1       5.541   4.916  15.338  0.00  0.00    +0.000 C 
ATOM      5  C   UNL     1       4.787   4.072  16.362  0.00  0.00    +0.000 C 
ATOM      6  C   UNL     1       5.031   4.565  17.812  0.00  0.00    +0.000 C 
ATOM      7  C   UNL     1       4.352   5.929  18.093  0.00  0.00    +0.000 C 
ATOM      8  C   UNL     1       2.827   5.831  18.090  0.00  0.00    +0.000 C 
ATOM      9  C   UNL     1       2.341   4.742  19.039  0.00  0.00    +0.000 C 
ATOM     10  N   UNL     1       2.973   3.448  18.777  0.00  0.00    +0.000 NA
ATOM     11  C   UNL     1       4.437   3.546  18.826  0.00  0.00    +0.000 C 
ATOM     12  C   UNL     1       6.566   4.648  18.028  0.00  0.00    +0.000 C 
ATOM     13  H   UNL     1       2.686   3.117  17.857  0.00  0.00    +0.000 HD
ENDROOT
TORSDOF 0
ENDMDL
MODEL 4
REMARK VINA RESULT:      -5.6      2.329      3.682
REMARK  Name = 
REMARK  1 active torsions:
REMARK  status: ('A' for Active; 'I' for Inactive)
REMARK    1  A    between atoms: C_1  and  N_2
REMARK                            x       y       z     vdW  Elec       q    Type
REMARK                         _______ _______ _______ _____ _____    ______ ____
ROOT
ATOM      1  C   UNL     1       2.325   2.850  21.514  0.00  0.00    +0.000 C 
ATOM      2  N   UNL     1       1.351   3.711  20.857  0.00  0.00    +0.000 NA
ATOM      3  C   UNL     1       0.639   3.038  19.770  0.00  0.00    +0.000 C 
ATOM      4  C   UNL     1       1.392   3.030  18.439  0.00  0.00    +0.000 C 
ATOM      5  C   UNL     1       1.819   4.439  18.037  0.00  0.00    +0.000 C 
ATOM      6  C   UNL     1       2.658   5.128  19.144  0.00  0.00    +0.000 C 
ATOM      7  C   UNL     1       4.064   4.496  19.299  0.00  0.00    +0.000 C 
ATOM      8  C   UNL     1       4.953   4.752  18.082  0.00  0.00    +0.000 C 
ATOM      9  C   UNL     1       5.026   6.237  17.753  0.00  0.00    +0.000 C 
ATOM     10  N   UNL     1       3.702   6.843  17.600  0.00  0.00    +0.000 NA
ATOM     11  C   UNL     1       2.872   6.628  18.792  0.00  0.00    +0.000 C 
ATOM     12  C   UNL     1       1.854   5.036  20.469  0.00  0.00    +0.000 C 
ATOM     13  H   UNL     1       3.240   6.434  16.789  0.00  0.00    +0.000 HD
ENDROOT
TORSDOF 0
ENDMDL
MODEL 5
REMARK VINA RESULT:      -5.5      2.088      3.400
REMARK  Name = 
REMARK  1 active torsions:
REMARK  status: ('A' for Active; 'I' for Inactive)
REMARK    1  A    between atoms: C_1  and  N_2
REMARK                            x       y       z     vdW  Elec       q    Type
REMARK                         _______ _______ _______ _____ _____    ______ ____
ROOT
ATOM      1  C   UNL     1       0.817   2.222  18.661  0.00  0.00    +0.000 C 
ATOM      2  N   UNL     1       1.706   2.274  19.813  0.00  0.00    +0.000 NA
ATOM      3  C   UNL     1       1.192   3.125  20.888  0.00  0.00    +0.000 C 
ATOM      4  C   UNL     1       1.492   4.613  20.706  0.00  0.00    +0.000 C 
ATOM      5  C   UNL     1       2.981   4.852  20.469  0.00  0.00    +0.000 C 
ATOM      6  C   UNL     1       3.517   4.027  19.270  0.00  0.00    +0.000 C 
ATOM      7  C   UNL     1       2.981   4.545  17.912  0.00  0.00    +0.000 C 
ATOM      8  C   UNL     1       3.530   5.928  17.560  0.00  0.00    +0.000 C 
ATOM      9  C   UNL     1       5.052   5.952  17.623  0.00  0.00    +0.000 C 
ATOM     10  N   UNL     1       5.567   5.469  18.905  0.00  0.00    +0.000 NA
ATOM     11  C   UNL     1       5.068   4.122  19.211  0.00  0.00    +0.000 C 
ATOM     12  C   UNL     1       3.116   2.546  19.502  0.00  0.00    +0.000 C 
ATOM     13  H   UNL     1       5.282   6.111  19.643  0.00  0.00    +0.000 HD
ENDROOT
TORSDOF 0
ENDMDL
MODEL 6
REMARK VINA RESULT:      -5.5      1.582      2.648
REMARK  Name = 
REMARK  1 active torsions:
REMARK  status: ('A' for Active; 'I' for Inactive)
REMARK    1  A    between atoms: C_1  and  N_2
REMARK                            x       y       z     vdW  Elec       q    Type
REMARK                         _______ _______ _______ _____ _____    ______ ____
ROOT
ATOM      1  C   UNL     1       2.370   4.750  19.984  0.00  0.00    +0.000 C 
ATOM      2  N   UNL     1       2.221   5.014  18.560  0.00  0.00    +0.000 NA
ATOM      3  C   UNL     1       2.258   3.796  17.749  0.00  0.00    +0.000 C 
ATOM      4  C   UNL     1       3.668   3.307  17.417  0.00  0.00    +0.000 C 
ATOM      5  C   UNL     1       4.506   4.419  16.791  0.00  0.00    +0.000 C 
ATOM      6  C   UNL     1       4.554   5.683  17.687  0.00  0.00    +0.000 C 
ATOM      7  C   UNL     1       5.389   5.463  18.973  0.00  0.00    +0.000 C 
ATOM      8  C   UNL     1       6.877   5.281  18.676  0.00  0.00    +0.000 C 
ATOM      9  C   UNL     1       7.417   6.428  17.831  0.00  0.00    +0.000 C 
ATOM     10  N   UNL     1       6.637   6.640  16.611  0.00  0.00    +0.000 NA
ATOM     11  C   UNL     1       5.216   6.858  16.912  0.00  0.00    +0.000 C 
ATOM     12  C   UNL     1       3.090   6.073  18.029  0.00  0.00    +0.000 C 
ATOM     13  H   UNL     1       6.734   5.825  16.007  0.00  0.00    +0.000 HD
ENDROOT
TORSDOF 0
ENDMDL
MODEL 7
REMARK VINA RESULT:      -5.4      1.831      2.655
REMARK  Name = 
REMARK  1 active torsions:
REMARK  status: ('A' for Active; 'I' for Inactive)
REMARK    1  A    between atoms: C_1  and  N_2
REMARK                            x       y       z     vdW  Elec       q    Type
REMARK                         _______ _______ _______ _____ _____    ______ ____
ROOT
ATOM      1  C   UNL     1       3.047   2.650  20.794  0.00  0.00    +0.000 C 
ATOM      2  N   UNL     1       2.353   3.908  20.559  0.00  0.00    +0.000 NA
ATOM      3  C   UNL     1       1.097   3.737  19.826  0.00  0.00    +0.000 C 
ATOM      4  C   UNL     1       1.265   3.653  18.308  0.00  0.00    +0.000 C 
ATOM      5  C   UNL     1       2.066   4.838  17.774  0.00  0.00    +0.000 C 
ATOM      6  C   UNL     1       3.441   4.973  18.477  0.00  0.00    +0.000 C 
ATOM      7  C   UNL     1       4.419   3.838  18.083  0.00  0.00    +0.000 C 
ATOM      8  C   UNL     1       4.850   3.925  16.619  0.00  0.00    +0.000 C 
ATOM      9  C   UNL     1       5.408   5.303  16.288  0.00  0.00    +0.000 C 
ATOM     10  N   UNL     1       4.489   6.382  16.652  0.00  0.00    +0.000 NA
ATOM     11  C   UNL     1       4.116   6.313  18.071  0.00  0.00    +0.000 C 
ATOM     12  C   UNL     1       3.186   4.986  20.009  0.00  0.00    +0.000 C 
ATOM     13  H   UNL     1       3.649   6.313  16.078  0.00  0.00    +0.000 HD
ENDROOT
TORSDOF 0
ENDMDL
MODEL 8
REMARK VINA RESULT:      -5.4      1.900      3.359
REMARK  Name = 
REMARK  1 active torsions:
REMARK  status: ('A' for Active; 'I' for Inactive)
REMARK    1  A    between atoms: C_1  and  N_2
REMARK                            x       y       z     vdW  Elec       q    Type
REMARK                         _______ _______ _______ _____ _____    ______ ____
ROOT
ATOM      1  C   UNL     1       1.558   5.288  20.557  0.00  0.00    +0.000 C 
ATOM      2  N   UNL     1       1.536   4.137  19.664  0.00  0.00    +0.000 NA
ATOM      3  C   UNL     1       1.832   2.879  20.351  0.00  0.00    +0.000 C 
ATOM      4  C   UNL     1       3.324   2.597  20.526  0.00  0.00    +0.000 C 
ATOM      5  C   UNL     1       4.065   2.694  19.195  0.00  0.00    +0.000 C 
ATOM      6  C   UNL     1       3.837   4.062  18.502  0.00  0.00    +0.000 C 
ATOM      7  C   UNL     1       4.543   5.224  19.243  0.00  0.00    +0.000 C 
ATOM      8  C   UNL     1       6.066   5.126  19.160  0.00  0.00    +0.000 C 
ATOM      9  C   UNL     1       6.534   4.999  17.715  0.00  0.00    +0.000 C 
ATOM     10  N   UNL     1       5.875   3.900  17.008  0.00  0.00    +0.000 NA
ATOM     11  C   UNL     1       4.413   4.029  17.058  0.00  0.00    +0.000 C 
ATOM     12  C   UNL     1       2.304   4.298  18.422  0.00  0.00    +0.000 C 
ATOM     13  H   UNL     1       6.151   3.016  17.434  0.00  0.00    +0.000 HD
ENDROOT
TORSDOF 0
ENDMDL
MODEL 9
REMARK VINA RESULT:      -5.4      1.850      3.790
REMARK  Name = 
REMARK  1 active torsions:
REMARK  status: ('A' for Active; 'I' for Inactive)
REMARK    1  A    between atoms: C_1  and  N_2
REMARK                            x       y       z     vdW  Elec       q    Type
REMARK                         _______ _______ _______ _____ _____    ______ ____
ROOT
ATOM      1  C   UNL     1       3.351   7.404  17.517  0.00  0.00    +0.000 C 
ATOM      2  N   UNL     1       4.666   6.839  17.782  0.00  0.00    +0.000 NA
ATOM      3  C   UNL     1       5.420   6.554  16.560  0.00  0.00    +0.000 C 
ATOM      4  C   UNL     1       5.077   5.213  15.911  0.00  0.00    +0.000 C 
ATOM      5  C   UNL     1       5.190   4.068  16.915  0.00  0.00    +0.000 C 
ATOM      6  C   UNL     1       4.319   4.313  18.174  0.00  0.00    +0.000 C 
ATOM      7  C   UNL     1       2.803   4.207  17.874  0.00  0.00    +0.000 C 
ATOM      8  C   UNL     1       2.379   2.782  17.521  0.00  0.00    +0.000 C 
ATOM      9  C   UNL     1       2.822   1.792  18.592  0.00  0.00    +0.000 C 
ATOM     10  N   UNL     1       4.254   1.882  18.879  0.00  0.00    +0.000 NA
ATOM     11  C   UNL     1       4.642   3.247  19.259  0.00  0.00    +0.000 C 
ATOM     12  C   UNL     1       4.683   5.717  18.731  0.00  0.00    +0.000 C 
ATOM     13  H   UNL     1       4.779   1.599  18.053  0.00  0.00    +0.000 HD
ENDROOT
TORSDOF 0
ENDMDL
