MODEL 1
REMARK VINA RESULT:      -8.7      0.000      0.000
REMARK  Name = 
REMARK  11 active torsions:
REMARK  status: ('A' for Active; 'I' for Inactive)
REMARK    1  A    between atoms: C_1  and  C_2
REMARK    2  A    between atoms: C_2  and  C_3
REMARK    3  A    between atoms: C_2  and  N_4
REMARK    4  A    between atoms: N_4  and  C_5
REMARK    5  A    between atoms: C_7  and  C_8
REMARK    6  A    between atoms: C_11  and  N_12
REMARK    7  A    between atoms: C_15  and  C_16
REMARK    8  A    between atoms: C_16  and  O_17
REMARK    9  A    between atoms: C_19  and  S_20
REMARK   10  A    between atoms: S_20  and  C_21
REMARK   11  A    between atoms: N_29  and  C_30
REMARK                            x       y       z     vdW  Elec       q    Type
REMARK                         _______ _______ _______ _____ _____    ______ ____
ROOT
ATOM      1  C   UNL     1       2.035   8.251  18.700  0.00  0.00    +0.000 A 
ATOM      2  C   UNL     1       2.873   8.555  17.633  0.00  0.00    +0.000 A 
ATOM      3  C   UNL     1       3.751   7.596  17.103  0.00  0.00    +0.000 A 
ATOM      4  C   UNL     1       3.863   6.271  17.592  0.00  0.00    +0.000 A 
ATOM      5  C   UNL     1       3.066   5.991  18.723  0.00  0.00    +0.000 A 
ATOM      6  C   UNL     1       2.181   6.968  19.249  0.00  0.00    +0.000 A 
ENDROOT
BRANCH   1   9
ATOM      7  C   UNL     1      -0.741  10.653  18.706  0.00  0.00    +0.000 A 
ATOM      8  N   UNL     1       0.193   9.747  18.316  0.00  0.00    +0.000 NA
ATOM      9  C   UNL     1       1.051   9.224  19.223  0.00  0.00    +0.000 A 
ATOM     10  C   UNL     1       0.984   9.577  20.568  0.00  0.00    +0.000 A 
ATOM     11  C   UNL     1       0.031  10.501  20.985  0.00  0.00    +0.000 A 
ATOM     12  N   UNL     1      -0.015  10.818  22.353  0.00  0.00    +0.000 NA
ATOM     13  C   UNL     1      -0.925  11.649  22.744  0.00  0.00    +0.000 A 
ATOM     14  N   UNL     1      -1.837  12.249  21.916  0.00  0.00    +0.000 N 
ATOM     15  C   UNL     1      -2.844  13.136  22.461  0.00  0.00    +0.000 C 
ATOM     16  C   UNL     1      -1.867  11.979  20.550  0.00  0.00    +0.000 A 
ATOM     17  O   UNL     1      -2.725  12.439  19.799  0.00  0.00    +0.000 OA
ATOM     18  C   UNL     1      -0.831  11.050  20.044  0.00  0.00    +0.000 A 
BRANCH   7  19
ATOM     19  N   UNL     1      -1.528  11.253  17.711  0.00  0.00    +0.000 N 
ATOM     20  H   UNL     1      -2.123  11.969  18.139  0.00  0.00    +0.000 HD
BRANCH  19  22
ATOM     21  C   UNL     1      -3.374   9.676  17.614  0.00  0.00    +0.000 C 
ATOM     22  C   UNL     1      -2.267  10.363  16.808  0.00  0.00    +0.000 C 
ATOM     23  C   UNL     1      -2.897  11.144  15.656  0.00  0.00    +0.000 C 
ENDBRANCH  19  22
ENDBRANCH   7  19
ENDBRANCH   1   9
BRANCH   4  24
ATOM     24  N   UNL     1       4.751   5.438  16.943  0.00  0.00    +0.000 N 
ATOM     25  C   UNL     1       4.464   4.137  16.349  0.00  0.00    +0.000 C 
ATOM     26  C   UNL     1       5.837   3.483  16.294  0.00  0.00    +0.000 C 
ATOM     27  C   UNL     1       6.780   4.636  15.947  0.00  0.00    +0.000 C 
ATOM     28  C   UNL     1       6.083   5.890  16.509  0.00  0.00    +0.000 C 
BRANCH  27  29
ATOM     29  C   UNL     1       7.047   4.769  14.449  0.00  0.00    +0.000 C 
BRANCH  29  30
ATOM     30  O   UNL     1       8.127   5.663  14.202  0.00  0.00    +0.000 OA
ATOM     31  H   UNL     1       8.307   6.152  15.022  0.00  0.00    +0.000 HD
ENDBRANCH  29  30
ENDBRANCH  27  29
ENDBRANCH   4  24
BRANCH   5  32
ATOM     32  S   UNL     1       3.027   4.388  19.517  0.00  0.00    +0.000 S 
ATOM     33  C   UNL     1       2.249   4.570  21.095  0.00  0.00    +0.000 C 
ATOM     34  O   UNL     1       2.146   3.535  18.740  0.00  0.00    +0.000 OA
ATOM     35  O   UNL     1       4.395   4.005  19.815  0.00  0.00    +0.000 OA
ENDBRANCH   5  32
TORSDOF 7
ENDMDL
MODEL 2
REMARK VINA RESULT:      -8.6      2.779      9.747
REMARK  Name = 
REMARK  11 active torsions:
REMARK  status: ('A' for Active; 'I' for Inactive)
REMARK    1  A    between atoms: C_1  and  C_2
REMARK    2  A    between atoms: C_2  and  C_3
REMARK    3  A    between atoms: C_2  and  N_4
REMARK    4  A    between atoms: N_4  and  C_5
REMARK    5  A    between atoms: C_7  and  C_8
REMARK    6  A    between atoms: C_11  and  N_12
REMARK    7  A    between atoms: C_15  and  C_16
REMARK    8  A    between atoms: C_16  and  O_17
REMARK    9  A    between atoms: C_19  and  S_20
REMARK   10  A    between atoms: S_20  and  C_21
REMARK   11  A    between atoms: N_29  and  C_30
REMARK                            x       y       z     vdW  Elec       q    Type
REMARK                         _______ _______ _______ _____ _____    ______ ____
ROOT
ATOM      1  C   UNL     1       1.377   8.696  19.929  0.00  0.00    +0.000 A 
ATOM      2  C   UNL     1       0.530   8.448  21.004  0.00  0.00    +0.000 A 
ATOM      3  C   UNL     1      -0.292   9.458  21.528  0.00  0.00    +0.000 A 
ATOM      4  C   UNL     1      -0.333  10.784  21.029  0.00  0.00    +0.000 A 
ATOM      5  C   UNL     1       0.584  11.049  19.989  0.00  0.00    +0.000 A 
ATOM      6  C   UNL     1       1.409  10.019  19.466  0.00  0.00    +0.000 A 
ENDROOT
BRANCH   1   9
ATOM      7  C   UNL     1       2.833   5.367  19.405  0.00  0.00    +0.000 A 
ATOM      8  N   UNL     1       2.112   6.407  19.897  0.00  0.00    +0.000 NA
ATOM      9  C   UNL     1       2.195   7.627  19.315  0.00  0.00    +0.000 A 
ATOM     10  C   UNL     1       2.993   7.840  18.195  0.00  0.00    +0.000 A 
ATOM     11  C   UNL     1       3.736   6.784  17.675  0.00  0.00    +0.000 A 
ATOM     12  N   UNL     1       4.515   7.035  16.533  0.00  0.00    +0.000 NA
ATOM     13  C   UNL     1       5.176   6.045  16.030  0.00  0.00    +0.000 A 
ATOM     14  N   UNL     1       5.177   4.773  16.540  0.00  0.00    +0.000 N 
ATOM     15  C   UNL     1       5.920   3.721  15.876  0.00  0.00    +0.000 C 
ATOM     16  C   UNL     1       4.421   4.438  17.661  0.00  0.00    +0.000 A 
ATOM     17  O   UNL     1       4.340   3.288  18.090  0.00  0.00    +0.000 OA
ATOM     18  C   UNL     1       3.663   5.542  18.292  0.00  0.00    +0.000 A 
BRANCH   7  19
ATOM     19  N   UNL     1       2.804   4.155  20.112  0.00  0.00    +0.000 N 
ATOM     20  H   UNL     1       3.401   3.473  19.634  0.00  0.00    +0.000 HD
BRANCH  19  22
ATOM     21  C   UNL     1       0.949   2.839  19.258  0.00  0.00    +0.000 C 
ATOM     22  C   UNL     1       1.487   3.613  20.465  0.00  0.00    +0.000 C 
ATOM     23  C   UNL     1       1.582   2.670  21.664  0.00  0.00    +0.000 C 
ENDBRANCH  19  22
ENDBRANCH   7  19
ENDBRANCH   1   9
BRANCH   4  24
ATOM     24  N   UNL     1      -1.218  11.652  21.633  0.00  0.00    +0.000 N 
ATOM     25  C   UNL     1      -2.314  12.374  20.998  0.00  0.00    +0.000 C 
ATOM     26  C   UNL     1      -2.558  13.528  21.959  0.00  0.00    +0.000 C 
ATOM     27  C   UNL     1      -2.339  12.909  23.341  0.00  0.00    +0.000 C 
ATOM     28  C   UNL     1      -1.347  11.756  23.095  0.00  0.00    +0.000 C 
BRANCH  27  29
ATOM     29  C   UNL     1      -3.628  12.409  23.991  0.00  0.00    +0.000 C 
BRANCH  29  30
ATOM     30  O   UNL     1      -4.075  13.312  24.996  0.00  0.00    +0.000 OA
ATOM     31  H   UNL     1      -3.518  13.185  25.783  0.00  0.00    +0.000 HD
ENDBRANCH  29  30
ENDBRANCH  27  29
ENDBRANCH   4  24
BRANCH   5  32
ATOM     32  S   UNL     1       0.716  12.644  19.188  0.00  0.00    +0.000 S 
ATOM     33  C   UNL     1       2.213  12.668  18.245  0.00  0.00    +0.000 C 
ATOM     34  O   UNL     1      -0.361  12.740  18.220  0.00  0.00    +0.000 OA
ATOM     35  O   UNL     1       0.908  13.647  20.221  0.00  0.00    +0.000 OA
ENDBRANCH   5  32
TORSDOF 7
ENDMDL
MODEL 3
REMARK VINA RESULT:      -8.6      2.379      9.523
REMARK  Name = 
REMARK  11 active torsions:
REMARK  status: ('A' for Active; 'I' for Inactive)
REMARK    1  A    between atoms: C_1  and  C_2
REMARK    2  A    between atoms: C_2  and  C_3
REMARK    3  A    between atoms: C_2  and  N_4
REMARK    4  A    between atoms: N_4  and  C_5
REMARK    5  A    between atoms: C_7  and  C_8
REMARK    6  A    between atoms: C_11  and  N_12
REMARK    7  A    between atoms: C_15  and  C_16
REMARK    8  A    between atoms: C_16  and  O_17
REMARK    9  A    between atoms: C_19  and  S_20
REMARK   10  A    between atoms: S_20  and  C_21
REMARK   11  A    between atoms: N_29  and  C_30
REMARK                            x       y       z     vdW  Elec       q    Type
REMARK                         _______ _______ _______ _____ _____    ______ ____
ROOT
ATOM      1  C   UNL     1       1.465   8.628  19.902  0.00  0.00    +0.000 A 
ATOM      2  C   UNL     1       1.540   8.856  21.271  0.00  0.00    +0.000 A 
ATOM      3  C   UNL     1       0.732   9.822  21.891  0.00  0.00    +0.000 A 
ATOM      4  C   UNL     1      -0.204  10.631  21.201  0.00  0.00    +0.000 A 
ATOM      5  C   UNL     1      -0.220  10.449  19.801  0.00  0.00    +0.000 A 
ATOM      6  C   UNL     1       0.600   9.467  19.185  0.00  0.00    +0.000 A 
ENDROOT
BRANCH   1   9
ATOM      7  C   UNL     1       2.797   5.277  19.208  0.00  0.00    +0.000 A 
ATOM      8  N   UNL     1       2.107   6.316  19.747  0.00  0.00    +0.000 NA
ATOM      9  C   UNL     1       2.254   7.563  19.242  0.00  0.00    +0.000 A 
ATOM     10  C   UNL     1       3.087   7.809  18.155  0.00  0.00    +0.000 A 
ATOM     11  C   UNL     1       3.799   6.756  17.588  0.00  0.00    +0.000 A 
ATOM     12  N   UNL     1       4.616   7.042  16.482  0.00  0.00    +0.000 NA
ATOM     13  C   UNL     1       5.248   6.056  15.934  0.00  0.00    +0.000 A 
ATOM     14  N   UNL     1       5.185   4.757  16.365  0.00  0.00    +0.000 N 
ATOM     15  C   UNL     1       5.901   3.717  15.655  0.00  0.00    +0.000 C 
ATOM     16  C   UNL     1       4.388   4.388  17.447  0.00  0.00    +0.000 A 
ATOM     17  O   UNL     1       4.249   3.219  17.803  0.00  0.00    +0.000 OA
ATOM     18  C   UNL     1       3.660   5.483  18.127  0.00  0.00    +0.000 A 
BRANCH   7  19
ATOM     19  N   UNL     1       2.701   4.028  19.840  0.00  0.00    +0.000 N 
ATOM     20  H   UNL     1       3.257   3.344  19.317  0.00  0.00    +0.000 HD
BRANCH  19  22
ATOM     21  C   UNL     1       0.889   2.627  19.028  0.00  0.00    +0.000 C 
ATOM     22  C   UNL     1       1.356   3.540  20.166  0.00  0.00    +0.000 C 
ATOM     23  C   UNL     1       1.358   2.749  21.474  0.00  0.00    +0.000 C 
ENDBRANCH  19  22
ENDBRANCH   7  19
ENDBRANCH   1   9
BRANCH   4  24
ATOM     24  N   UNL     1      -0.947  11.514  21.958  0.00  0.00    +0.000 N 
ATOM     25  C   UNL     1      -1.704  11.214  23.168  0.00  0.00    +0.000 C 
ATOM     26  C   UNL     1      -2.705  12.357  23.230  0.00  0.00    +0.000 C 
ATOM     27  C   UNL     1      -1.913  13.567  22.733  0.00  0.00    +0.000 C 
ATOM     28  C   UNL     1      -0.845  12.972  21.796  0.00  0.00    +0.000 C 
BRANCH  27  29
ATOM     29  C   UNL     1      -1.278  14.379  23.860  0.00  0.00    +0.000 C 
BRANCH  29  30
ATOM     30  O   UNL     1      -0.075  15.002  23.424  0.00  0.00    +0.000 OA
ATOM     31  H   UNL     1       0.640  14.347  23.481  0.00  0.00    +0.000 HD
ENDBRANCH  29  30
ENDBRANCH  27  29
ENDBRANCH   4  24
BRANCH   5  32
ATOM     32  S   UNL     1      -1.322  11.347  18.713  0.00  0.00    +0.000 S 
ATOM     33  C   UNL     1      -1.652  10.333  17.301  0.00  0.00    +0.000 C 
ATOM     34  O   UNL     1      -2.593  11.493  19.398  0.00  0.00    +0.000 OA
ATOM     35  O   UNL     1      -0.597  12.491  18.191  0.00  0.00    +0.000 OA
ENDBRANCH   5  32
TORSDOF 7
ENDMDL
MODEL 4
REMARK VINA RESULT:      -8.4      2.748      9.592
REMARK  Name = 
REMARK  11 active torsions:
REMARK  status: ('A' for Active; 'I' for Inactive)
REMARK    1  A    between atoms: C_1  and  C_2
REMARK    2  A    between atoms: C_2  and  C_3
REMARK    3  A    between atoms: C_2  and  N_4
REMARK    4  A    between atoms: N_4  and  C_5
REMARK    5  A    between atoms: C_7  and  C_8
REMARK    6  A    between atoms: C_11  and  N_12
REMARK    7  A    between atoms: C_15  and  C_16
REMARK    8  A    between atoms: C_16  and  O_17
REMARK    9  A    between atoms: C_19  and  S_20
REMARK   10  A    between atoms: S_20  and  C_21
REMARK   11  A    between atoms: N_29  and  C_30
REMARK                            x       y       z     vdW  Elec       q    Type
REMARK                         _______ _______ _______ _____ _____    ______ ____
ROOT
ATOM      1  C   UNL     1       1.340   8.774  19.901  0.00  0.00    +0.000 A 
ATOM      2  C   UNL     1       0.524   8.543  21.003  0.00  0.00    +0.000 A 
ATOM      3  C   UNL     1      -0.303   9.554  21.517  0.00  0.00    +0.000 A 
ATOM      4  C   UNL     1      -0.380  10.863  20.981  0.00  0.00    +0.000 A 
ATOM      5  C   UNL     1       0.506  11.113  19.912  0.00  0.00    +0.000 A 
ATOM      6  C   UNL     1       1.337  10.083  19.398  0.00  0.00    +0.000 A 
ENDROOT
BRANCH   1   9
ATOM      7  C   UNL     1       2.807   5.444  19.410  0.00  0.00    +0.000 A 
ATOM      8  N   UNL     1       2.082   6.487  19.891  0.00  0.00    +0.000 NA
ATOM      9  C   UNL     1       2.162   7.701  19.298  0.00  0.00    +0.000 A 
ATOM     10  C   UNL     1       2.961   7.906  18.178  0.00  0.00    +0.000 A 
ATOM     11  C   UNL     1       3.708   6.848  17.668  0.00  0.00    +0.000 A 
ATOM     12  N   UNL     1       4.489   7.091  16.526  0.00  0.00    +0.000 NA
ATOM     13  C   UNL     1       5.153   6.097  16.033  0.00  0.00    +0.000 A 
ATOM     14  N   UNL     1       5.158   4.830  16.555  0.00  0.00    +0.000 N 
ATOM     15  C   UNL     1       5.905   3.775  15.902  0.00  0.00    +0.000 C 
ATOM     16  C   UNL     1       4.401   4.503  17.677  0.00  0.00    +0.000 A 
ATOM     17  O   UNL     1       4.322   3.358  18.117  0.00  0.00    +0.000 OA
ATOM     18  C   UNL     1       3.638   5.611  18.297  0.00  0.00    +0.000 A 
BRANCH   7  19
ATOM     19  N   UNL     1       2.780   4.239  20.129  0.00  0.00    +0.000 N 
ATOM     20  H   UNL     1       3.388   3.558  19.664  0.00  0.00    +0.000 HD
BRANCH  19  22
ATOM     21  C   UNL     1       0.934   2.923  19.255  0.00  0.00    +0.000 C 
ATOM     22  C   UNL     1       1.464   3.689  20.471  0.00  0.00    +0.000 C 
ATOM     23  C   UNL     1       1.557   2.735  21.662  0.00  0.00    +0.000 C 
ENDBRANCH  19  22
ENDBRANCH   7  19
ENDBRANCH   1   9
BRANCH   4  24
ATOM     24  N   UNL     1      -1.266  11.734  21.582  0.00  0.00    +0.000 N 
ATOM     25  C   UNL     1      -1.077  12.456  22.834  0.00  0.00    +0.000 C 
ATOM     26  C   UNL     1      -2.503  12.783  23.252  0.00  0.00    +0.000 C 
ATOM     27  C   UNL     1      -3.211  13.092  21.931  0.00  0.00    +0.000 C 
ATOM     28  C   UNL     1      -2.439  12.276  20.878  0.00  0.00    +0.000 C 
BRANCH  27  29
ATOM     29  C   UNL     1      -3.224  14.581  21.586  0.00  0.00    +0.000 C 
BRANCH  29  30
ATOM     30  O   UNL     1      -2.395  14.849  20.461  0.00  0.00    +0.000 OA
ATOM     31  H   UNL     1      -2.821  15.546  19.934  0.00  0.00    +0.000 HD
ENDBRANCH  29  30
ENDBRANCH  27  29
ENDBRANCH   4  24
BRANCH   5  32
ATOM     32  S   UNL     1       0.590  12.686  19.061  0.00  0.00    +0.000 S 
ATOM     33  C   UNL     1       2.130  12.765  18.194  0.00  0.00    +0.000 C 
ATOM     34  O   UNL     1      -0.440  12.687  18.037  0.00  0.00    +0.000 OA
ATOM     35  O   UNL     1       0.671  13.732  20.066  0.00  0.00    +0.000 OA
ENDBRANCH   5  32
TORSDOF 7
ENDMDL
MODEL 5
REMARK VINA RESULT:      -8.4      2.434      9.626
REMARK  Name = 
REMARK  11 active torsions:
REMARK  status: ('A' for Active; 'I' for Inactive)
REMARK    1  A    between atoms: C_1  and  C_2
REMARK    2  A    between atoms: C_2  and  C_3
REMARK    3  A    between atoms: C_2  and  N_4
REMARK    4  A    between atoms: N_4  and  C_5
REMARK    5  A    between atoms: C_7  and  C_8
REMARK    6  A    between atoms: C_11  and  N_12
REMARK    7  A    between atoms: C_15  and  C_16
REMARK    8  A    between atoms: C_16  and  O_17
REMARK    9  A    between atoms: C_19  and  S_20
REMARK   10  A    between atoms: S_20  and  C_21
REMARK   11  A    between atoms: N_29  and  C_30
REMARK                            x       y       z     vdW  Elec       q    Type
REMARK                         _______ _______ _______ _____ _____    ______ ____
ROOT
ATOM      1  C   UNL     1       1.409   8.779  20.105  0.00  0.00    +0.000 A 
ATOM      2  C   UNL     1       1.486   9.023  21.472  0.00  0.00    +0.000 A 
ATOM      3  C   UNL     1       0.699  10.016  22.077  0.00  0.00    +0.000 A 
ATOM      4  C   UNL     1      -0.217  10.837  21.373  0.00  0.00    +0.000 A 
ATOM      5  C   UNL     1      -0.234  10.637  19.976  0.00  0.00    +0.000 A 
ATOM      6  C   UNL     1       0.565   9.629  19.376  0.00  0.00    +0.000 A 
ENDROOT
BRANCH   1   9
ATOM      7  C   UNL     1       2.737   5.407  19.517  0.00  0.00    +0.000 A 
ATOM      8  N   UNL     1       2.065   6.467  20.036  0.00  0.00    +0.000 NA
ATOM      9  C   UNL     1       2.175   7.688  19.462  0.00  0.00    +0.000 A 
ATOM     10  C   UNL     1       2.951   7.884  18.324  0.00  0.00    +0.000 A 
ATOM     11  C   UNL     1       3.644   6.809  17.776  0.00  0.00    +0.000 A 
ATOM     12  N   UNL     1       4.403   7.043  16.617  0.00  0.00    +0.000 NA
ATOM     13  C   UNL     1       5.016   6.036  16.089  0.00  0.00    +0.000 A 
ATOM     14  N   UNL     1       4.987   4.760  16.588  0.00  0.00    +0.000 N 
ATOM     15  C   UNL     1       5.677   3.690  15.897  0.00  0.00    +0.000 C 
ATOM     16  C   UNL     1       4.249   4.440  17.725  0.00  0.00    +0.000 A 
ATOM     17  O   UNL     1       4.139   3.291  18.147  0.00  0.00    +0.000 OA
ATOM     18  C   UNL     1       3.544   5.564  18.384  0.00  0.00    +0.000 A 
BRANCH   7  19
ATOM     19  N   UNL     1       2.685   4.191  20.215  0.00  0.00    +0.000 N 
ATOM     20  H   UNL     1       3.292   3.510  19.748  0.00  0.00    +0.000 HD
BRANCH  19  22
ATOM     21  C   UNL     1       0.824   2.938  19.282  0.00  0.00    +0.000 C 
ATOM     22  C   UNL     1       1.358   3.651  20.529  0.00  0.00    +0.000 C 
ATOM     23  C   UNL     1       1.426   2.655  21.685  0.00  0.00    +0.000 C 
ENDBRANCH  19  22
ENDBRANCH   7  19
ENDBRANCH   1   9
BRANCH   4  24
ATOM     24  N   UNL     1      -0.940  11.747  22.117  0.00  0.00    +0.000 N 
ATOM     25  C   UNL     1      -0.874  13.201  22.036  0.00  0.00    +0.000 C 
ATOM     26  C   UNL     1      -1.422  13.639  23.385  0.00  0.00    +0.000 C 
ATOM     27  C   UNL     1      -2.535  12.630  23.675  0.00  0.00    +0.000 C 
ATOM     28  C   UNL     1      -2.108  11.356  22.922  0.00  0.00    +0.000 C 
BRANCH  27  29
ATOM     29  C   UNL     1      -3.916  13.108  23.227  0.00  0.00    +0.000 C 
BRANCH  29  30
ATOM     30  O   UNL     1      -4.361  12.381  22.087  0.00  0.00    +0.000 OA
ATOM     31  H   UNL     1      -3.586  11.964  21.675  0.00  0.00    +0.000 HD
ENDBRANCH  29  30
ENDBRANCH  27  29
ENDBRANCH   4  24
BRANCH   5  32
ATOM     32  S   UNL     1      -1.312  11.545  18.873  0.00  0.00    +0.000 S 
ATOM     33  C   UNL     1      -1.658  10.522  17.471  0.00  0.00    +0.000 C 
ATOM     34  O   UNL     1      -2.582  11.727  19.551  0.00  0.00    +0.000 OA
ATOM     35  O   UNL     1      -0.561  12.668  18.341  0.00  0.00    +0.000 OA
ENDBRANCH   5  32
TORSDOF 7
ENDMDL
MODEL 6
REMARK VINA RESULT:      -8.3      0.985      1.069
REMARK  Name = 
REMARK  11 active torsions:
REMARK  status: ('A' for Active; 'I' for Inactive)
REMARK    1  A    between atoms: C_1  and  C_2
REMARK    2  A    between atoms: C_2  and  C_3
REMARK    3  A    between atoms: C_2  and  N_4
REMARK    4  A    between atoms: N_4  and  C_5
REMARK    5  A    between atoms: C_7  and  C_8
REMARK    6  A    between atoms: C_11  and  N_12
REMARK    7  A    between atoms: C_15  and  C_16
REMARK    8  A    between atoms: C_16  and  O_17
REMARK    9  A    between atoms: C_19  and  S_20
REMARK   10  A    between atoms: S_20  and  C_21
REMARK   11  A    between atoms: N_29  and  C_30
REMARK                            x       y       z     vdW  Elec       q    Type
REMARK                         _______ _______ _______ _____ _____    ______ ____
ROOT
ATOM      1  C   UNL     1       1.688   8.473  19.124  0.00  0.00    +0.000 A 
ATOM      2  C   UNL     1       2.528   8.697  18.040  0.00  0.00    +0.000 A 
ATOM      3  C   UNL     1       3.384   7.690  17.565  0.00  0.00    +0.000 A 
ATOM      4  C   UNL     1       3.470   6.394  18.131  0.00  0.00    +0.000 A 
ATOM      5  C   UNL     1       2.671   6.198  19.277  0.00  0.00    +0.000 A 
ATOM      6  C   UNL     1       1.808   7.222  19.747  0.00  0.00    +0.000 A 
ENDROOT
BRANCH   1   9
ATOM      7  C   UNL     1      -1.087  10.875  19.014  0.00  0.00    +0.000 A 
ATOM      8  N   UNL     1      -0.170   9.933  18.675  0.00  0.00    +0.000 NA
ATOM      9  C   UNL     1       0.726   9.496  19.592  0.00  0.00    +0.000 A 
ATOM     10  C   UNL     1       0.716   9.977  20.897  0.00  0.00    +0.000 A 
ATOM     11  C   UNL     1      -0.220  10.941  21.263  0.00  0.00    +0.000 A 
ATOM     12  N   UNL     1      -0.209  11.389  22.595  0.00  0.00    +0.000 NA
ATOM     13  C   UNL     1      -1.101  12.257  22.942  0.00  0.00    +0.000 A 
ATOM     14  N   UNL     1      -2.048  12.778  22.098  0.00  0.00    +0.000 N 
ATOM     15  C   UNL     1      -3.032  13.716  22.596  0.00  0.00    +0.000 C 
ATOM     16  C   UNL     1      -2.135  12.377  20.767  0.00  0.00    +0.000 A 
ATOM     17  O   UNL     1      -3.023  12.765  20.011  0.00  0.00    +0.000 OA
ATOM     18  C   UNL     1      -1.120  11.400  20.310  0.00  0.00    +0.000 A 
BRANCH   7  19
ATOM     19  N   UNL     1      -1.915  11.379  17.999  0.00  0.00    +0.000 N 
ATOM     20  H   UNL     1      -2.392  12.219  18.342  0.00  0.00    +0.000 HD
BRANCH  19  22
ATOM     21  C   UNL     1      -4.262  10.897  17.595  0.00  0.00    +0.000 C 
ATOM     22  C   UNL     1      -2.824  10.435  17.340  0.00  0.00    +0.000 C 
ATOM     23  C   UNL     1      -2.573  10.386  15.834  0.00  0.00    +0.000 C 
ENDBRANCH  19  22
ENDBRANCH   7  19
ENDBRANCH   1   9
BRANCH   4  24
ATOM     24  N   UNL     1       4.339   5.506  17.529  0.00  0.00    +0.000 N 
ATOM     25  C   UNL     1       4.013   4.503  16.521  0.00  0.00    +0.000 C 
ATOM     26  C   UNL     1       5.162   3.514  16.648  0.00  0.00    +0.000 C 
ATOM     27  C   UNL     1       6.379   4.397  16.929  0.00  0.00    +0.000 C 
ATOM     28  C   UNL     1       5.800   5.643  17.627  0.00  0.00    +0.000 C 
BRANCH  27  29
ATOM     29  C   UNL     1       7.157   4.773  15.669  0.00  0.00    +0.000 C 
BRANCH  29  30
ATOM     30  O   UNL     1       7.621   6.117  15.740  0.00  0.00    +0.000 OA
ATOM     31  H   UNL     1       7.589   6.493  14.844  0.00  0.00    +0.000 HD
ENDBRANCH  29  30
ENDBRANCH  27  29
ENDBRANCH   4  24
BRANCH   5  32
ATOM     32  S   UNL     1       2.600   4.644  20.163  0.00  0.00    +0.000 S 
ATOM     33  C   UNL     1       1.407   3.607  19.367  0.00  0.00    +0.000 C 
ATOM     34  O   UNL     1       3.879   3.980  19.988  0.00  0.00    +0.000 OA
ATOM     35  O   UNL     1       2.048   4.907  21.480  0.00  0.00    +0.000 OA
ENDBRANCH   5  32
TORSDOF 7
ENDMDL
MODEL 7
REMARK VINA RESULT:      -7.9      2.719      9.832
REMARK  Name = 
REMARK  11 active torsions:
REMARK  status: ('A' for Active; 'I' for Inactive)
REMARK    1  A    between atoms: C_1  and  C_2
REMARK    2  A    between atoms: C_2  and  C_3
REMARK    3  A    between atoms: C_2  and  N_4
REMARK    4  A    between atoms: N_4  and  C_5
REMARK    5  A    between atoms: C_7  and  C_8
REMARK    6  A    between atoms: C_11  and  N_12
REMARK    7  A    between atoms: C_15  and  C_16
REMARK    8  A    between atoms: C_16  and  O_17
REMARK    9  A    between atoms: C_19  and  S_20
REMARK   10  A    between atoms: S_20  and  C_21
REMARK   11  A    between atoms: N_29  and  C_30
REMARK                            x       y       z     vdW  Elec       q    Type
REMARK                         _______ _______ _______ _____ _____    ______ ____
ROOT
ATOM      1  C   UNL     1       0.977   9.135  20.504  0.00  0.00    +0.000 A 
ATOM      2  C   UNL     1       0.851   9.265  21.882  0.00  0.00    +0.000 A 
ATOM      3  C   UNL     1       0.016  10.243  22.444  0.00  0.00    +0.000 A 
ATOM      4  C   UNL     1      -0.750  11.162  21.684  0.00  0.00    +0.000 A 
ATOM      5  C   UNL     1      -0.558  11.075  20.289  0.00  0.00    +0.000 A 
ATOM      6  C   UNL     1       0.288  10.081  19.731  0.00  0.00    +0.000 A 
ENDROOT
BRANCH   1   9
ATOM      7  C   UNL     1       2.541   5.842  20.066  0.00  0.00    +0.000 A 
ATOM      8  N   UNL     1       1.814   6.881  20.552  0.00  0.00    +0.000 NA
ATOM      9  C   UNL     1       1.793   8.063  19.891  0.00  0.00    +0.000 A 
ATOM     10  C   UNL     1       2.490   8.236  18.699  0.00  0.00    +0.000 A 
ATOM     11  C   UNL     1       3.238   7.180  18.185  0.00  0.00    +0.000 A 
ATOM     12  N   UNL     1       3.912   7.389  16.971  0.00  0.00    +0.000 NA
ATOM     13  C   UNL     1       4.576   6.397  16.477  0.00  0.00    +0.000 A 
ATOM     14  N   UNL     1       4.677   5.161  17.061  0.00  0.00    +0.000 N 
ATOM     15  C   UNL     1       5.414   4.101  16.405  0.00  0.00    +0.000 C 
ATOM     16  C   UNL     1       4.028   4.868  18.259  0.00  0.00    +0.000 A 
ATOM     17  O   UNL     1       4.034   3.747  18.763  0.00  0.00    +0.000 OA
ATOM     18  C   UNL     1       3.271   5.978  18.881  0.00  0.00    +0.000 A 
BRANCH   7  19
ATOM     19  N   UNL     1       2.624   4.678  20.846  0.00  0.00    +0.000 N 
ATOM     20  H   UNL     1       3.404   4.104  20.511  0.00  0.00    +0.000 HD
BRANCH  19  22
ATOM     21  C   UNL     1       0.801   3.593  19.662  0.00  0.00    +0.000 C 
ATOM     22  C   UNL     1       1.391   3.908  21.041  0.00  0.00    +0.000 C 
ATOM     23  C   UNL     1       1.667   2.599  21.779  0.00  0.00    +0.000 C 
ENDBRANCH  19  22
ENDBRANCH   7  19
ENDBRANCH   1   9
BRANCH   4  24
ATOM     24  N   UNL     1      -1.546  12.044  22.386  0.00  0.00    +0.000 N 
ATOM     25  C   UNL     1      -2.658  11.712  23.270  0.00  0.00    +0.000 C 
ATOM     26  C   UNL     1      -3.460  13.004  23.301  0.00  0.00    +0.000 C 
ATOM     27  C   UNL     1      -2.392  14.100  23.284  0.00  0.00    +0.000 C 
ATOM     28  C   UNL     1      -1.194  13.462  22.556  0.00  0.00    +0.000 C 
BRANCH  27  29
ATOM     29  C   UNL     1      -2.004  14.588  24.679  0.00  0.00    +0.000 C 
BRANCH  29  30
ATOM     30  O   UNL     1      -3.144  14.658  25.529  0.00  0.00    +0.000 OA
ATOM     31  H   UNL     1      -2.831  14.687  26.449  0.00  0.00    +0.000 HD
ENDBRANCH  29  30
ENDBRANCH  27  29
ENDBRANCH   4  24
BRANCH   5  32
ATOM     32  S   UNL     1      -1.418  12.121  19.118  0.00  0.00    +0.000 S 
ATOM     33  C   UNL     1      -3.117  12.213  19.604  0.00  0.00    +0.000 C 
ATOM     34  O   UNL     1      -0.893  13.466  19.262  0.00  0.00    +0.000 OA
ATOM     35  O   UNL     1      -1.431  11.438  17.837  0.00  0.00    +0.000 OA
ENDBRANCH   5  32
TORSDOF 7
ENDMDL
MODEL 8
REMARK VINA RESULT:      -7.9      1.520      1.895
REMARK  Name = 
REMARK  11 active torsions:
REMARK  status: ('A' for Active; 'I' for Inactive)
REMARK    1  A    between atoms: C_1  and  C_2
REMARK    2  A    between atoms: C_2  and  C_3
REMARK    3  A    between atoms: C_2  and  N_4
REMARK    4  A    between atoms: N_4  and  C_5
REMARK    5  A    between atoms: C_7  and  C_8
REMARK    6  A    between atoms: C_11  and  N_12
REMARK    7  A    between atoms: C_15  and  C_16
REMARK    8  A    between atoms: C_16  and  O_17
REMARK    9  A    between atoms: C_19  and  S_20
REMARK   10  A    between atoms: S_20  and  C_21
REMARK   11  A    between atoms: N_29  and  C_30
REMARK                            x       y       z     vdW  Elec       q    Type
REMARK                         _______ _______ _______ _____ _____    ______ ____
ROOT
ATOM      1  C   UNL     1       2.193   8.084  19.067  0.00  0.00    +0.000 A 
ATOM      2  C   UNL     1       2.969   8.419  17.963  0.00  0.00    +0.000 A 
ATOM      3  C   UNL     1       3.761   7.458  17.315  0.00  0.00    +0.000 A 
ATOM      4  C   UNL     1       3.844   6.101  17.714  0.00  0.00    +0.000 A 
ATOM      5  C   UNL     1       3.115   5.785  18.881  0.00  0.00    +0.000 A 
ATOM      6  C   UNL     1       2.316   6.764  19.527  0.00  0.00    +0.000 A 
ENDROOT
BRANCH   1   9
ATOM      7  C   UNL     1       0.164  11.112  19.504  0.00  0.00    +0.000 A 
ATOM      8  N   UNL     1       0.978  10.157  18.985  0.00  0.00    +0.000 NA
ATOM      9  C   UNL     1       1.295   9.063  19.718  0.00  0.00    +0.000 A 
ATOM     10  C   UNL     1       0.783   8.879  20.999  0.00  0.00    +0.000 A 
ATOM     11  C   UNL     1      -0.056   9.846  21.545  0.00  0.00    +0.000 A 
ATOM     12  N   UNL     1      -0.566   9.615  22.834  0.00  0.00    +0.000 NA
ATOM     13  C   UNL     1      -1.373  10.497  23.325  0.00  0.00    +0.000 A 
ATOM     14  N   UNL     1      -1.755  11.645  22.681  0.00  0.00    +0.000 N 
ATOM     15  C   UNL     1      -2.699  12.551  23.302  0.00  0.00    +0.000 C 
ATOM     16  C   UNL     1      -1.305  11.942  21.397  0.00  0.00    +0.000 A 
ATOM     17  O   UNL     1      -1.695  12.922  20.764  0.00  0.00    +0.000 OA
ATOM     18  C   UNL     1      -0.358  10.976  20.795  0.00  0.00    +0.000 A 
BRANCH   7  19
ATOM     19  N   UNL     1      -0.040  12.279  18.752  0.00  0.00    +0.000 N 
ATOM     20  H   UNL     1      -0.141  12.028  17.764  0.00  0.00    +0.000 HD
BRANCH  19  22
ATOM     21  C   UNL     1       2.099  13.187  18.044  0.00  0.00    +0.000 C 
ATOM     22  C   UNL     1       0.893  13.390  18.967  0.00  0.00    +0.000 C 
ATOM     23  C   UNL     1       0.237  14.732  18.647  0.00  0.00    +0.000 C 
ENDBRANCH  19  22
ENDBRANCH   7  19
ENDBRANCH   1   9
BRANCH   4  24
ATOM     24  N   UNL     1       4.644   5.273  16.953  0.00  0.00    +0.000 N 
ATOM     25  C   UNL     1       4.238   4.065  16.245  0.00  0.00    +0.000 C 
ATOM     26  C   UNL     1       5.551   3.317  16.075  0.00  0.00    +0.000 C 
ATOM     27  C   UNL     1       6.573   4.424  15.810  0.00  0.00    +0.000 C 
ATOM     28  C   UNL     1       5.994   5.663  16.518  0.00  0.00    +0.000 C 
BRANCH  27  29
ATOM     29  C   UNL     1       6.807   4.688  14.323  0.00  0.00    +0.000 C 
BRANCH  29  30
ATOM     30  O   UNL     1       7.877   5.605  14.131  0.00  0.00    +0.000 OA
ATOM     31  H   UNL     1       7.674   6.414  14.631  0.00  0.00    +0.000 HD
ENDBRANCH  29  30
ENDBRANCH  27  29
ENDBRANCH   4  24
BRANCH   5  32
ATOM     32  S   UNL     1       3.054   4.137  19.577  0.00  0.00    +0.000 S 
ATOM     33  C   UNL     1       2.384   4.252  21.211  0.00  0.00    +0.000 C 
ATOM     34  O   UNL     1       2.090   3.371  18.809  0.00  0.00    +0.000 OA
ATOM     35  O   UNL     1       4.420   3.682  19.763  0.00  0.00    +0.000 OA
ENDBRANCH   5  32
TORSDOF 7
ENDMDL
MODEL 9
REMARK VINA RESULT:      -7.8      1.554      2.005
REMARK  Name = 
REMARK  11 active torsions:
REMARK  status: ('A' for Active; 'I' for Inactive)
REMARK    1  A    between atoms: C_1  and  C_2
REMARK    2  A    between atoms: C_2  and  C_3
REMARK    3  A    between atoms: C_2  and  N_4
REMARK    4  A    between atoms: N_4  and  C_5
REMARK    5  A    between atoms: C_7  and  C_8
REMARK    6  A    between atoms: C_11  and  N_12
REMARK    7  A    between atoms: C_15  and  C_16
REMARK    8  A    between atoms: C_16  and  O_17
REMARK    9  A    between atoms: C_19  and  S_20
REMARK   10  A    between atoms: S_20  and  C_21
REMARK   11  A    between atoms: N_29  and  C_30
REMARK                            x       y       z     vdW  Elec       q    Type
REMARK                         _______ _______ _______ _____ _____    ______ ____
ROOT
ATOM      1  C   UNL     1       2.040   8.218  19.123  0.00  0.00    +0.000 A 
ATOM      2  C   UNL     1       2.746   8.510  17.962  0.00  0.00    +0.000 A 
ATOM      3  C   UNL     1       3.557   7.546  17.344  0.00  0.00    +0.000 A 
ATOM      4  C   UNL     1       3.730   6.227  17.833  0.00  0.00    +0.000 A 
ATOM      5  C   UNL     1       3.073   5.960  19.053  0.00  0.00    +0.000 A 
ATOM      6  C   UNL     1       2.253   6.943  19.668  0.00  0.00    +0.000 A 
ENDROOT
BRANCH   1   9
ATOM      7  C   UNL     1      -0.108  11.177  19.453  0.00  0.00    +0.000 A 
ATOM      8  N   UNL     1       0.730  10.228  18.963  0.00  0.00    +0.000 NA
ATOM      9  C   UNL     1       1.121   9.196  19.747  0.00  0.00    +0.000 A 
ATOM     10  C   UNL     1       0.663   9.069  21.055  0.00  0.00    +0.000 A 
ATOM     11  C   UNL     1      -0.199  10.031  21.574  0.00  0.00    +0.000 A 
ATOM     12  N   UNL     1      -0.653   9.858  22.892  0.00  0.00    +0.000 NA
ATOM     13  C   UNL     1      -1.482  10.733  23.359  0.00  0.00    +0.000 A 
ATOM     14  N   UNL     1      -1.938  11.822  22.662  0.00  0.00    +0.000 N 
ATOM     15  C   UNL     1      -2.900  12.722  23.263  0.00  0.00    +0.000 C 
ATOM     16  C   UNL     1      -1.547  12.058  21.346  0.00  0.00    +0.000 A 
ATOM     17  O   UNL     1      -2.002  12.980  20.671  0.00  0.00    +0.000 OA
ATOM     18  C   UNL     1      -0.578  11.098  20.769  0.00  0.00    +0.000 A 
BRANCH   7  19
ATOM     19  N   UNL     1      -0.391  12.286  18.641  0.00  0.00    +0.000 N 
ATOM     20  H   UNL     1      -0.772  11.959  17.748  0.00  0.00    +0.000 HD
BRANCH  19  22
ATOM     21  C   UNL     1       0.027  14.678  18.558  0.00  0.00    +0.000 C 
ATOM     22  C   UNL     1       0.667  13.288  18.478  0.00  0.00    +0.000 C 
ATOM     23  C   UNL     1       1.723  13.160  19.575  0.00  0.00    +0.000 C 
ENDBRANCH  19  22
ENDBRANCH   7  19
ENDBRANCH   1   9
BRANCH   4  24
ATOM     24  N   UNL     1       4.538   5.387  17.093  0.00  0.00    +0.000 N 
ATOM     25  C   UNL     1       4.122   4.222  16.322  0.00  0.00    +0.000 C 
ATOM     26  C   UNL     1       5.410   3.420  16.205  0.00  0.00    +0.000 C 
ATOM     27  C   UNL     1       6.494   4.486  16.039  0.00  0.00    +0.000 C 
ATOM     28  C   UNL     1       5.928   5.728  16.753  0.00  0.00    +0.000 C 
BRANCH  27  29
ATOM     29  C   UNL     1       6.829   4.784  14.578  0.00  0.00    +0.000 C 
BRANCH  29  30
ATOM     30  O   UNL     1       7.969   5.632  14.481  0.00  0.00    +0.000 OA
ATOM     31  H   UNL     1       7.668   6.551  14.574  0.00  0.00    +0.000 HD
ENDBRANCH  29  30
ENDBRANCH  27  29
ENDBRANCH   4  24
BRANCH   5  32
ATOM     32  S   UNL     1       3.131   4.366  19.865  0.00  0.00    +0.000 S 
ATOM     33  C   UNL     1       2.062   3.260  18.991  0.00  0.00    +0.000 C 
ATOM     34  O   UNL     1       4.471   3.836  19.695  0.00  0.00    +0.000 OA
ATOM     35  O   UNL     1       2.527   4.513  21.177  0.00  0.00    +0.000 OA
ENDBRANCH   5  32
TORSDOF 7
ENDMDL
