MODEL 1
REMARK VINA RESULT:      -8.4      0.000      0.000
REMARK  Name = 
REMARK  10 active torsions:
REMARK  status: ('A' for Active; 'I' for Inactive)
REMARK    1  A    between atoms: C_1  and  C_2
REMARK    2  A    between atoms: C_2  and  O_3
REMARK    3  A    between atoms: O_3  and  C_4
REMARK    4  A    between atoms: C_4  and  C_6
REMARK    5  A    between atoms: C_6  and  C_7
REMARK    6  A    between atoms: C_7  and  C_8
REMARK    7  A    between atoms: C_8  and  O_9
REMARK    8  A    between atoms: O_9  and  C_10
REMARK    9  A    between atoms: N_18  and  C_19
REMARK   10  A    between atoms: C_19  and  C_20
REMARK                            x       y       z     vdW  Elec       q    Type
REMARK                         _______ _______ _______ _____ _____    ______ ____
ROOT
ATOM      1  C   UNL     1       7.017   6.436  17.916  0.00  0.00    +0.000 C 
ATOM      2  C   UNL     1       6.243   5.740  19.060  0.00  0.00    +0.000 C 
ATOM      3  C   UNL     1       4.884   5.200  18.597  0.00  0.00    +0.000 C 
ATOM      4  N   UNL     1       4.040   6.263  18.026  0.00  0.00    +0.000 NA
ATOM      5  C   UNL     1       4.706   6.896  16.882  0.00  0.00    +0.000 C 
ATOM      6  C   UNL     1       6.069   7.474  17.272  0.00  0.00    +0.000 C 
ENDROOT
BRANCH   1   7
ATOM      7  C   UNL     1       7.448   5.386  16.875  0.00  0.00    +0.000 C 
ATOM      8  O   UNL     1       7.953   4.307  17.150  0.00  0.00    +0.000 OA
BRANCH   7   9
ATOM      9  O   UNL     1       7.213   5.822  15.605  0.00  0.00    +0.000 OA
BRANCH   9  11
ATOM     10  C   UNL     1       5.610   4.111  14.910  0.00  0.00    +0.000 C 
ATOM     11  C   UNL     1       6.926   4.809  14.628  0.00  0.00    +0.000 C 
ENDBRANCH   9  11
ENDBRANCH   7   9
ENDBRANCH   1   7
BRANCH   1  12
ATOM     12  C   UNL     1       8.281   7.144  18.478  0.00  0.00    +0.000 C 
BRANCH  12  13
ATOM     13  C   UNL     1       8.321   8.647  18.177  0.00  0.00    +0.000 C 
BRANCH  13  14
ATOM     14  O   UNL     1       9.077   9.326  19.183  0.00  0.00    +0.000 OA
BRANCH  14  15
ATOM     15  C   UNL     1       9.343  10.641  18.888  0.00  0.00    +0.000 A 
ATOM     16  C   UNL     1      10.338  11.251  19.652  0.00  0.00    +0.000 A 
ATOM     17  C   UNL     1      10.676  12.590  19.434  0.00  0.00    +0.000 A 
ATOM     18  C   UNL     1      10.031  13.320  18.438  0.00  0.00    +0.000 A 
ATOM     19  C   UNL     1       9.050  12.710  17.659  0.00  0.00    +0.000 A 
ATOM     20  C   UNL     1       8.710  11.375  17.878  0.00  0.00    +0.000 A 
ENDBRANCH  14  15
ENDBRANCH  13  14
ENDBRANCH  12  13
ENDBRANCH   1  12
BRANCH   4  21
ATOM     21  C   UNL     1       2.735   5.689  17.633  0.00  0.00    +0.000 C 
BRANCH  21  22
ATOM     22  C   UNL     1       2.399   4.361  18.285  0.00  0.00    +0.000 A 
ATOM     23  C   UNL     1       2.701   3.152  17.634  0.00  0.00    +0.000 A 
ATOM     24  C   UNL     1       2.421   1.923  18.240  0.00  0.00    +0.000 A 
ATOM     25  C   UNL     1       1.833   1.887  19.501  0.00  0.00    +0.000 A 
ATOM     26  C   UNL     1       1.528   3.082  20.145  0.00  0.00    +0.000 A 
ATOM     27  F   UNL     1       0.964   3.047  21.360  0.00  0.00    +0.000 F 
ATOM     28  C   UNL     1       1.804   4.312  19.553  0.00  0.00    +0.000 A 
ENDBRANCH  21  22
ENDBRANCH   4  21
TORSDOF 9
ENDMDL
MODEL 2
REMARK VINA RESULT:      -8.2      0.875      1.275
REMARK  Name = 
REMARK  10 active torsions:
REMARK  status: ('A' for Active; 'I' for Inactive)
REMARK    1  A    between atoms: C_1  and  C_2
REMARK    2  A    between atoms: C_2  and  O_3
REMARK    3  A    between atoms: O_3  and  C_4
REMARK    4  A    between atoms: C_4  and  C_6
REMARK    5  A    between atoms: C_6  and  C_7
REMARK    6  A    between atoms: C_7  and  C_8
REMARK    7  A    between atoms: C_8  and  O_9
REMARK    8  A    between atoms: O_9  and  C_10
REMARK    9  A    between atoms: N_18  and  C_19
REMARK   10  A    between atoms: C_19  and  C_20
REMARK                            x       y       z     vdW  Elec       q    Type
REMARK                         _______ _______ _______ _____ _____    ______ ____
ROOT
ATOM      1  C   UNL     1       6.918   6.372  17.719  0.00  0.00    +0.000 C 
ATOM      2  C   UNL     1       6.314   5.609  18.922  0.00  0.00    +0.000 C 
ATOM      3  C   UNL     1       5.032   4.855  18.546  0.00  0.00    +0.000 C 
ATOM      4  N   UNL     1       4.010   5.758  17.991  0.00  0.00    +0.000 NA
ATOM      5  C   UNL     1       4.517   6.442  16.795  0.00  0.00    +0.000 C 
ATOM      6  C   UNL     1       5.794   7.231  17.096  0.00  0.00    +0.000 C 
ENDROOT
BRANCH   1   7
ATOM      7  C   UNL     1       7.452   5.360  16.687  0.00  0.00    +0.000 C 
ATOM      8  O   UNL     1       7.987   4.298  16.972  0.00  0.00    +0.000 OA
BRANCH   7   9
ATOM      9  O   UNL     1       7.271   5.810  15.412  0.00  0.00    +0.000 OA
BRANCH   9  11
ATOM     10  C   UNL     1       5.756   4.152  14.443  0.00  0.00    +0.000 C 
ATOM     11  C   UNL     1       7.124   4.803  14.398  0.00  0.00    +0.000 C 
ENDBRANCH   9  11
ENDBRANCH   7   9
ENDBRANCH   1   7
BRANCH   1  12
ATOM     12  C   UNL     1       8.086   7.280  18.192  0.00  0.00    +0.000 C 
BRANCH  12  13
ATOM     13  C   UNL     1       7.783   8.777  18.058  0.00  0.00    +0.000 C 
BRANCH  13  14
ATOM     14  O   UNL     1       8.962   9.478  17.653  0.00  0.00    +0.000 OA
BRANCH  14  15
ATOM     15  C   UNL     1       9.329  10.491  18.505  0.00  0.00    +0.000 A 
ATOM     16  C   UNL     1       9.681  11.701  17.905  0.00  0.00    +0.000 A 
ATOM     17  C   UNL     1      10.077  12.790  18.685  0.00  0.00    +0.000 A 
ATOM     18  C   UNL     1      10.106  12.679  20.074  0.00  0.00    +0.000 A 
ATOM     19  C   UNL     1       9.737  11.481  20.681  0.00  0.00    +0.000 A 
ATOM     20  C   UNL     1       9.345  10.392  19.902  0.00  0.00    +0.000 A 
ENDBRANCH  14  15
ENDBRANCH  13  14
ENDBRANCH  12  13
ENDBRANCH   1  12
BRANCH   4  21
ATOM     21  C   UNL     1       2.790   4.982  17.683  0.00  0.00    +0.000 C 
BRANCH  21  22
ATOM     22  C   UNL     1       2.257   4.148  18.834  0.00  0.00    +0.000 A 
ATOM     23  C   UNL     1       1.491   2.996  18.582  0.00  0.00    +0.000 A 
ATOM     24  C   UNL     1       1.020   2.204  19.634  0.00  0.00    +0.000 A 
ATOM     25  C   UNL     1       1.305   2.557  20.951  0.00  0.00    +0.000 A 
ATOM     26  C   UNL     1       2.057   3.700  21.203  0.00  0.00    +0.000 A 
ATOM     27  F   UNL     1       2.333   4.037  22.470  0.00  0.00    +0.000 F 
ATOM     28  C   UNL     1       2.533   4.494  20.163  0.00  0.00    +0.000 A 
ENDBRANCH  21  22
ENDBRANCH   4  21
TORSDOF 9
ENDMDL
MODEL 3
REMARK VINA RESULT:      -8.1      1.129      1.437
REMARK  Name = 
REMARK  10 active torsions:
REMARK  status: ('A' for Active; 'I' for Inactive)
REMARK    1  A    between atoms: C_1  and  C_2
REMARK    2  A    between atoms: C_2  and  O_3
REMARK    3  A    between atoms: O_3  and  C_4
REMARK    4  A    between atoms: C_4  and  C_6
REMARK    5  A    between atoms: C_6  and  C_7
REMARK    6  A    between atoms: C_7  and  C_8
REMARK    7  A    between atoms: C_8  and  O_9
REMARK    8  A    between atoms: O_9  and  C_10
REMARK    9  A    between atoms: N_18  and  C_19
REMARK   10  A    between atoms: C_19  and  C_20
REMARK                            x       y       z     vdW  Elec       q    Type
REMARK                         _______ _______ _______ _____ _____    ______ ____
ROOT
ATOM      1  C   UNL     1       7.070   6.476  17.877  0.00  0.00    +0.000 C 
ATOM      2  C   UNL     1       6.309   5.842  19.066  0.00  0.00    +0.000 C 
ATOM      3  C   UNL     1       4.979   5.211  18.634  0.00  0.00    +0.000 C 
ATOM      4  N   UNL     1       4.101   6.188  17.971  0.00  0.00    +0.000 NA
ATOM      5  C   UNL     1       4.756   6.754  16.785  0.00  0.00    +0.000 C 
ATOM      6  C   UNL     1       6.089   7.418  17.142  0.00  0.00    +0.000 C 
ENDROOT
BRANCH   1   7
ATOM      7  C   UNL     1       7.556   5.364  16.928  0.00  0.00    +0.000 C 
ATOM      8  O   UNL     1       8.016   4.292  17.297  0.00  0.00    +0.000 OA
BRANCH   7   9
ATOM      9  O   UNL     1       7.428   5.735  15.622  0.00  0.00    +0.000 OA
BRANCH   9  11
ATOM     10  C   UNL     1       5.763   4.001  15.175  0.00  0.00    +0.000 C 
ATOM     11  C   UNL     1       7.020   4.707  14.707  0.00  0.00    +0.000 C 
ENDBRANCH   9  11
ENDBRANCH   7   9
ENDBRANCH   1   7
BRANCH   1  12
ATOM     12  C   UNL     1       8.297   7.278  18.392  0.00  0.00    +0.000 C 
BRANCH  12  13
ATOM     13  C   UNL     1       8.273   8.755  17.982  0.00  0.00    +0.000 C 
BRANCH  13  14
ATOM     14  O   UNL     1       8.421   9.584  19.138  0.00  0.00    +0.000 OA
BRANCH  14  15
ATOM     15  C   UNL     1       9.450  10.490  19.046  0.00  0.00    +0.000 A 
ATOM     16  C   UNL     1       9.929  10.999  20.253  0.00  0.00    +0.000 A 
ATOM     17  C   UNL     1      10.968  11.933  20.265  0.00  0.00    +0.000 A 
ATOM     18  C   UNL     1      11.546  12.350  19.067  0.00  0.00    +0.000 A 
ATOM     19  C   UNL     1      11.086  11.830  17.860  0.00  0.00    +0.000 A 
ATOM     20  C   UNL     1      10.045  10.900  17.847  0.00  0.00    +0.000 A 
ENDBRANCH  14  15
ENDBRANCH  13  14
ENDBRANCH  12  13
ENDBRANCH   1  12
BRANCH   4  21
ATOM     21  C   UNL     1       2.826   5.531  17.612  0.00  0.00    +0.000 C 
BRANCH  21  22
ATOM     22  C   UNL     1       2.561   4.219  18.325  0.00  0.00    +0.000 A 
ATOM     23  C   UNL     1       1.568   4.138  19.319  0.00  0.00    +0.000 A 
ATOM     24  C   UNL     1       1.296   2.926  19.962  0.00  0.00    +0.000 A 
ATOM     25  C   UNL     1       2.014   1.782  19.624  0.00  0.00    +0.000 A 
ATOM     26  C   UNL     1       3.000   1.861  18.645  0.00  0.00    +0.000 A 
ATOM     27  F   UNL     1       3.690   0.761  18.319  0.00  0.00    +0.000 F 
ATOM     28  C   UNL     1       3.279   3.062  17.997  0.00  0.00    +0.000 A 
ENDBRANCH  21  22
ENDBRANCH   4  21
TORSDOF 9
ENDMDL
MODEL 4
REMARK VINA RESULT:      -8.1      2.208      6.613
REMARK  Name = 
REMARK  10 active torsions:
REMARK  status: ('A' for Active; 'I' for Inactive)
REMARK    1  A    between atoms: C_1  and  C_2
REMARK    2  A    between atoms: C_2  and  O_3
REMARK    3  A    between atoms: O_3  and  C_4
REMARK    4  A    between atoms: C_4  and  C_6
REMARK    5  A    between atoms: C_6  and  C_7
REMARK    6  A    between atoms: C_7  and  C_8
REMARK    7  A    between atoms: C_8  and  O_9
REMARK    8  A    between atoms: O_9  and  C_10
REMARK    9  A    between atoms: N_18  and  C_19
REMARK   10  A    between atoms: C_19  and  C_20
REMARK                            x       y       z     vdW  Elec       q    Type
REMARK                         _______ _______ _______ _____ _____    ______ ____
ROOT
ATOM      1  C   UNL     1       6.598   5.856  16.630  0.00  0.00    +0.000 C 
ATOM      2  C   UNL     1       5.366   6.676  16.178  0.00  0.00    +0.000 C 
ATOM      3  C   UNL     1       4.390   6.941  17.332  0.00  0.00    +0.000 C 
ATOM      4  N   UNL     1       3.929   5.690  17.956  0.00  0.00    +0.000 NA
ATOM      5  C   UNL     1       5.066   4.919  18.474  0.00  0.00    +0.000 C 
ATOM      6  C   UNL     1       6.081   4.602  17.371  0.00  0.00    +0.000 C 
ENDROOT
BRANCH   1   7
ATOM      7  C   UNL     1       7.466   6.713  17.571  0.00  0.00    +0.000 C 
ATOM      8  O   UNL     1       7.779   6.390  18.708  0.00  0.00    +0.000 OA
BRANCH   7   9
ATOM      9  O   UNL     1       7.825   7.888  16.981  0.00  0.00    +0.000 OA
BRANCH   9  11
ATOM     10  C   UNL     1       8.838   9.468  18.550  0.00  0.00    +0.000 C 
ATOM     11  C   UNL     1       7.607   9.079  17.754  0.00  0.00    +0.000 C 
ENDBRANCH   9  11
ENDBRANCH   7   9
ENDBRANCH   1   7
BRANCH   1  12
ATOM     12  C   UNL     1       7.444   5.437  15.397  0.00  0.00    +0.000 C 
BRANCH  12  13
ATOM     13  C   UNL     1       6.841   4.263  14.616  0.00  0.00    +0.000 C 
BRANCH  13  14
ATOM     14  O   UNL     1       6.987   4.486  13.211  0.00  0.00    +0.000 OA
BRANCH  14  15
ATOM     15  C   UNL     1       6.244   3.633  12.432  0.00  0.00    +0.000 A 
ATOM     16  C   UNL     1       6.921   2.524  11.921  0.00  0.00    +0.000 A 
ATOM     17  C   UNL     1       6.255   1.601  11.109  0.00  0.00    +0.000 A 
ATOM     18  C   UNL     1       4.903   1.775  10.819  0.00  0.00    +0.000 A 
ATOM     19  C   UNL     1       4.217   2.868  11.344  0.00  0.00    +0.000 A 
ATOM     20  C   UNL     1       4.882   3.791  12.151  0.00  0.00    +0.000 A 
ENDBRANCH  14  15
ENDBRANCH  13  14
ENDBRANCH  12  13
ENDBRANCH   1  12
BRANCH   4  21
ATOM     21  C   UNL     1       2.967   6.008  19.033  0.00  0.00    +0.000 C 
BRANCH  21  22
ATOM     22  C   UNL     1       2.300   4.804  19.669  0.00  0.00    +0.000 A 
ATOM     23  C   UNL     1       2.470   4.537  21.039  0.00  0.00    +0.000 A 
ATOM     24  C   UNL     1       1.836   3.446  21.642  0.00  0.00    +0.000 A 
ATOM     25  C   UNL     1       1.026   2.606  20.882  0.00  0.00    +0.000 A 
ATOM     26  C   UNL     1       0.860   2.864  19.524  0.00  0.00    +0.000 A 
ATOM     27  F   UNL     1       0.080   2.057  18.794  0.00  0.00    +0.000 F 
ATOM     28  C   UNL     1       1.486   3.949  18.914  0.00  0.00    +0.000 A 
ENDBRANCH  21  22
ENDBRANCH   4  21
TORSDOF 9
ENDMDL
MODEL 5
REMARK VINA RESULT:      -7.9      1.121      1.213
REMARK  Name = 
REMARK  10 active torsions:
REMARK  status: ('A' for Active; 'I' for Inactive)
REMARK    1  A    between atoms: C_1  and  C_2
REMARK    2  A    between atoms: C_2  and  O_3
REMARK    3  A    between atoms: O_3  and  C_4
REMARK    4  A    between atoms: C_4  and  C_6
REMARK    5  A    between atoms: C_6  and  C_7
REMARK    6  A    between atoms: C_7  and  C_8
REMARK    7  A    between atoms: C_8  and  O_9
REMARK    8  A    between atoms: O_9  and  C_10
REMARK    9  A    between atoms: N_18  and  C_19
REMARK   10  A    between atoms: C_19  and  C_20
REMARK                            x       y       z     vdW  Elec       q    Type
REMARK                         _______ _______ _______ _____ _____    ______ ____
ROOT
ATOM      1  C   UNL     1       6.214   5.948  17.777  0.00  0.00    +0.000 C 
ATOM      2  C   UNL     1       5.816   5.641  19.240  0.00  0.00    +0.000 C 
ATOM      3  C   UNL     1       4.313   5.374  19.390  0.00  0.00    +0.000 C 
ATOM      4  N   UNL     1       3.506   6.505  18.902  0.00  0.00    +0.000 NA
ATOM      5  C   UNL     1       3.794   6.775  17.488  0.00  0.00    +0.000 C 
ATOM      6  C   UNL     1       5.280   7.067  17.262  0.00  0.00    +0.000 C 
ENDROOT
BRANCH   1   7
ATOM      7  C   UNL     1       6.046   4.676  16.924  0.00  0.00    +0.000 C 
ATOM      8  O   UNL     1       5.118   3.887  17.033  0.00  0.00    +0.000 OA
BRANCH   7   9
ATOM      9  O   UNL     1       7.076   4.531  16.043  0.00  0.00    +0.000 OA
BRANCH   9  11
ATOM     10  C   UNL     1       6.174   3.822  13.883  0.00  0.00    +0.000 C 
ATOM     11  C   UNL     1       6.817   4.934  14.689  0.00  0.00    +0.000 C 
ENDBRANCH   9  11
ENDBRANCH   7   9
ENDBRANCH   1   7
BRANCH   1  12
ATOM     12  C   UNL     1       7.694   6.413  17.711  0.00  0.00    +0.000 C 
BRANCH  12  13
ATOM     13  C   UNL     1       7.849   7.936  17.613  0.00  0.00    +0.000 C 
BRANCH  13  14
ATOM     14  O   UNL     1       8.638   8.416  18.704  0.00  0.00    +0.000 OA
BRANCH  14  15
ATOM     15  C   UNL     1       8.829   9.777  18.697  0.00  0.00    +0.000 A 
ATOM     16  C   UNL     1       9.522  10.304  19.788  0.00  0.00    +0.000 A 
ATOM     17  C   UNL     1       9.759  11.678  19.878  0.00  0.00    +0.000 A 
ATOM     18  C   UNL     1       9.319  12.530  18.867  0.00  0.00    +0.000 A 
ATOM     19  C   UNL     1       8.644  12.008  17.766  0.00  0.00    +0.000 A 
ATOM     20  C   UNL     1       8.404  10.636  17.678  0.00  0.00    +0.000 A 
ENDBRANCH  14  15
ENDBRANCH  13  14
ENDBRANCH  12  13
ENDBRANCH   1  12
BRANCH   4  21
ATOM     21  C   UNL     1       2.073   6.203  19.105  0.00  0.00    +0.000 C 
BRANCH  21  22
ATOM     22  C   UNL     1       1.757   4.739  19.346  0.00  0.00    +0.000 A 
ATOM     23  C   UNL     1       1.695   3.838  18.269  0.00  0.00    +0.000 A 
ATOM     24  C   UNL     1       1.433   2.481  18.483  0.00  0.00    +0.000 A 
ATOM     25  C   UNL     1       1.225   2.008  19.777  0.00  0.00    +0.000 A 
ATOM     26  C   UNL     1       1.280   2.899  20.844  0.00  0.00    +0.000 A 
ATOM     27  F   UNL     1       1.083   2.445  22.088  0.00  0.00    +0.000 F 
ATOM     28  C   UNL     1       1.543   4.252  20.642  0.00  0.00    +0.000 A 
ENDBRANCH  21  22
ENDBRANCH   4  21
TORSDOF 9
ENDMDL
MODEL 6
REMARK VINA RESULT:      -7.9      3.132      7.696
REMARK  Name = 
REMARK  10 active torsions:
REMARK  status: ('A' for Active; 'I' for Inactive)
REMARK    1  A    between atoms: C_1  and  C_2
REMARK    2  A    between atoms: C_2  and  O_3
REMARK    3  A    between atoms: O_3  and  C_4
REMARK    4  A    between atoms: C_4  and  C_6
REMARK    5  A    between atoms: C_6  and  C_7
REMARK    6  A    between atoms: C_7  and  C_8
REMARK    7  A    between atoms: C_8  and  O_9
REMARK    8  A    between atoms: O_9  and  C_10
REMARK    9  A    between atoms: N_18  and  C_19
REMARK   10  A    between atoms: C_19  and  C_20
REMARK                            x       y       z     vdW  Elec       q    Type
REMARK                         _______ _______ _______ _____ _____    ______ ____
ROOT
ATOM      1  C   UNL     1       5.211   5.490  17.730  0.00  0.00    +0.000 C 
ATOM      2  C   UNL     1       5.085   4.064  17.144  0.00  0.00    +0.000 C 
ATOM      3  C   UNL     1       6.025   3.842  15.952  0.00  0.00    +0.000 C 
ATOM      4  N   UNL     1       5.789   4.822  14.880  0.00  0.00    +0.000 NA
ATOM      5  C   UNL     1       5.980   6.190  15.377  0.00  0.00    +0.000 C 
ATOM      6  C   UNL     1       5.060   6.492  16.563  0.00  0.00    +0.000 C 
ENDROOT
BRANCH   1   7
ATOM      7  C   UNL     1       6.589   5.650  18.398  0.00  0.00    +0.000 C 
ATOM      8  O   UNL     1       6.913   5.122  19.453  0.00  0.00    +0.000 OA
BRANCH   7   9
ATOM      9  O   UNL     1       7.398   6.475  17.674  0.00  0.00    +0.000 OA
BRANCH   9  11
ATOM     10  C   UNL     1       8.010   8.837  17.841  0.00  0.00    +0.000 C 
ATOM     11  C   UNL     1       8.151   7.443  18.421  0.00  0.00    +0.000 C 
ENDBRANCH   9  11
ENDBRANCH   7   9
ENDBRANCH   1   7
BRANCH   1  12
ATOM     12  C   UNL     1       4.100   5.733  18.790  0.00  0.00    +0.000 C 
BRANCH  12  13
ATOM     13  C   UNL     1       2.883   6.480  18.234  0.00  0.00    +0.000 C 
BRANCH  13  14
ATOM     14  O   UNL     1       1.840   5.550  17.926  0.00  0.00    +0.000 OA
BRANCH  14  15
ATOM     15  C   UNL     1       1.694   4.549  18.856  0.00  0.00    +0.000 A 
ATOM     16  C   UNL     1       1.711   3.245  18.360  0.00  0.00    +0.000 A 
ATOM     17  C   UNL     1       1.561   2.157  19.225  0.00  0.00    +0.000 A 
ATOM     18  C   UNL     1       1.410   2.370  20.594  0.00  0.00    +0.000 A 
ATOM     19  C   UNL     1       1.412   3.668  21.097  0.00  0.00    +0.000 A 
ATOM     20  C   UNL     1       1.558   4.755  20.234  0.00  0.00    +0.000 A 
ENDBRANCH  14  15
ENDBRANCH  13  14
ENDBRANCH  12  13
ENDBRANCH   1  12
BRANCH   4  21
ATOM     21  C   UNL     1       6.697   4.535  13.749  0.00  0.00    +0.000 C 
BRANCH  21  22
ATOM     22  C   UNL     1       6.124   3.612  12.689  0.00  0.00    +0.000 A 
ATOM     23  C   UNL     1       6.930   2.624  12.095  0.00  0.00    +0.000 A 
ATOM     24  C   UNL     1       6.405   1.750  11.139  0.00  0.00    +0.000 A 
ATOM     25  C   UNL     1       5.068   1.854  10.761  0.00  0.00    +0.000 A 
ATOM     26  C   UNL     1       4.270   2.834  11.343  0.00  0.00    +0.000 A 
ATOM     27  F   UNL     1       2.984   2.933  10.981  0.00  0.00    +0.000 F 
ATOM     28  C   UNL     1       4.783   3.709  12.298  0.00  0.00    +0.000 A 
ENDBRANCH  21  22
ENDBRANCH   4  21
TORSDOF 9
ENDMDL
MODEL 7
REMARK VINA RESULT:      -7.8      3.594      6.630
REMARK  Name = 
REMARK  10 active torsions:
REMARK  status: ('A' for Active; 'I' for Inactive)
REMARK    1  A    between atoms: C_1  and  C_2
REMARK    2  A    between atoms: C_2  and  O_3
REMARK    3  A    between atoms: O_3  and  C_4
REMARK    4  A    between atoms: C_4  and  C_6
REMARK    5  A    between atoms: C_6  and  C_7
REMARK    6  A    between atoms: C_7  and  C_8
REMARK    7  A    between atoms: C_8  and  O_9
REMARK    8  A    between atoms: O_9  and  C_10
REMARK    9  A    between atoms: N_18  and  C_19
REMARK   10  A    between atoms: C_19  and  C_20
REMARK                            x       y       z     vdW  Elec       q    Type
REMARK                         _______ _______ _______ _____ _____    ______ ____
ROOT
ATOM      1  C   UNL     1       6.349   4.981  15.761  0.00  0.00    +0.000 C 
ATOM      2  C   UNL     1       5.327   6.070  15.357  0.00  0.00    +0.000 C 
ATOM      3  C   UNL     1       4.475   6.536  16.544  0.00  0.00    +0.000 C 
ATOM      4  N   UNL     1       3.756   5.417  17.173  0.00  0.00    +0.000 NA
ATOM      5  C   UNL     1       4.699   4.396  17.647  0.00  0.00    +0.000 C 
ATOM      6  C   UNL     1       5.578   3.870  16.509  0.00  0.00    +0.000 C 
ENDROOT
BRANCH   1   7
ATOM      7  C   UNL     1       7.420   5.599  16.679  0.00  0.00    +0.000 C 
ATOM      8  O   UNL     1       7.799   6.761  16.616  0.00  0.00    +0.000 OA
BRANCH   7   9
ATOM      9  O   UNL     1       7.910   4.680  17.559  0.00  0.00    +0.000 OA
BRANCH   9  11
ATOM     10  C   UNL     1       7.028   5.597  19.648  0.00  0.00    +0.000 C 
ATOM     11  C   UNL     1       8.254   5.171  18.864  0.00  0.00    +0.000 C 
ENDBRANCH   9  11
ENDBRANCH   7   9
ENDBRANCH   1   7
BRANCH   1  12
ATOM     12  C   UNL     1       7.037   4.396  14.497  0.00  0.00    +0.000 C 
BRANCH  12  13
ATOM     13  C   UNL     1       7.211   5.422  13.371  0.00  0.00    +0.000 C 
BRANCH  13  14
ATOM     14  O   UNL     1       7.657   4.767  12.180  0.00  0.00    +0.000 OA
BRANCH  14  15
ATOM     15  C   UNL     1       6.913   3.664  11.840  0.00  0.00    +0.000 A 
ATOM     16  C   UNL     1       7.633   2.546  11.415  0.00  0.00    +0.000 A 
ATOM     17  C   UNL     1       6.967   1.377  11.038  0.00  0.00    +0.000 A 
ATOM     18  C   UNL     1       5.576   1.315  11.101  0.00  0.00    +0.000 A 
ATOM     19  C   UNL     1       4.853   2.420  11.544  0.00  0.00    +0.000 A 
ATOM     20  C   UNL     1       5.517   3.589  11.917  0.00  0.00    +0.000 A 
ENDBRANCH  14  15
ENDBRANCH  13  14
ENDBRANCH  12  13
ENDBRANCH   1  12
BRANCH   4  21
ATOM     21  C   UNL     1       2.928   5.933  18.284  0.00  0.00    +0.000 C 
BRANCH  21  22
ATOM     22  C   UNL     1       2.306   4.866  19.166  0.00  0.00    +0.000 A 
ATOM     23  C   UNL     1       2.540   4.865  20.553  0.00  0.00    +0.000 A 
ATOM     24  C   UNL     1       1.949   3.904  21.379  0.00  0.00    +0.000 A 
ATOM     25  C   UNL     1       1.120   2.930  20.829  0.00  0.00    +0.000 A 
ATOM     26  C   UNL     1       0.891   2.925  19.456  0.00  0.00    +0.000 A 
ATOM     27  F   UNL     1       0.092   1.989  18.928  0.00  0.00    +0.000 F 
ATOM     28  C   UNL     1       1.473   3.879  18.625  0.00  0.00    +0.000 A 
ENDBRANCH  21  22
ENDBRANCH   4  21
TORSDOF 9
ENDMDL
MODEL 8
REMARK VINA RESULT:      -7.7      2.184      6.552
REMARK  Name = 
REMARK  10 active torsions:
REMARK  status: ('A' for Active; 'I' for Inactive)
REMARK    1  A    between atoms: C_1  and  C_2
REMARK    2  A    between atoms: C_2  and  O_3
REMARK    3  A    between atoms: O_3  and  C_4
REMARK    4  A    between atoms: C_4  and  C_6
REMARK    5  A    between atoms: C_6  and  C_7
REMARK    6  A    between atoms: C_7  and  C_8
REMARK    7  A    between atoms: C_8  and  O_9
REMARK    8  A    between atoms: O_9  and  C_10
REMARK    9  A    between atoms: N_18  and  C_19
REMARK   10  A    between atoms: C_19  and  C_20
REMARK                            x       y       z     vdW  Elec       q    Type
REMARK                         _______ _______ _______ _____ _____    ______ ____
ROOT
ATOM      1  C   UNL     1       6.317   5.931  16.476  0.00  0.00    +0.000 C 
ATOM      2  C   UNL     1       5.211   6.981  16.217  0.00  0.00    +0.000 C 
ATOM      3  C   UNL     1       4.214   7.072  17.379  0.00  0.00    +0.000 C 
ATOM      4  N   UNL     1       3.582   5.773  17.659  0.00  0.00    +0.000 NA
ATOM      5  C   UNL     1       4.596   4.765  17.992  0.00  0.00    +0.000 C 
ATOM      6  C   UNL     1       5.623   4.606  16.868  0.00  0.00    +0.000 C 
ENDROOT
BRANCH   1   7
ATOM      7  C   UNL     1       7.228   6.416  17.620  0.00  0.00    +0.000 C 
ATOM      8  O   UNL     1       7.753   5.682  18.445  0.00  0.00    +0.000 OA
BRANCH   7   9
ATOM      9  O   UNL     1       7.357   7.774  17.609  0.00  0.00    +0.000 OA
BRANCH   9  11
ATOM     10  C   UNL     1       8.602   9.798  18.185  0.00  0.00    +0.000 C 
ATOM     11  C   UNL     1       8.386   8.320  18.447  0.00  0.00    +0.000 C 
ENDBRANCH   9  11
ENDBRANCH   7   9
ENDBRANCH   1   7
BRANCH   1  12
ATOM     12  C   UNL     1       7.173   5.728  15.195  0.00  0.00    +0.000 C 
BRANCH  12  13
ATOM     13  C   UNL     1       6.892   4.400  14.481  0.00  0.00    +0.000 C 
BRANCH  13  14
ATOM     14  O   UNL     1       7.088   4.554  13.073  0.00  0.00    +0.000 OA
BRANCH  14  15
ATOM     15  C   UNL     1       6.520   3.555  12.319  0.00  0.00    +0.000 A 
ATOM     16  C   UNL     1       7.402   2.616  11.783  0.00  0.00    +0.000 A 
ATOM     17  C   UNL     1       6.923   1.566  10.994  0.00  0.00    +0.000 A 
ATOM     18  C   UNL     1       5.556   1.442  10.753  0.00  0.00    +0.000 A 
ATOM     19  C   UNL     1       4.669   2.364  11.303  0.00  0.00    +0.000 A 
ATOM     20  C   UNL     1       5.147   3.415  12.087  0.00  0.00    +0.000 A 
ENDBRANCH  14  15
ENDBRANCH  13  14
ENDBRANCH  12  13
ENDBRANCH   1  12
BRANCH   4  21
ATOM     21  C   UNL     1       2.608   5.932  18.760  0.00  0.00    +0.000 C 
BRANCH  21  22
ATOM     22  C   UNL     1       1.964   4.643  19.234  0.00  0.00    +0.000 A 
ATOM     23  C   UNL     1       1.418   3.738  18.307  0.00  0.00    +0.000 A 
ATOM     24  C   UNL     1       0.848   2.534  18.731  0.00  0.00    +0.000 A 
ATOM     25  C   UNL     1       0.813   2.220  20.088  0.00  0.00    +0.000 A 
ATOM     26  C   UNL     1       1.348   3.117  21.008  0.00  0.00    +0.000 A 
ATOM     27  F   UNL     1       1.316   2.814  22.312  0.00  0.00    +0.000 F 
ATOM     28  C   UNL     1       1.920   4.318  20.596  0.00  0.00    +0.000 A 
ENDBRANCH  21  22
ENDBRANCH   4  21
TORSDOF 9
ENDMDL
MODEL 9
REMARK VINA RESULT:      -7.7      1.360      1.961
REMARK  Name = 
REMARK  10 active torsions:
REMARK  status: ('A' for Active; 'I' for Inactive)
REMARK    1  A    between atoms: C_1  and  C_2
REMARK    2  A    between atoms: C_2  and  O_3
REMARK    3  A    between atoms: O_3  and  C_4
REMARK    4  A    between atoms: C_4  and  C_6
REMARK    5  A    between atoms: C_6  and  C_7
REMARK    6  A    between atoms: C_7  and  C_8
REMARK    7  A    between atoms: C_8  and  O_9
REMARK    8  A    between atoms: O_9  and  C_10
REMARK    9  A    between atoms: N_18  and  C_19
REMARK   10  A    between atoms: C_19  and  C_20
REMARK                            x       y       z     vdW  Elec       q    Type
REMARK                         _______ _______ _______ _____ _____    ______ ____
ROOT
ATOM      1  C   UNL     1       6.919   6.325  17.341  0.00  0.00    +0.000 C 
ATOM      2  C   UNL     1       7.377   5.999  18.783  0.00  0.00    +0.000 C 
ATOM      3  C   UNL     1       6.720   4.724  19.326  0.00  0.00    +0.000 C 
ATOM      4  N   UNL     1       5.251   4.812  19.300  0.00  0.00    +0.000 NA
ATOM      5  C   UNL     1       4.770   5.039  17.932  0.00  0.00    +0.000 C 
ATOM      6  C   UNL     1       5.373   6.309  17.325  0.00  0.00    +0.000 C 
ENDROOT
BRANCH   1   7
ATOM      7  C   UNL     1       7.475   5.262  16.374  0.00  0.00    +0.000 C 
ATOM      8  O   UNL     1       8.100   4.270  16.722  0.00  0.00    +0.000 OA
BRANCH   7   9
ATOM      9  O   UNL     1       7.200   5.580  15.077  0.00  0.00    +0.000 OA
BRANCH   9  11
ATOM     10  C   UNL     1       7.032   4.357  12.966  0.00  0.00    +0.000 C 
ATOM     11  C   UNL     1       6.436   4.616  14.336  0.00  0.00    +0.000 C 
ENDBRANCH   9  11
ENDBRANCH   7   9
ENDBRANCH   1   7
BRANCH   1  12
ATOM     12  C   UNL     1       7.444   7.724  16.916  0.00  0.00    +0.000 C 
BRANCH  12  13
ATOM     13  C   UNL     1       8.124   8.490  18.056  0.00  0.00    +0.000 C 
BRANCH  13  14
ATOM     14  O   UNL     1       8.875   9.586  17.527  0.00  0.00    +0.000 OA
BRANCH  14  15
ATOM     15  C   UNL     1       9.042  10.625  18.410  0.00  0.00    +0.000 A 
ATOM     16  C   UNL     1       9.339  10.269  19.726  0.00  0.00    +0.000 A 
ATOM     17  C   UNL     1       9.519  11.253  20.702  0.00  0.00    +0.000 A 
ATOM     18  C   UNL     1       9.421  12.601  20.361  0.00  0.00    +0.000 A 
ATOM     19  C   UNL     1       9.146  12.963  19.044  0.00  0.00    +0.000 A 
ATOM     20  C   UNL     1       8.962  11.981  18.071  0.00  0.00    +0.000 A 
ENDBRANCH  14  15
ENDBRANCH  13  14
ENDBRANCH  12  13
ENDBRANCH   1  12
BRANCH   4  21
ATOM     21  C   UNL     1       4.679   3.572  19.867  0.00  0.00    +0.000 C 
BRANCH  21  22
ATOM     22  C   UNL     1       3.163   3.521  19.889  0.00  0.00    +0.000 A 
ATOM     23  C   UNL     1       2.430   4.467  20.629  0.00  0.00    +0.000 A 
ATOM     24  C   UNL     1       1.032   4.447  20.633  0.00  0.00    +0.000 A 
ATOM     25  C   UNL     1       0.348   3.479  19.900  0.00  0.00    +0.000 A 
ATOM     26  C   UNL     1       1.071   2.539  19.172  0.00  0.00    +0.000 A 
ATOM     27  F   UNL     1       0.413   1.610  18.466  0.00  0.00    +0.000 F 
ATOM     28  C   UNL     1       2.464   2.551  19.160  0.00  0.00    +0.000 A 
ENDBRANCH  21  22
ENDBRANCH   4  21
TORSDOF 9
ENDMDL
