MODEL 1
REMARK VINA RESULT:      -6.9      0.000      0.000
REMARK  Name = 
REMARK  11 active torsions:
REMARK  status: ('A' for Active; 'I' for Inactive)
REMARK    1  A    between atoms: C_2  and  C_3
REMARK    2  A    between atoms: C_3  and  N_4
REMARK    3  A    between atoms: N_6  and  C_7
REMARK    4  A    between atoms: C_7  and  C_9
REMARK    5  A    between atoms: C_9  and  C_10
REMARK    6  A    between atoms: C_13  and  S_14
REMARK    7  A    between atoms: S_14  and  C_15
REMARK    8  A    between atoms: C_22  and  O_23
REMARK    9  A    between atoms: O_23  and  C_24
REMARK   10  A    between atoms: C_27  and  O_28
REMARK   11  A    between atoms: O_28  and  C_29
REMARK                            x       y       z     vdW  Elec       q    Type
REMARK                         _______ _______ _______ _____ _____    ______ ____
ROOT
ATOM      1  N   UNL     1      -1.301  11.592  19.196  0.00  0.00    +0.000 N 
ATOM      2  C   UNL     1      -0.060  11.522  19.841  0.00  0.00    +0.000 A 
ATOM      3  N   UNL     1       1.138  11.106  19.619  0.00  0.00    +0.000 NA
ATOM      4  S   UNL     1      -0.214  12.199  21.506  0.00  0.00    +0.000 S 
ATOM      5  C   UNL     1      -1.975  12.392  21.330  0.00  0.00    +0.000 A 
ATOM      6  C   UNL     1      -2.859  12.843  22.318  0.00  0.00    +0.000 A 
ATOM      7  C   UNL     1      -4.197  13.001  21.970  0.00  0.00    +0.000 A 
ATOM      8  C   UNL     1      -4.630  12.711  20.672  0.00  0.00    +0.000 A 
ATOM      9  C   UNL     1      -3.742  12.245  19.686  0.00  0.00    +0.000 A 
ATOM     10  C   UNL     1      -2.380  12.066  20.017  0.00  0.00    +0.000 A 
ENDROOT
BRANCH   3  11
ATOM     11  C   UNL     1       1.516  10.343  18.551  0.00  0.00    +0.000 C 
ATOM     12  O   UNL     1       2.051  10.778  17.535  0.00  0.00    +0.000 OA
BRANCH  11  13
ATOM     13  C   UNL     1       1.071   8.878  18.624  0.00  0.00    +0.000 C 
BRANCH  13  14
ATOM     14  C   UNL     1       2.187   7.842  18.647  0.00  0.00    +0.000 A 
ATOM     15  C   UNL     1       3.152   7.755  17.633  0.00  0.00    +0.000 A 
ATOM     16  C   UNL     1       4.078   6.706  17.611  0.00  0.00    +0.000 A 
ATOM     17  C   UNL     1       4.080   5.759  18.637  0.00  0.00    +0.000 A 
ATOM     18  C   UNL     1       3.208   5.892  19.718  0.00  0.00    +0.000 A 
ATOM     19  C   UNL     1       2.272   6.935  19.723  0.00  0.00    +0.000 A 
BRANCH  17  20
ATOM     20  S   UNL     1       5.092   4.305  18.476  0.00  0.00    +0.000 S 
ATOM     21  C   UNL     1       4.260   3.047  19.402  0.00  0.00    +0.000 C 
ATOM     22  O   UNL     1       5.071   3.900  17.082  0.00  0.00    +0.000 OA
ATOM     23  O   UNL     1       6.346   4.592  19.146  0.00  0.00    +0.000 OA
ENDBRANCH  17  20
ENDBRANCH  13  14
ENDBRANCH  11  13
ENDBRANCH   3  11
BRANCH   6  24
ATOM     24  O   UNL     1      -2.346  13.101  23.560  0.00  0.00    +0.000 OA
ATOM     25  C   UNL     1      -2.726  14.325  24.180  0.00  0.00    +0.000 C 
ENDBRANCH   6  24
BRANCH   9  26
ATOM     26  O   UNL     1      -4.154  11.972  18.411  0.00  0.00    +0.000 OA
ATOM     27  C   UNL     1      -5.379  11.273  18.215  0.00  0.00    +0.000 C 
ENDBRANCH   9  26
BRANCH   1  28
ATOM     28  C   UNL     1      -1.472  11.598  17.748  0.00  0.00    +0.000 C 
BRANCH  28  30
ATOM     29  C   UNL     1      -2.509   9.931  16.158  0.00  0.00    +0.000 C 
ATOM     30  C   UNL     1      -1.806  10.208  17.264  0.00  0.00    +0.000 C 
ENDBRANCH  28  30
ENDBRANCH   1  28
TORSDOF 8
ENDMDL
MODEL 2
REMARK VINA RESULT:      -6.9      1.688      3.536
REMARK  Name = 
REMARK  11 active torsions:
REMARK  status: ('A' for Active; 'I' for Inactive)
REMARK    1  A    between atoms: C_2  and  C_3
REMARK    2  A    between atoms: C_3  and  N_4
REMARK    3  A    between atoms: N_6  and  C_7
REMARK    4  A    between atoms: C_7  and  C_9
REMARK    5  A    between atoms: C_9  and  C_10
REMARK    6  A    between atoms: C_13  and  S_14
REMARK    7  A    between atoms: S_14  and  C_15
REMARK    8  A    between atoms: C_22  and  O_23
REMARK    9  A    between atoms: O_23  and  C_24
REMARK   10  A    between atoms: C_27  and  O_28
REMARK   11  A    between atoms: O_28  and  C_29
REMARK                            x       y       z     vdW  Elec       q    Type
REMARK                         _______ _______ _______ _____ _____    ______ ____
ROOT
ATOM      1  N   UNL     1      -1.211  11.372  19.935  0.00  0.00    +0.000 N 
ATOM      2  C   UNL     1      -1.024  10.547  18.819  0.00  0.00    +0.000 A 
ATOM      3  N   UNL     1      -0.092   9.866  18.249  0.00  0.00    +0.000 NA
ATOM      4  S   UNL     1      -2.565  10.445  17.888  0.00  0.00    +0.000 S 
ATOM      5  C   UNL     1      -3.351  11.648  18.938  0.00  0.00    +0.000 A 
ATOM      6  C   UNL     1      -4.644  12.163  18.781  0.00  0.00    +0.000 A 
ATOM      7  C   UNL     1      -5.115  13.043  19.750  0.00  0.00    +0.000 A 
ATOM      8  C   UNL     1      -4.310  13.397  20.838  0.00  0.00    +0.000 A 
ATOM      9  C   UNL     1      -3.007  12.889  20.985  0.00  0.00    +0.000 A 
ATOM     10  C   UNL     1      -2.501  12.000  20.009  0.00  0.00    +0.000 A 
ENDROOT
BRANCH   3  11
ATOM     11  C   UNL     1       1.233   9.926  18.576  0.00  0.00    +0.000 C 
ATOM     12  O   UNL     1       2.076  10.575  17.964  0.00  0.00    +0.000 OA
BRANCH  11  13
ATOM     13  C   UNL     1       1.657   8.971  19.698  0.00  0.00    +0.000 C 
BRANCH  13  14
ATOM     14  C   UNL     1       2.241   7.637  19.254  0.00  0.00    +0.000 A 
ATOM     15  C   UNL     1       2.124   6.472  20.027  0.00  0.00    +0.000 A 
ATOM     16  C   UNL     1       2.790   5.297  19.660  0.00  0.00    +0.000 A 
ATOM     17  C   UNL     1       3.540   5.262  18.483  0.00  0.00    +0.000 A 
ATOM     18  C   UNL     1       3.572   6.371  17.637  0.00  0.00    +0.000 A 
ATOM     19  C   UNL     1       2.919   7.550  18.021  0.00  0.00    +0.000 A 
BRANCH  17  20
ATOM     20  S   UNL     1       4.572   3.851  18.150  0.00  0.00    +0.000 S 
ATOM     21  C   UNL     1       5.534   4.295  16.732  0.00  0.00    +0.000 C 
ATOM     22  O   UNL     1       5.490   3.699  19.265  0.00  0.00    +0.000 OA
ATOM     23  O   UNL     1       3.687   2.769  17.764  0.00  0.00    +0.000 OA
ENDBRANCH  17  20
ENDBRANCH  13  14
ENDBRANCH  11  13
ENDBRANCH   3  11
BRANCH   6  24
ATOM     24  O   UNL     1      -5.358  11.761  17.685  0.00  0.00    +0.000 OA
ATOM     25  C   UNL     1      -6.191  12.732  17.060  0.00  0.00    +0.000 C 
ENDBRANCH   6  24
BRANCH   9  26
ATOM     26  O   UNL     1      -2.218  13.218  22.052  0.00  0.00    +0.000 OA
ATOM     27  C   UNL     1      -2.758  13.124  23.366  0.00  0.00    +0.000 C 
ENDBRANCH   9  26
BRANCH   1  28
ATOM     28  C   UNL     1      -0.391  11.319  21.139  0.00  0.00    +0.000 C 
BRANCH  28  30
ATOM     29  C   UNL     1      -0.187   9.765  23.121  0.00  0.00    +0.000 C 
ATOM     30  C   UNL     1      -0.743  10.094  21.948  0.00  0.00    +0.000 C 
ENDBRANCH  28  30
ENDBRANCH   1  28
TORSDOF 8
ENDMDL
MODEL 3
REMARK VINA RESULT:      -6.9      2.286      3.765
REMARK  Name = 
REMARK  11 active torsions:
REMARK  status: ('A' for Active; 'I' for Inactive)
REMARK    1  A    between atoms: C_2  and  C_3
REMARK    2  A    between atoms: C_3  and  N_4
REMARK    3  A    between atoms: N_6  and  C_7
REMARK    4  A    between atoms: C_7  and  C_9
REMARK    5  A    between atoms: C_9  and  C_10
REMARK    6  A    between atoms: C_13  and  S_14
REMARK    7  A    between atoms: S_14  and  C_15
REMARK    8  A    between atoms: C_22  and  O_23
REMARK    9  A    between atoms: O_23  and  C_24
REMARK   10  A    between atoms: C_27  and  O_28
REMARK   11  A    between atoms: O_28  and  C_29
REMARK                            x       y       z     vdW  Elec       q    Type
REMARK                         _______ _______ _______ _____ _____    ______ ____
ROOT
ATOM      1  N   UNL     1      -0.290  10.889  19.743  0.00  0.00    +0.000 N 
ATOM      2  C   UNL     1      -0.240  10.179  18.537  0.00  0.00    +0.000 A 
ATOM      3  N   UNL     1       0.600   9.505  17.830  0.00  0.00    +0.000 NA
ATOM      4  S   UNL     1      -1.846  10.272  17.723  0.00  0.00    +0.000 S 
ATOM      5  C   UNL     1      -2.470  11.403  18.948  0.00  0.00    +0.000 A 
ATOM      6  C   UNL     1      -3.732  12.010  18.945  0.00  0.00    +0.000 A 
ATOM      7  C   UNL     1      -4.071  12.809  20.032  0.00  0.00    +0.000 A 
ATOM      8  C   UNL     1      -3.169  12.993  21.085  0.00  0.00    +0.000 A 
ATOM      9  C   UNL     1      -1.897  12.393  21.078  0.00  0.00    +0.000 A 
ATOM     10  C   UNL     1      -1.524  11.584  19.980  0.00  0.00    +0.000 A 
ENDROOT
BRANCH   3  11
ATOM     11  C   UNL     1       1.945   9.448  18.059  0.00  0.00    +0.000 C 
ATOM     12  O   UNL     1       2.598  10.325  18.617  0.00  0.00    +0.000 OA
BRANCH  11  13
ATOM     13  C   UNL     1       2.653   8.252  17.410  0.00  0.00    +0.000 C 
BRANCH  13  14
ATOM     14  C   UNL     1       2.692   6.972  18.234  0.00  0.00    +0.000 A 
ATOM     15  C   UNL     1       3.181   5.762  17.720  0.00  0.00    +0.000 A 
ATOM     16  C   UNL     1       3.075   4.575  18.453  0.00  0.00    +0.000 A 
ATOM     17  C   UNL     1       2.523   4.597  19.735  0.00  0.00    +0.000 A 
ATOM     18  C   UNL     1       2.140   5.807  20.314  0.00  0.00    +0.000 A 
ATOM     19  C   UNL     1       2.232   6.988  19.567  0.00  0.00    +0.000 A 
BRANCH  17  20
ATOM     20  S   UNL     1       2.172   3.059  20.557  0.00  0.00    +0.000 S 
ATOM     21  C   UNL     1       2.090   1.845  19.273  0.00  0.00    +0.000 C 
ATOM     22  O   UNL     1       3.314   2.730  21.391  0.00  0.00    +0.000 OA
ATOM     23  O   UNL     1       0.847   3.186  21.132  0.00  0.00    +0.000 OA
ENDBRANCH  17  20
ENDBRANCH  13  14
ENDBRANCH  11  13
ENDBRANCH   3  11
BRANCH   6  24
ATOM     24  O   UNL     1      -4.548  11.774  17.872  0.00  0.00    +0.000 OA
ATOM     25  C   UNL     1      -5.699  10.967  18.095  0.00  0.00    +0.000 C 
ENDBRANCH   6  24
BRANCH   9  26
ATOM     26  O   UNL     1      -1.014  12.556  22.110  0.00  0.00    +0.000 OA
ATOM     27  C   UNL     1      -0.414  13.832  22.310  0.00  0.00    +0.000 C 
ENDBRANCH   9  26
BRANCH   1  28
ATOM     28  C   UNL     1       0.607  10.657  20.869  0.00  0.00    +0.000 C 
BRANCH  28  30
ATOM     29  C   UNL     1      -0.220   9.240  22.791  0.00  0.00    +0.000 C 
ATOM     30  C   UNL     1       0.257   9.352  21.544  0.00  0.00    +0.000 C 
ENDBRANCH  28  30
ENDBRANCH   1  28
TORSDOF 8
ENDMDL
MODEL 4
REMARK VINA RESULT:      -6.8      2.016      3.601
REMARK  Name = 
REMARK  11 active torsions:
REMARK  status: ('A' for Active; 'I' for Inactive)
REMARK    1  A    between atoms: C_2  and  C_3
REMARK    2  A    between atoms: C_3  and  N_4
REMARK    3  A    between atoms: N_6  and  C_7
REMARK    4  A    between atoms: C_7  and  C_9
REMARK    5  A    between atoms: C_9  and  C_10
REMARK    6  A    between atoms: C_13  and  S_14
REMARK    7  A    between atoms: S_14  and  C_15
REMARK    8  A    between atoms: C_22  and  O_23
REMARK    9  A    between atoms: O_23  and  C_24
REMARK   10  A    between atoms: C_27  and  O_28
REMARK   11  A    between atoms: O_28  and  C_29
REMARK                            x       y       z     vdW  Elec       q    Type
REMARK                         _______ _______ _______ _____ _____    ______ ____
ROOT
ATOM      1  N   UNL     1      -0.936  11.339  19.832  0.00  0.00    +0.000 N 
ATOM      2  C   UNL     1      -0.855  10.388  18.807  0.00  0.00    +0.000 A 
ATOM      3  N   UNL     1       0.014   9.618  18.251  0.00  0.00    +0.000 NA
ATOM      4  S   UNL     1      -2.465  10.231  18.010  0.00  0.00    +0.000 S 
ATOM      5  C   UNL     1      -3.140  11.569  18.972  0.00  0.00    +0.000 A 
ATOM      6  C   UNL     1      -4.428  12.103  18.853  0.00  0.00    +0.000 A 
ATOM      7  C   UNL     1      -4.803  13.101  19.747  0.00  0.00    +0.000 A 
ATOM      8  C   UNL     1      -3.908  13.548  20.726  0.00  0.00    +0.000 A 
ATOM      9  C   UNL     1      -2.610  13.019  20.832  0.00  0.00    +0.000 A 
ATOM     10  C   UNL     1      -2.201  12.012  19.930  0.00  0.00    +0.000 A 
ENDROOT
BRANCH   3  11
ATOM     11  C   UNL     1       1.362   9.673  18.470  0.00  0.00    +0.000 C 
ATOM     12  O   UNL     1       2.172  10.208  17.719  0.00  0.00    +0.000 OA
BRANCH  11  13
ATOM     13  C   UNL     1       1.846   8.855  19.673  0.00  0.00    +0.000 C 
BRANCH  13  14
ATOM     14  C   UNL     1       2.089   7.373  19.419  0.00  0.00    +0.000 A 
ATOM     15  C   UNL     1       2.652   6.899  18.225  0.00  0.00    +0.000 A 
ATOM     16  C   UNL     1       2.733   5.526  17.965  0.00  0.00    +0.000 A 
ATOM     17  C   UNL     1       2.298   4.610  18.925  0.00  0.00    +0.000 A 
ATOM     18  C   UNL     1       1.846   5.056  20.167  0.00  0.00    +0.000 A 
ATOM     19  C   UNL     1       1.750   6.432  20.412  0.00  0.00    +0.000 A 
BRANCH  17  20
ATOM     20  S   UNL     1       2.180   2.888  18.494  0.00  0.00    +0.000 S 
ATOM     21  C   UNL     1       3.658   2.143  19.121  0.00  0.00    +0.000 C 
ATOM     22  O   UNL     1       1.064   2.321  19.230  0.00  0.00    +0.000 OA
ATOM     23  O   UNL     1       2.227   2.815  17.046  0.00  0.00    +0.000 OA
ENDBRANCH  17  20
ENDBRANCH  13  14
ENDBRANCH  11  13
ENDBRANCH   3  11
BRANCH   6  24
ATOM     24  O   UNL     1      -5.234  11.605  17.866  0.00  0.00    +0.000 OA
ATOM     25  C   UNL     1      -6.406  10.906  18.273  0.00  0.00    +0.000 C 
ENDBRANCH   6  24
BRANCH   9  26
ATOM     26  O   UNL     1      -1.733  13.441  21.794  0.00  0.00    +0.000 OA
ATOM     27  C   UNL     1      -2.133  14.474  22.689  0.00  0.00    +0.000 C 
ENDBRANCH   9  26
BRANCH   1  28
ATOM     28  C   UNL     1      -0.028  11.395  20.971  0.00  0.00    +0.000 C 
BRANCH  28  30
ATOM     29  C   UNL     1       0.280   9.536  22.654  0.00  0.00    +0.000 C 
ATOM     30  C   UNL     1      -0.494  10.446  22.049  0.00  0.00    +0.000 C 
ENDBRANCH  28  30
ENDBRANCH   1  28
TORSDOF 8
ENDMDL
MODEL 5
REMARK VINA RESULT:      -6.8      1.930      3.528
REMARK  Name = 
REMARK  11 active torsions:
REMARK  status: ('A' for Active; 'I' for Inactive)
REMARK    1  A    between atoms: C_2  and  C_3
REMARK    2  A    between atoms: C_3  and  N_4
REMARK    3  A    between atoms: N_6  and  C_7
REMARK    4  A    between atoms: C_7  and  C_9
REMARK    5  A    between atoms: C_9  and  C_10
REMARK    6  A    between atoms: C_13  and  S_14
REMARK    7  A    between atoms: S_14  and  C_15
REMARK    8  A    between atoms: C_22  and  O_23
REMARK    9  A    between atoms: O_23  and  C_24
REMARK   10  A    between atoms: C_27  and  O_28
REMARK   11  A    between atoms: O_28  and  C_29
REMARK                            x       y       z     vdW  Elec       q    Type
REMARK                         _______ _______ _______ _____ _____    ______ ____
ROOT
ATOM      1  N   UNL     1      -0.940  11.469  19.809  0.00  0.00    +0.000 N 
ATOM      2  C   UNL     1      -0.861  10.518  18.784  0.00  0.00    +0.000 A 
ATOM      3  N   UNL     1       0.015   9.775  18.202  0.00  0.00    +0.000 NA
ATOM      4  S   UNL     1      -2.491  10.303  18.043  0.00  0.00    +0.000 S 
ATOM      5  C   UNL     1      -3.177  11.621  19.022  0.00  0.00    +0.000 A 
ATOM      6  C   UNL     1      -4.487  12.112  18.946  0.00  0.00    +0.000 A 
ATOM      7  C   UNL     1      -4.864  13.100  19.849  0.00  0.00    +0.000 A 
ATOM      8  C   UNL     1      -3.953  13.581  20.795  0.00  0.00    +0.000 A 
ATOM      9  C   UNL     1      -2.635  13.096  20.860  0.00  0.00    +0.000 A 
ATOM     10  C   UNL     1      -2.223  12.099  19.947  0.00  0.00    +0.000 A 
ENDROOT
BRANCH   3  11
ATOM     11  C   UNL     1       1.366   9.876  18.376  0.00  0.00    +0.000 C 
ATOM     12  O   UNL     1       2.132  10.437  17.597  0.00  0.00    +0.000 OA
BRANCH  11  13
ATOM     13  C   UNL     1       1.918   9.077  19.562  0.00  0.00    +0.000 C 
BRANCH  13  14
ATOM     14  C   UNL     1       2.170   7.596  19.311  0.00  0.00    +0.000 A 
ATOM     15  C   UNL     1       2.612   7.109  18.072  0.00  0.00    +0.000 A 
ATOM     16  C   UNL     1       2.699   5.733  17.831  0.00  0.00    +0.000 A 
ATOM     17  C   UNL     1       2.394   4.829  18.850  0.00  0.00    +0.000 A 
ATOM     18  C   UNL     1       2.069   5.291  20.126  0.00  0.00    +0.000 A 
ATOM     19  C   UNL     1       1.965   6.670  20.353  0.00  0.00    +0.000 A 
BRANCH  17  20
ATOM     20  S   UNL     1       2.275   3.096  18.468  0.00  0.00    +0.000 S 
ATOM     21  C   UNL     1       0.682   2.592  19.053  0.00  0.00    +0.000 C 
ATOM     22  O   UNL     1       2.267   2.958  17.022  0.00  0.00    +0.000 OA
ATOM     23  O   UNL     1       3.275   2.421  19.272  0.00  0.00    +0.000 OA
ENDBRANCH  17  20
ENDBRANCH  13  14
ENDBRANCH  11  13
ENDBRANCH   3  11
BRANCH   6  24
ATOM     24  O   UNL     1      -5.308  11.582  17.987  0.00  0.00    +0.000 OA
ATOM     25  C   UNL     1      -5.617  12.406  16.868  0.00  0.00    +0.000 C 
ENDBRANCH   6  24
BRANCH   9  26
ATOM     26  O   UNL     1      -1.741  13.551  21.790  0.00  0.00    +0.000 OA
ATOM     27  C   UNL     1      -2.213  13.900  23.088  0.00  0.00    +0.000 C 
ENDBRANCH   9  26
BRANCH   1  28
ATOM     28  C   UNL     1       0.004  11.560  20.916  0.00  0.00    +0.000 C 
BRANCH  28  30
ATOM     29  C   UNL     1      -0.760  10.451  23.054  0.00  0.00    +0.000 C 
ATOM     30  C   UNL     1      -0.181  10.387  21.848  0.00  0.00    +0.000 C 
ENDBRANCH  28  30
ENDBRANCH   1  28
TORSDOF 8
ENDMDL
MODEL 6
REMARK VINA RESULT:      -6.8      1.837      3.590
REMARK  Name = 
REMARK  11 active torsions:
REMARK  status: ('A' for Active; 'I' for Inactive)
REMARK    1  A    between atoms: C_2  and  C_3
REMARK    2  A    between atoms: C_3  and  N_4
REMARK    3  A    between atoms: N_6  and  C_7
REMARK    4  A    between atoms: C_7  and  C_9
REMARK    5  A    between atoms: C_9  and  C_10
REMARK    6  A    between atoms: C_13  and  S_14
REMARK    7  A    between atoms: S_14  and  C_15
REMARK    8  A    between atoms: C_22  and  O_23
REMARK    9  A    between atoms: O_23  and  C_24
REMARK   10  A    between atoms: C_27  and  O_28
REMARK   11  A    between atoms: O_28  and  C_29
REMARK                            x       y       z     vdW  Elec       q    Type
REMARK                         _______ _______ _______ _____ _____    ______ ____
ROOT
ATOM      1  N   UNL     1      -0.938  11.175  19.643  0.00  0.00    +0.000 N 
ATOM      2  C   UNL     1      -0.818  10.351  18.517  0.00  0.00    +0.000 A 
ATOM      3  N   UNL     1       0.075   9.657  17.901  0.00  0.00    +0.000 NA
ATOM      4  S   UNL     1      -2.404  10.274  17.662  0.00  0.00    +0.000 S 
ATOM      5  C   UNL     1      -3.119  11.486  18.752  0.00  0.00    +0.000 A 
ATOM      6  C   UNL     1      -4.411  12.020  18.659  0.00  0.00    +0.000 A 
ATOM      7  C   UNL     1      -4.821  12.904  19.651  0.00  0.00    +0.000 A 
ATOM      8  C   UNL     1      -3.959  13.243  20.700  0.00  0.00    +0.000 A 
ATOM      9  C   UNL     1      -2.658  12.715  20.782  0.00  0.00    +0.000 A 
ATOM     10  C   UNL     1      -2.213  11.822  19.781  0.00  0.00    +0.000 A 
ENDROOT
BRANCH   3  11
ATOM     11  C   UNL     1       1.415   9.697  18.164  0.00  0.00    +0.000 C 
ATOM     12  O   UNL     1       2.201  10.501  17.670  0.00  0.00    +0.000 OA
BRANCH  11  13
ATOM     13  C   UNL     1       1.933   8.534  19.018  0.00  0.00    +0.000 C 
BRANCH  13  14
ATOM     14  C   UNL     1       2.660   7.426  18.267  0.00  0.00    +0.000 A 
ATOM     15  C   UNL     1       2.248   6.086  18.324  0.00  0.00    +0.000 A 
ATOM     16  C   UNL     1       3.017   5.074  17.738  0.00  0.00    +0.000 A 
ATOM     17  C   UNL     1       4.182   5.401  17.042  0.00  0.00    +0.000 A 
ATOM     18  C   UNL     1       4.547   6.737  16.870  0.00  0.00    +0.000 A 
ATOM     19  C   UNL     1       3.783   7.743  17.476  0.00  0.00    +0.000 A 
BRANCH  17  20
ATOM     20  S   UNL     1       5.273   4.099  16.512  0.00  0.00    +0.000 S 
ATOM     21  C   UNL     1       6.855   4.501  17.196  0.00  0.00    +0.000 C 
ATOM     22  O   UNL     1       4.832   2.866  17.140  0.00  0.00    +0.000 OA
ATOM     23  O   UNL     1       5.376   4.202  15.069  0.00  0.00    +0.000 OA
ENDBRANCH  17  20
ENDBRANCH  13  14
ENDBRANCH  11  13
ENDBRANCH   3  11
BRANCH   6  24
ATOM     24  O   UNL     1      -5.184  11.632  17.598  0.00  0.00    +0.000 OA
ATOM     25  C   UNL     1      -6.216  12.522  17.186  0.00  0.00    +0.000 C 
ENDBRANCH   6  24
BRANCH   9  26
ATOM     26  O   UNL     1      -1.813  13.030  21.811  0.00  0.00    +0.000 OA
ATOM     27  C   UNL     1      -1.726  14.383  22.245  0.00  0.00    +0.000 C 
ENDBRANCH   9  26
BRANCH   1  28
ATOM     28  C   UNL     1      -0.062  11.107  20.806  0.00  0.00    +0.000 C 
BRANCH  28  30
ATOM     29  C   UNL     1       0.398   9.405  22.616  0.00  0.00    +0.000 C 
ATOM     30  C   UNL     1      -0.333   9.840  21.581  0.00  0.00    +0.000 C 
ENDBRANCH  28  30
ENDBRANCH   1  28
TORSDOF 8
ENDMDL
MODEL 7
REMARK VINA RESULT:      -6.8      2.649      3.378
REMARK  Name = 
REMARK  11 active torsions:
REMARK  status: ('A' for Active; 'I' for Inactive)
REMARK    1  A    between atoms: C_2  and  C_3
REMARK    2  A    between atoms: C_3  and  N_4
REMARK    3  A    between atoms: N_6  and  C_7
REMARK    4  A    between atoms: C_7  and  C_9
REMARK    5  A    between atoms: C_9  and  C_10
REMARK    6  A    between atoms: C_13  and  S_14
REMARK    7  A    between atoms: S_14  and  C_15
REMARK    8  A    between atoms: C_22  and  O_23
REMARK    9  A    between atoms: O_23  and  C_24
REMARK   10  A    between atoms: C_27  and  O_28
REMARK   11  A    between atoms: O_28  and  C_29
REMARK                            x       y       z     vdW  Elec       q    Type
REMARK                         _______ _______ _______ _____ _____    ______ ____
ROOT
ATOM      1  N   UNL     1      -0.308  12.248  19.457  0.00  0.00    +0.000 N 
ATOM      2  C   UNL     1       0.937  11.946  18.891  0.00  0.00    +0.000 A 
ATOM      3  N   UNL     1       1.649  10.919  18.580  0.00  0.00    +0.000 NA
ATOM      4  S   UNL     1       1.810  13.479  18.518  0.00  0.00    +0.000 S 
ATOM      5  C   UNL     1       0.543  14.461  19.292  0.00  0.00    +0.000 A 
ATOM      6  C   UNL     1       0.561  15.851  19.456  0.00  0.00    +0.000 A 
ATOM      7  C   UNL     1      -0.559  16.453  20.020  0.00  0.00    +0.000 A 
ATOM      8  C   UNL     1      -1.659  15.681  20.409  0.00  0.00    +0.000 A 
ATOM      9  C   UNL     1      -1.667  14.283  20.256  0.00  0.00    +0.000 A 
ATOM     10  C   UNL     1      -0.537  13.646  19.695  0.00  0.00    +0.000 A 
ENDROOT
BRANCH   3  11
ATOM     11  C   UNL     1       1.368   9.633  18.946  0.00  0.00    +0.000 C 
ATOM     12  O   UNL     1       1.191   9.257  20.101  0.00  0.00    +0.000 OA
BRANCH  11  13
ATOM     13  C   UNL     1       1.451   8.612  17.805  0.00  0.00    +0.000 C 
BRANCH  13  14
ATOM     14  C   UNL     1       2.523   7.540  17.945  0.00  0.00    +0.000 A 
ATOM     15  C   UNL     1       2.305   6.348  18.653  0.00  0.00    +0.000 A 
ATOM     16  C   UNL     1       3.352   5.447  18.882  0.00  0.00    +0.000 A 
ATOM     17  C   UNL     1       4.619   5.707  18.357  0.00  0.00    +0.000 A 
ATOM     18  C   UNL     1       4.829   6.825  17.549  0.00  0.00    +0.000 A 
ATOM     19  C   UNL     1       3.781   7.731  17.340  0.00  0.00    +0.000 A 
BRANCH  17  20
ATOM     20  S   UNL     1       5.991   4.688  18.851  0.00  0.00    +0.000 S 
ATOM     21  C   UNL     1       6.980   4.490  17.398  0.00  0.00    +0.000 C 
ATOM     22  O   UNL     1       6.780   5.440  19.812  0.00  0.00    +0.000 OA
ATOM     23  O   UNL     1       5.444   3.390  19.196  0.00  0.00    +0.000 OA
ENDBRANCH  17  20
ENDBRANCH  13  14
ENDBRANCH  11  13
ENDBRANCH   3  11
BRANCH   6  24
ATOM     24  O   UNL     1       1.680  16.525  19.047  0.00  0.00    +0.000 OA
ATOM     25  C   UNL     1       1.547  17.382  17.918  0.00  0.00    +0.000 C 
ENDBRANCH   6  24
BRANCH   9  26
ATOM     26  O   UNL     1      -2.743  13.521  20.621  0.00  0.00    +0.000 OA
ATOM     27  C   UNL     1      -3.786  14.119  21.385  0.00  0.00    +0.000 C 
ENDBRANCH   9  26
BRANCH   1  28
ATOM     28  C   UNL     1      -1.454  11.346  19.446  0.00  0.00    +0.000 C 
BRANCH  28  30
ATOM     29  C   UNL     1      -2.061   9.924  17.448  0.00  0.00    +0.000 C 
ATOM     30  C   UNL     1      -1.920  11.123  18.027  0.00  0.00    +0.000 C 
ENDBRANCH  28  30
ENDBRANCH   1  28
TORSDOF 8
ENDMDL
MODEL 8
REMARK VINA RESULT:      -6.7      2.194      3.679
REMARK  Name = 
REMARK  11 active torsions:
REMARK  status: ('A' for Active; 'I' for Inactive)
REMARK    1  A    between atoms: C_2  and  C_3
REMARK    2  A    between atoms: C_3  and  N_4
REMARK    3  A    between atoms: N_6  and  C_7
REMARK    4  A    between atoms: C_7  and  C_9
REMARK    5  A    between atoms: C_9  and  C_10
REMARK    6  A    between atoms: C_13  and  S_14
REMARK    7  A    between atoms: S_14  and  C_15
REMARK    8  A    between atoms: C_22  and  O_23
REMARK    9  A    between atoms: O_23  and  C_24
REMARK   10  A    between atoms: C_27  and  O_28
REMARK   11  A    between atoms: O_28  and  C_29
REMARK                            x       y       z     vdW  Elec       q    Type
REMARK                         _______ _______ _______ _____ _____    ______ ____
ROOT
ATOM      1  N   UNL     1      -0.486  10.975  19.686  0.00  0.00    +0.000 N 
ATOM      2  C   UNL     1      -0.330  10.268  18.488  0.00  0.00    +0.000 A 
ATOM      3  N   UNL     1       0.586   9.650  17.826  0.00  0.00    +0.000 NA
ATOM      4  S   UNL     1      -1.897  10.255  17.595  0.00  0.00    +0.000 S 
ATOM      5  C   UNL     1      -2.653  11.344  18.783  0.00  0.00    +0.000 A 
ATOM      6  C   UNL     1      -3.950  11.868  18.715  0.00  0.00    +0.000 A 
ATOM      7  C   UNL     1      -4.393  12.644  19.781  0.00  0.00    +0.000 A 
ATOM      8  C   UNL     1      -3.558  12.889  20.876  0.00  0.00    +0.000 A 
ATOM      9  C   UNL     1      -2.252  12.373  20.934  0.00  0.00    +0.000 A 
ATOM     10  C   UNL     1      -1.773  11.589  19.859  0.00  0.00    +0.000 A 
ENDROOT
BRANCH   3  11
ATOM     11  C   UNL     1       1.919   9.681  18.120  0.00  0.00    +0.000 C 
ATOM     12  O   UNL     1       2.478  10.582  18.741  0.00  0.00    +0.000 OA
BRANCH  11  13
ATOM     13  C   UNL     1       2.744   8.566  17.467  0.00  0.00    +0.000 C 
BRANCH  13  14
ATOM     14  C   UNL     1       2.729   7.220  18.179  0.00  0.00    +0.000 A 
ATOM     15  C   UNL     1       3.264   6.059  17.602  0.00  0.00    +0.000 A 
ATOM     16  C   UNL     1       3.110   4.813  18.221  0.00  0.00    +0.000 A 
ATOM     17  C   UNL     1       2.461   4.725  19.454  0.00  0.00    +0.000 A 
ATOM     18  C   UNL     1       2.027   5.881  20.103  0.00  0.00    +0.000 A 
ATOM     19  C   UNL     1       2.168   7.122  19.469  0.00  0.00    +0.000 A 
BRANCH  17  20
ATOM     20  S   UNL     1       2.059   3.122  20.112  0.00  0.00    +0.000 S 
ATOM     21  C   UNL     1       2.132   3.303  21.871  0.00  0.00    +0.000 C 
ATOM     22  O   UNL     1       0.679   2.832  19.765  0.00  0.00    +0.000 OA
ATOM     23  O   UNL     1       3.128   2.226  19.714  0.00  0.00    +0.000 OA
ENDBRANCH  17  20
ENDBRANCH  13  14
ENDBRANCH  11  13
ENDBRANCH   3  11
BRANCH   6  24
ATOM     24  O   UNL     1      -4.695  11.577  17.605  0.00  0.00    +0.000 OA
ATOM     25  C   UNL     1      -6.037  12.052  17.578  0.00  0.00    +0.000 C 
ENDBRANCH   6  24
BRANCH   9  26
ATOM     26  O   UNL     1      -1.432  12.595  22.007  0.00  0.00    +0.000 OA
ATOM     27  C   UNL     1      -1.825  13.546  22.991  0.00  0.00    +0.000 C 
ENDBRANCH   9  26
BRANCH   1  28
ATOM     28  C   UNL     1       0.368  10.804  20.855  0.00  0.00    +0.000 C 
BRANCH  28  30
ATOM     29  C   UNL     1      -0.176   9.346  22.846  0.00  0.00    +0.000 C 
ATOM     30  C   UNL     1       0.053   9.493  21.535  0.00  0.00    +0.000 C 
ENDBRANCH  28  30
ENDBRANCH   1  28
TORSDOF 8
ENDMDL
MODEL 9
REMARK VINA RESULT:      -6.7      2.207      3.831
REMARK  Name = 
REMARK  11 active torsions:
REMARK  status: ('A' for Active; 'I' for Inactive)
REMARK    1  A    between atoms: C_2  and  C_3
REMARK    2  A    between atoms: C_3  and  N_4
REMARK    3  A    between atoms: N_6  and  C_7
REMARK    4  A    between atoms: C_7  and  C_9
REMARK    5  A    between atoms: C_9  and  C_10
REMARK    6  A    between atoms: C_13  and  S_14
REMARK    7  A    between atoms: S_14  and  C_15
REMARK    8  A    between atoms: C_22  and  O_23
REMARK    9  A    between atoms: O_23  and  C_24
REMARK   10  A    between atoms: C_27  and  O_28
REMARK   11  A    between atoms: O_28  and  C_29
REMARK                            x       y       z     vdW  Elec       q    Type
REMARK                         _______ _______ _______ _____ _____    ______ ____
ROOT
ATOM      1  N   UNL     1      -0.629  11.041  19.653  0.00  0.00    +0.000 N 
ATOM      2  C   UNL     1      -0.516  10.199  18.539  0.00  0.00    +0.000 A 
ATOM      3  N   UNL     1       0.375   9.500  17.926  0.00  0.00    +0.000 NA
ATOM      4  S   UNL     1      -2.110  10.100  17.702  0.00  0.00    +0.000 S 
ATOM      5  C   UNL     1      -2.821  11.325  18.779  0.00  0.00    +0.000 A 
ATOM      6  C   UNL     1      -4.116  11.851  18.690  0.00  0.00    +0.000 A 
ATOM      7  C   UNL     1      -4.521  12.749  19.672  0.00  0.00    +0.000 A 
ATOM      8  C   UNL     1      -3.651  13.109  20.707  0.00  0.00    +0.000 A 
ATOM      9  C   UNL     1      -2.347  12.590  20.784  0.00  0.00    +0.000 A 
ATOM     10  C   UNL     1      -1.907  11.683  19.793  0.00  0.00    +0.000 A 
ENDROOT
BRANCH   3  11
ATOM     11  C   UNL     1       1.717   9.552  18.174  0.00  0.00    +0.000 C 
ATOM     12  O   UNL     1       2.548  10.058  17.426  0.00  0.00    +0.000 OA
BRANCH  11  13
ATOM     13  C   UNL     1       2.168   8.767  19.412  0.00  0.00    +0.000 C 
BRANCH  13  14
ATOM     14  C   UNL     1       1.975   7.258  19.352  0.00  0.00    +0.000 A 
ATOM     15  C   UNL     1       1.512   6.516  20.449  0.00  0.00    +0.000 A 
ATOM     16  C   UNL     1       1.479   5.117  20.407  0.00  0.00    +0.000 A 
ATOM     17  C   UNL     1       1.861   4.448  19.244  0.00  0.00    +0.000 A 
ATOM     18  C   UNL     1       2.211   5.168  18.101  0.00  0.00    +0.000 A 
ATOM     19  C   UNL     1       2.259   6.567  18.157  0.00  0.00    +0.000 A 
BRANCH  17  20
ATOM     20  S   UNL     1       2.046   2.678  19.279  0.00  0.00    +0.000 S 
ATOM     21  C   UNL     1       3.690   2.364  18.702  0.00  0.00    +0.000 C 
ATOM     22  O   UNL     1       1.986   2.252  20.666  0.00  0.00    +0.000 OA
ATOM     23  O   UNL     1       1.123   2.142  18.298  0.00  0.00    +0.000 OA
ENDBRANCH  17  20
ENDBRANCH  13  14
ENDBRANCH  11  13
ENDBRANCH   3  11
BRANCH   6  24
ATOM     24  O   UNL     1      -4.898  11.442  17.644  0.00  0.00    +0.000 OA
ATOM     25  C   UNL     1      -6.276  11.794  17.685  0.00  0.00    +0.000 C 
ENDBRANCH   6  24
BRANCH   9  26
ATOM     26  O   UNL     1      -1.493  12.926  21.799  0.00  0.00    +0.000 OA
ATOM     27  C   UNL     1      -2.028  13.196  23.091  0.00  0.00    +0.000 C 
ENDBRANCH   9  26
BRANCH   1  28
ATOM     28  C   UNL     1       0.259  10.996  20.808  0.00  0.00    +0.000 C 
BRANCH  28  30
ATOM     29  C   UNL     1       0.574   9.449  22.780  0.00  0.00    +0.000 C 
ATOM     30  C   UNL     1      -0.118   9.840  21.702  0.00  0.00    +0.000 C 
ENDBRANCH  28  30
ENDBRANCH   1  28
TORSDOF 8
ENDMDL
