MODEL 1
REMARK VINA RESULT:      -8.0      0.000      0.000
REMARK  Name = 
REMARK  3 active torsions:
REMARK  status: ('A' for Active; 'I' for Inactive)
REMARK    1  A    between atoms: C_2  and  O_3
REMARK    2  A    between atoms: C_2  and  C_4
REMARK    3  A    between atoms: N_12  and  N_13
REMARK                            x       y       z     vdW  Elec       q    Type
REMARK                         _______ _______ _______ _____ _____    ______ ____
ROOT
ATOM      1  C   UNL     1       4.131   5.300  18.718  0.00  0.00    +0.000 A 
ATOM      2  C   UNL     1       4.352   6.001  17.506  0.00  0.00    +0.000 A 
ATOM      3  C   UNL     1       3.727   7.232  17.267  0.00  0.00    +0.000 A 
ATOM      4  C   UNL     1       2.869   7.709  18.241  0.00  0.00    +0.000 A 
ATOM      5  C   UNL     1       2.592   6.989  19.391  0.00  0.00    +0.000 A 
ATOM      6  C   UNL     1       3.219   5.788  19.669  0.00  0.00    +0.000 A 
ATOM      7  C   UNL     1       1.569   7.720  20.141  0.00  0.00    +0.000 C 
ATOM      8  O   UNL     1       1.035   7.293  21.146  0.00  0.00    +0.000 OA
ATOM      9  N   UNL     1       1.358   8.878  19.438  0.00  0.00    +0.000 N 
ATOM     10  C   UNL     1       2.117   8.964  18.302  0.00  0.00    +0.000 C 
ATOM     11  O   UNL     1       2.251   9.864  17.497  0.00  0.00    +0.000 OA
ENDROOT
BRANCH   9  12
ATOM     12  N   UNL     1       0.486   9.861  19.843  0.00  0.00    +0.000 N 
ATOM     13  C   UNL     1       0.609  10.541  21.030  0.00  0.00    +0.000 C 
ATOM     14  O   UNL     1       1.478  10.492  21.879  0.00  0.00    +0.000 OA
ATOM     15  C   UNL     1      -0.536  11.453  21.078  0.00  0.00    +0.000 A 
ATOM     16  C   UNL     1      -0.940  12.321  22.069  0.00  0.00    +0.000 A 
ATOM     17  C   UNL     1      -2.052  13.128  21.801  0.00  0.00    +0.000 A 
ATOM     18  C   UNL     1      -2.713  13.051  20.557  0.00  0.00    +0.000 A 
ATOM     19  C   UNL     1      -2.304  12.146  19.577  0.00  0.00    +0.000 A 
ATOM     20  C   UNL     1      -1.215  11.340  19.876  0.00  0.00    +0.000 A 
ATOM     21  C   UNL     1      -0.589  10.273  19.097  0.00  0.00    +0.000 C 
ATOM     22  O   UNL     1      -1.023   9.856  18.039  0.00  0.00    +0.000 OA
ENDBRANCH   9  12
BRANCH   1  24
ATOM     23  O   UNL     1       4.242   3.082  19.559  0.00  0.00    +0.000 OA
ATOM     24  C   UNL     1       4.806   4.008  19.004  0.00  0.00    +0.000 C 
BRANCH  24  25
ATOM     25  O   UNL     1       6.102   3.970  18.634  0.00  0.00    +0.000 OA
ATOM     26  H   UNL     1       6.630   4.765  18.833  0.00  0.00    +0.000 HD
ENDBRANCH  24  25
ENDBRANCH   1  24
TORSDOF 3
ENDMDL
MODEL 2
REMARK VINA RESULT:      -8.0      0.035      1.759
REMARK  Name = 
REMARK  3 active torsions:
REMARK  status: ('A' for Active; 'I' for Inactive)
REMARK    1  A    between atoms: C_2  and  O_3
REMARK    2  A    between atoms: C_2  and  C_4
REMARK    3  A    between atoms: N_12  and  N_13
REMARK                            x       y       z     vdW  Elec       q    Type
REMARK                         _______ _______ _______ _____ _____    ______ ____
ROOT
ATOM      1  C   UNL     1       4.127   5.307  18.734  0.00  0.00    +0.000 A 
ATOM      2  C   UNL     1       4.342   5.996  17.514  0.00  0.00    +0.000 A 
ATOM      3  C   UNL     1       3.716   7.225  17.267  0.00  0.00    +0.000 A 
ATOM      4  C   UNL     1       2.861   7.710  18.239  0.00  0.00    +0.000 A 
ATOM      5  C   UNL     1       2.590   7.000  19.397  0.00  0.00    +0.000 A 
ATOM      6  C   UNL     1       3.219   5.802  19.684  0.00  0.00    +0.000 A 
ATOM      7  C   UNL     1       1.569   7.738  20.144  0.00  0.00    +0.000 C 
ATOM      8  O   UNL     1       1.039   7.319  21.155  0.00  0.00    +0.000 OA
ATOM      9  N   UNL     1       1.354   8.888  19.432  0.00  0.00    +0.000 N 
ATOM     10  C   UNL     1       2.108   8.964  18.292  0.00  0.00    +0.000 C 
ATOM     11  O   UNL     1       2.238   9.858  17.478  0.00  0.00    +0.000 OA
ENDROOT
BRANCH   9  12
ATOM     12  N   UNL     1       0.482   9.875  19.832  0.00  0.00    +0.000 N 
ATOM     13  C   UNL     1      -0.607  10.266  19.094  0.00  0.00    +0.000 C 
ATOM     14  O   UNL     1      -1.057   9.821  18.056  0.00  0.00    +0.000 OA
ATOM     15  C   UNL     1      -1.226  11.353  19.858  0.00  0.00    +0.000 A 
ATOM     16  C   UNL     1      -2.307  12.150  19.553  0.00  0.00    +0.000 A 
ATOM     17  C   UNL     1      -2.717  13.074  20.521  0.00  0.00    +0.000 A 
ATOM     18  C   UNL     1      -2.044  13.165  21.758  0.00  0.00    +0.000 A 
ATOM     19  C   UNL     1      -0.933  12.366  22.036  0.00  0.00    +0.000 A 
ATOM     20  C   UNL     1      -0.533  11.476  21.050  0.00  0.00    +0.000 A 
ATOM     21  C   UNL     1       0.606  10.559  21.014  0.00  0.00    +0.000 C 
ATOM     22  O   UNL     1       1.470  10.510  21.870  0.00  0.00    +0.000 OA
ENDBRANCH   9  12
BRANCH   1  24
ATOM     23  O   UNL     1       4.262   3.118  19.645  0.00  0.00    +0.000 OA
ATOM     24  C   UNL     1       4.805   4.018  19.028  0.00  0.00    +0.000 C 
BRANCH  24  25
ATOM     25  O   UNL     1       6.079   3.953  18.593  0.00  0.00    +0.000 OA
ATOM     26  H   UNL     1       6.453   4.777  18.231  0.00  0.00    +0.000 HD
ENDBRANCH  24  25
ENDBRANCH   1  24
TORSDOF 3
ENDMDL
MODEL 3
REMARK VINA RESULT:      -7.8      1.009      2.178
REMARK  Name = 
REMARK  3 active torsions:
REMARK  status: ('A' for Active; 'I' for Inactive)
REMARK    1  A    between atoms: C_2  and  O_3
REMARK    2  A    between atoms: C_2  and  C_4
REMARK    3  A    between atoms: N_12  and  N_13
REMARK                            x       y       z     vdW  Elec       q    Type
REMARK                         _______ _______ _______ _____ _____    ______ ____
ROOT
ATOM      1  C   UNL     1       4.218   6.142  17.430  0.00  0.00    +0.000 A 
ATOM      2  C   UNL     1       4.013   5.438  18.643  0.00  0.00    +0.000 A 
ATOM      3  C   UNL     1       3.121   5.922  19.609  0.00  0.00    +0.000 A 
ATOM      4  C   UNL     1       2.485   7.119  19.343  0.00  0.00    +0.000 A 
ATOM      5  C   UNL     1       2.742   7.847  18.193  0.00  0.00    +0.000 A 
ATOM      6  C   UNL     1       3.591   7.379  17.207  0.00  0.00    +0.000 A 
ATOM      7  C   UNL     1       1.996   9.104  18.284  0.00  0.00    +0.000 C 
ATOM      8  O   UNL     1       2.097  10.008  17.477  0.00  0.00    +0.000 OA
ATOM      9  N   UNL     1       1.268   9.015  19.441  0.00  0.00    +0.000 N 
ATOM     10  C   UNL     1       1.480   7.847  20.122  0.00  0.00    +0.000 C 
ATOM     11  O   UNL     1       0.955   7.397  21.122  0.00  0.00    +0.000 OA
ENDROOT
BRANCH   9  12
ATOM     12  N   UNL     1       0.398   9.993  19.866  0.00  0.00    +0.000 N 
ATOM     13  C   UNL     1       0.549  10.680  21.044  0.00  0.00    +0.000 C 
ATOM     14  O   UNL     1       1.443  10.643  21.868  0.00  0.00    +0.000 OA
ATOM     15  C   UNL     1      -0.603  11.582  21.121  0.00  0.00    +0.000 A 
ATOM     16  C   UNL     1      -0.986  12.451  22.119  0.00  0.00    +0.000 A 
ATOM     17  C   UNL     1      -2.112  13.247  21.879  0.00  0.00    +0.000 A 
ATOM     18  C   UNL     1      -2.808  13.156  20.656  0.00  0.00    +0.000 A 
ATOM     19  C   UNL     1      -2.419  12.249  19.668  0.00  0.00    +0.000 A 
ATOM     20  C   UNL     1      -1.315  11.456  19.940  0.00  0.00    +0.000 A 
ATOM     21  C   UNL     1      -0.702  10.390  19.148  0.00  0.00    +0.000 C 
ATOM     22  O   UNL     1      -1.162   9.964  18.106  0.00  0.00    +0.000 OA
ENDBRANCH   9  12
BRANCH   1  24
ATOM     23  O   UNL     1       5.556   4.487  16.376  0.00  0.00    +0.000 OA
ATOM     24  C   UNL     1       5.137   5.631  16.380  0.00  0.00    +0.000 C 
BRANCH  24  25
ATOM     25  O   UNL     1       5.495   6.554  15.464  0.00  0.00    +0.000 OA
ATOM     26  H   UNL     1       4.772   7.076  15.073  0.00  0.00    +0.000 HD
ENDBRANCH  24  25
ENDBRANCH   1  24
TORSDOF 3
ENDMDL
MODEL 4
REMARK VINA RESULT:      -7.8      1.006      2.794
REMARK  Name = 
REMARK  3 active torsions:
REMARK  status: ('A' for Active; 'I' for Inactive)
REMARK    1  A    between atoms: C_2  and  O_3
REMARK    2  A    between atoms: C_2  and  C_4
REMARK    3  A    between atoms: N_12  and  N_13
REMARK                            x       y       z     vdW  Elec       q    Type
REMARK                         _______ _______ _______ _____ _____    ______ ____
ROOT
ATOM      1  C   UNL     1       4.225   6.065  17.398  0.00  0.00    +0.000 A 
ATOM      2  C   UNL     1       4.022   5.350  18.605  0.00  0.00    +0.000 A 
ATOM      3  C   UNL     1       3.141   5.831  19.582  0.00  0.00    +0.000 A 
ATOM      4  C   UNL     1       2.514   7.038  19.335  0.00  0.00    +0.000 A 
ATOM      5  C   UNL     1       2.770   7.776  18.192  0.00  0.00    +0.000 A 
ATOM      6  C   UNL     1       3.608   7.311  17.194  0.00  0.00    +0.000 A 
ATOM      7  C   UNL     1       2.037   9.039  18.301  0.00  0.00    +0.000 C 
ATOM      8  O   UNL     1       2.141   9.951  17.504  0.00  0.00    +0.000 OA
ATOM      9  N   UNL     1       1.316   8.944  19.463  0.00  0.00    +0.000 N 
ATOM     10  C   UNL     1       1.522   7.766  20.129  0.00  0.00    +0.000 C 
ATOM     11  O   UNL     1       1.000   7.310  21.127  0.00  0.00    +0.000 OA
ENDROOT
BRANCH   9  12
ATOM     12  N   UNL     1       0.459   9.925  19.905  0.00  0.00    +0.000 N 
ATOM     13  C   UNL     1      -0.643  10.341  19.201  0.00  0.00    +0.000 C 
ATOM     14  O   UNL     1      -1.117   9.924  18.161  0.00  0.00    +0.000 OA
ATOM     15  C   UNL     1      -1.239  11.412  20.004  0.00  0.00    +0.000 A 
ATOM     16  C   UNL     1      -2.322  12.222  19.742  0.00  0.00    +0.000 A 
ATOM     17  C   UNL     1      -2.705  13.124  20.741  0.00  0.00    +0.000 A 
ATOM     18  C   UNL     1      -2.006  13.180  21.965  0.00  0.00    +0.000 A 
ATOM     19  C   UNL     1      -0.894  12.369  22.199  0.00  0.00    +0.000 A 
ATOM     20  C   UNL     1      -0.520  11.502  21.184  0.00  0.00    +0.000 A 
ATOM     21  C   UNL     1       0.612  10.579  21.101  0.00  0.00    +0.000 C 
ATOM     22  O   UNL     1       1.493  10.504  21.937  0.00  0.00    +0.000 OA
ENDBRANCH   9  12
BRANCH   1  24
ATOM     23  O   UNL     1       5.429   4.381  16.236  0.00  0.00    +0.000 OA
ATOM     24  C   UNL     1       5.131   5.558  16.336  0.00  0.00    +0.000 C 
BRANCH  24  25
ATOM     25  O   UNL     1       5.623   6.517  15.527  0.00  0.00    +0.000 OA
ATOM     26  H   UNL     1       6.555   6.417  15.258  0.00  0.00    +0.000 HD
ENDBRANCH  24  25
ENDBRANCH   1  24
TORSDOF 3
ENDMDL
MODEL 5
REMARK VINA RESULT:      -7.4      2.288      3.975
REMARK  Name = 
REMARK  3 active torsions:
REMARK  status: ('A' for Active; 'I' for Inactive)
REMARK    1  A    between atoms: C_2  and  O_3
REMARK    2  A    between atoms: C_2  and  C_4
REMARK    3  A    between atoms: N_12  and  N_13
REMARK                            x       y       z     vdW  Elec       q    Type
REMARK                         _______ _______ _______ _____ _____    ______ ____
ROOT
ATOM      1  C   UNL     1       5.641   4.657  15.601  0.00  0.00    +0.000 A 
ATOM      2  C   UNL     1       4.907   3.557  16.112  0.00  0.00    +0.000 A 
ATOM      3  C   UNL     1       3.849   3.758  17.008  0.00  0.00    +0.000 A 
ATOM      4  C   UNL     1       3.580   5.058  17.394  0.00  0.00    +0.000 A 
ATOM      5  C   UNL     1       4.346   6.126  16.956  0.00  0.00    +0.000 A 
ATOM      6  C   UNL     1       5.374   5.963  16.046  0.00  0.00    +0.000 A 
ATOM      7  C   UNL     1       3.867   7.329  17.639  0.00  0.00    +0.000 C 
ATOM      8  O   UNL     1       4.406   8.416  17.550  0.00  0.00    +0.000 OA
ATOM      9  N   UNL     1       2.786   6.925  18.378  0.00  0.00    +0.000 N 
ATOM     10  C   UNL     1       2.529   5.585  18.266  0.00  0.00    +0.000 C 
ATOM     11  O   UNL     1       1.620   4.906  18.703  0.00  0.00    +0.000 OA
ENDROOT
BRANCH   9  12
ATOM     12  N   UNL     1       2.027   7.781  19.141  0.00  0.00    +0.000 N 
ATOM     13  C   UNL     1       1.462   8.932  18.651  0.00  0.00    +0.000 C 
ATOM     14  O   UNL     1       1.438   9.378  17.520  0.00  0.00    +0.000 OA
ATOM     15  C   UNL     1       0.785   9.552  19.793  0.00  0.00    +0.000 A 
ATOM     16  C   UNL     1       0.113  10.752  19.884  0.00  0.00    +0.000 A 
ATOM     17  C   UNL     1      -0.499  11.052  21.106  0.00  0.00    +0.000 A 
ATOM     18  C   UNL     1      -0.430  10.148  22.186  0.00  0.00    +0.000 A 
ATOM     19  C   UNL     1       0.279   8.950  22.081  0.00  0.00    +0.000 A 
ATOM     20  C   UNL     1       0.897   8.687  20.868  0.00  0.00    +0.000 A 
ATOM     21  C   UNL     1       1.745   7.565  20.466  0.00  0.00    +0.000 C 
ATOM     22  O   UNL     1       2.123   6.690  21.223  0.00  0.00    +0.000 OA
ENDBRANCH   9  12
BRANCH   1  24
ATOM     23  O   UNL     1       7.748   5.164  14.628  0.00  0.00    +0.000 OA
ATOM     24  C   UNL     1       6.747   4.468  14.627  0.00  0.00    +0.000 C 
BRANCH  24  25
ATOM     25  O   UNL     1       6.524   3.494  13.721  0.00  0.00    +0.000 OA
ATOM     26  H   UNL     1       5.970   3.736  12.956  0.00  0.00    +0.000 HD
ENDBRANCH  24  25
ENDBRANCH   1  24
TORSDOF 3
ENDMDL
MODEL 6
REMARK VINA RESULT:      -7.3      2.242      7.561
REMARK  Name = 
REMARK  3 active torsions:
REMARK  status: ('A' for Active; 'I' for Inactive)
REMARK    1  A    between atoms: C_2  and  O_3
REMARK    2  A    between atoms: C_2  and  C_4
REMARK    3  A    between atoms: N_12  and  N_13
REMARK                            x       y       z     vdW  Elec       q    Type
REMARK                         _______ _______ _______ _____ _____    ______ ____
ROOT
ATOM      1  C   UNL     1       0.018   9.870  21.677  0.00  0.00    +0.000 A 
ATOM      2  C   UNL     1       0.037  10.787  20.596  0.00  0.00    +0.000 A 
ATOM      3  C   UNL     1       0.685  10.465  19.396  0.00  0.00    +0.000 A 
ATOM      4  C   UNL     1       1.328   9.244  19.328  0.00  0.00    +0.000 A 
ATOM      5  C   UNL     1       1.377   8.380  20.409  0.00  0.00    +0.000 A 
ATOM      6  C   UNL     1       0.718   8.655  21.594  0.00  0.00    +0.000 A 
ATOM      7  C   UNL     1       2.224   7.245  20.037  0.00  0.00    +0.000 C 
ATOM      8  O   UNL     1       2.551   6.365  20.810  0.00  0.00    +0.000 OA
ATOM      9  N   UNL     1       2.560   7.454  18.725  0.00  0.00    +0.000 N 
ATOM     10  C   UNL     1       2.042   8.614  18.215  0.00  0.00    +0.000 C 
ATOM     11  O   UNL     1       2.062   9.071  17.089  0.00  0.00    +0.000 OA
ENDROOT
BRANCH   9  12
ATOM     12  N   UNL     1       3.325   6.578  17.990  0.00  0.00    +0.000 N 
ATOM     13  C   UNL     1       4.548   6.904  17.459  0.00  0.00    +0.000 C 
ATOM     14  O   UNL     1       5.210   7.918  17.570  0.00  0.00    +0.000 OA
ATOM     15  C   UNL     1       4.988   5.711  16.730  0.00  0.00    +0.000 A 
ATOM     16  C   UNL     1       6.110   5.505  15.958  0.00  0.00    +0.000 A 
ATOM     17  C   UNL     1       6.301   4.221  15.435  0.00  0.00    +0.000 A 
ATOM     18  C   UNL     1       5.378   3.190  15.707  0.00  0.00    +0.000 A 
ATOM     19  C   UNL     1       4.233   3.427  16.469  0.00  0.00    +0.000 A 
ATOM     20  C   UNL     1       4.055   4.714  16.955  0.00  0.00    +0.000 A 
ATOM     21  C   UNL     1       2.950   5.286  17.725  0.00  0.00    +0.000 C 
ATOM     22  O   UNL     1       1.922   4.690  17.989  0.00  0.00    +0.000 OA
ENDBRANCH   9  12
BRANCH   1  24
ATOM     23  O   UNL     1      -1.586  11.000  23.014  0.00  0.00    +0.000 OA
ATOM     24  C   UNL     1      -0.689  10.179  22.946  0.00  0.00    +0.000 C 
BRANCH  24  25
ATOM     25  O   UNL     1      -0.221   9.504  24.016  0.00  0.00    +0.000 OA
ATOM     26  H   UNL     1      -0.325   9.941  24.880  0.00  0.00    +0.000 HD
ENDBRANCH  24  25
ENDBRANCH   1  24
TORSDOF 3
ENDMDL
MODEL 7
REMARK VINA RESULT:      -7.3      2.249      7.629
REMARK  Name = 
REMARK  3 active torsions:
REMARK  status: ('A' for Active; 'I' for Inactive)
REMARK    1  A    between atoms: C_2  and  O_3
REMARK    2  A    between atoms: C_2  and  C_4
REMARK    3  A    between atoms: N_12  and  N_13
REMARK                            x       y       z     vdW  Elec       q    Type
REMARK                         _______ _______ _______ _____ _____    ______ ____
ROOT
ATOM      1  C   UNL     1       0.034   9.863  21.702  0.00  0.00    +0.000 A 
ATOM      2  C   UNL     1       0.050  10.781  20.623  0.00  0.00    +0.000 A 
ATOM      3  C   UNL     1       0.696  10.462  19.421  0.00  0.00    +0.000 A 
ATOM      4  C   UNL     1       1.338   9.240  19.350  0.00  0.00    +0.000 A 
ATOM      5  C   UNL     1       1.390   8.374  20.430  0.00  0.00    +0.000 A 
ATOM      6  C   UNL     1       0.734   8.647  21.616  0.00  0.00    +0.000 A 
ATOM      7  C   UNL     1       2.235   7.240  20.053  0.00  0.00    +0.000 C 
ATOM      8  O   UNL     1       2.565   6.359  20.824  0.00  0.00    +0.000 OA
ATOM      9  N   UNL     1       2.569   7.451  18.741  0.00  0.00    +0.000 N 
ATOM     10  C   UNL     1       2.049   8.611  18.234  0.00  0.00    +0.000 C 
ATOM     11  O   UNL     1       2.067   9.071  17.109  0.00  0.00    +0.000 OA
ENDROOT
BRANCH   9  12
ATOM     12  N   UNL     1       3.332   6.576  18.003  0.00  0.00    +0.000 N 
ATOM     13  C   UNL     1       2.943   5.292  17.712  0.00  0.00    +0.000 C 
ATOM     14  O   UNL     1       1.901   4.712  17.947  0.00  0.00    +0.000 OA
ATOM     15  C   UNL     1       4.054   4.711  16.954  0.00  0.00    +0.000 A 
ATOM     16  C   UNL     1       4.225   3.433  16.467  0.00  0.00    +0.000 A 
ATOM     17  C   UNL     1       5.375   3.184  15.710  0.00  0.00    +0.000 A 
ATOM     18  C   UNL     1       6.306   4.213  15.456  0.00  0.00    +0.000 A 
ATOM     19  C   UNL     1       6.127   5.494  15.982  0.00  0.00    +0.000 A 
ATOM     20  C   UNL     1       4.992   5.708  16.749  0.00  0.00    +0.000 A 
ATOM     21  C   UNL     1       4.554   6.902  17.472  0.00  0.00    +0.000 C 
ATOM     22  O   UNL     1       5.217   7.917  17.578  0.00  0.00    +0.000 OA
ENDBRANCH   9  12
BRANCH   1  24
ATOM     23  O   UNL     1      -1.568  10.989  23.044  0.00  0.00    +0.000 OA
ATOM     24  C   UNL     1      -0.669  10.170  22.974  0.00  0.00    +0.000 C 
BRANCH  24  25
ATOM     25  O   UNL     1      -0.197   9.496  24.042  0.00  0.00    +0.000 OA
ATOM     26  H   UNL     1      -0.390   9.883  24.915  0.00  0.00    +0.000 HD
ENDBRANCH  24  25
ENDBRANCH   1  24
TORSDOF 3
ENDMDL
MODEL 8
REMARK VINA RESULT:      -7.3      2.268      3.657
REMARK  Name = 
REMARK  3 active torsions:
REMARK  status: ('A' for Active; 'I' for Inactive)
REMARK    1  A    between atoms: C_2  and  O_3
REMARK    2  A    between atoms: C_2  and  C_4
REMARK    3  A    between atoms: N_12  and  N_13
REMARK                            x       y       z     vdW  Elec       q    Type
REMARK                         _______ _______ _______ _____ _____    ______ ____
ROOT
ATOM      1  C   UNL     1       5.615   4.695  15.622  0.00  0.00    +0.000 A 
ATOM      2  C   UNL     1       4.879   3.597  16.135  0.00  0.00    +0.000 A 
ATOM      3  C   UNL     1       3.817   3.802  17.025  0.00  0.00    +0.000 A 
ATOM      4  C   UNL     1       3.545   5.103  17.403  0.00  0.00    +0.000 A 
ATOM      5  C   UNL     1       4.312   6.169  16.963  0.00  0.00    +0.000 A 
ATOM      6  C   UNL     1       5.345   6.002  16.059  0.00  0.00    +0.000 A 
ATOM      7  C   UNL     1       3.828   7.376  17.638  0.00  0.00    +0.000 C 
ATOM      8  O   UNL     1       4.366   8.462  17.545  0.00  0.00    +0.000 OA
ATOM      9  N   UNL     1       2.745   6.974  18.374  0.00  0.00    +0.000 N 
ATOM     10  C   UNL     1       2.489   5.633  18.267  0.00  0.00    +0.000 C 
ATOM     11  O   UNL     1       1.579   4.956  18.704  0.00  0.00    +0.000 OA
ENDROOT
BRANCH   9  12
ATOM     12  N   UNL     1       1.981   7.834  19.129  0.00  0.00    +0.000 N 
ATOM     13  C   UNL     1       1.722   7.644  20.463  0.00  0.00    +0.000 C 
ATOM     14  O   UNL     1       2.134   6.797  21.232  0.00  0.00    +0.000 OA
ATOM     15  C   UNL     1       0.851   8.755  20.854  0.00  0.00    +0.000 A 
ATOM     16  C   UNL     1       0.239   9.023  22.059  0.00  0.00    +0.000 A 
ATOM     17  C   UNL     1      -0.491  10.213  22.158  0.00  0.00    +0.000 A 
ATOM     18  C   UNL     1      -0.577  11.096  21.061  0.00  0.00    +0.000 A 
ATOM     19  C   UNL     1       0.029  10.792  19.840  0.00  0.00    +0.000 A 
ATOM     20  C   UNL     1       0.725   9.596  19.761  0.00  0.00    +0.000 A 
ATOM     21  C   UNL     1       1.410   8.976  18.627  0.00  0.00    +0.000 C 
ATOM     22  O   UNL     1       1.387   9.417  17.493  0.00  0.00    +0.000 OA
ENDBRANCH   9  12
BRANCH   1  24
ATOM     23  O   UNL     1       7.714   5.215  14.640  0.00  0.00    +0.000 OA
ATOM     24  C   UNL     1       6.726   4.502  14.654  0.00  0.00    +0.000 C 
BRANCH  24  25
ATOM     25  O   UNL     1       6.521   3.503  13.772  0.00  0.00    +0.000 OA
ATOM     26  H   UNL     1       7.203   2.808  13.743  0.00  0.00    +0.000 HD
ENDBRANCH  24  25
ENDBRANCH   1  24
TORSDOF 3
ENDMDL
MODEL 9
REMARK VINA RESULT:      -7.0      1.766      7.961
REMARK  Name = 
REMARK  3 active torsions:
REMARK  status: ('A' for Active; 'I' for Inactive)
REMARK    1  A    between atoms: C_2  and  O_3
REMARK    2  A    between atoms: C_2  and  C_4
REMARK    3  A    between atoms: N_12  and  N_13
REMARK                            x       y       z     vdW  Elec       q    Type
REMARK                         _______ _______ _______ _____ _____    ______ ____
ROOT
ATOM      1  C   UNL     1      -2.709  12.995  20.834  0.00  0.00    +0.000 A 
ATOM      2  C   UNL     1      -2.024  13.007  22.075  0.00  0.00    +0.000 A 
ATOM      3  C   UNL     1      -0.893  12.205  22.276  0.00  0.00    +0.000 A 
ATOM      4  C   UNL     1      -0.501  11.386  21.234  0.00  0.00    +0.000 A 
ATOM      5  C   UNL     1      -1.215  11.315  20.049  0.00  0.00    +0.000 A 
ATOM      6  C   UNL     1      -2.314  12.119  19.809  0.00  0.00    +0.000 A 
ATOM      7  C   UNL     1      -0.600  10.278  19.218  0.00  0.00    +0.000 C 
ATOM      8  O   UNL     1      -1.061   9.900  18.158  0.00  0.00    +0.000 OA
ATOM      9  N   UNL     1       0.498   9.850  19.919  0.00  0.00    +0.000 N 
ATOM     10  C   UNL     1       0.646  10.483  21.124  0.00  0.00    +0.000 C 
ATOM     11  O   UNL     1       1.531  10.421  21.956  0.00  0.00    +0.000 OA
ENDROOT
BRANCH   9  12
ATOM     12  N   UNL     1       1.372   8.897  19.450  0.00  0.00    +0.000 N 
ATOM     13  C   UNL     1       2.087   9.032  18.287  0.00  0.00    +0.000 C 
ATOM     14  O   UNL     1       2.167   9.969  17.516  0.00  0.00    +0.000 OA
ATOM     15  C   UNL     1       2.848   7.788  18.150  0.00  0.00    +0.000 A 
ATOM     16  C   UNL     1       3.680   7.362  17.137  0.00  0.00    +0.000 A 
ATOM     17  C   UNL     1       4.333   6.137  17.316  0.00  0.00    +0.000 A 
ATOM     18  C   UNL     1       4.145   5.388  18.497  0.00  0.00    +0.000 A 
ATOM     19  C   UNL     1       3.277   5.825  19.499  0.00  0.00    +0.000 A 
ATOM     20  C   UNL     1       2.623   7.029  19.286  0.00  0.00    +0.000 A 
ATOM     21  C   UNL     1       1.627   7.719  20.105  0.00  0.00    +0.000 C 
ATOM     22  O   UNL     1       1.135   7.254  21.117  0.00  0.00    +0.000 OA
ENDBRANCH   9  12
BRANCH   1  24
ATOM     23  O   UNL     1      -5.024  13.414  20.510  0.00  0.00    +0.000 OA
ATOM     24  C   UNL     1      -3.892  13.859  20.590  0.00  0.00    +0.000 C 
BRANCH  24  25
ATOM     25  O   UNL     1      -3.597  15.164  20.424  0.00  0.00    +0.000 OA
ATOM     26  H   UNL     1      -4.250  15.694  19.931  0.00  0.00    +0.000 HD
ENDBRANCH  24  25
ENDBRANCH   1  24
TORSDOF 3
ENDMDL
