MODEL 1
REMARK VINA RESULT:      -7.5      0.000      0.000
REMARK  Name = 
REMARK  5 active torsions:
REMARK  status: ('A' for Active; 'I' for Inactive)
REMARK    1  A    between atoms: C_2  and  C_3
REMARK    2  A    between atoms: C_3  and  O_4
REMARK    3  A    between atoms: O_4  and  C_5
REMARK    4  A    between atoms: C_5  and  C_7
REMARK    5  A    between atoms: N_14  and  C_15
REMARK                            x       y       z     vdW  Elec       q    Type
REMARK                         _______ _______ _______ _____ _____    ______ ____
ROOT
ATOM      1  O   UNL     1       1.514   4.518  19.039  0.00  0.00    +0.000 OA
ATOM      2  C   UNL     1       2.625   4.820  19.461  0.00  0.00    +0.000 C 
ATOM      3  N   UNL     1       3.046   6.074  19.867  0.00  0.00    +0.000 N 
ATOM      4  H   UNL     1       3.994   6.170  20.208  0.00  0.00    +0.000 HD
ENDROOT
BRANCH   3   5
ATOM      5  C   UNL     1       2.259   7.239  19.837  0.00  0.00    +0.000 A 
ATOM      6  N   UNL     1       1.489   7.546  20.899  0.00  0.00    +0.000 NA
ATOM      7  C   UNL     1       0.734   8.668  20.845  0.00  0.00    +0.000 A 
ATOM      8  C   UNL     1       0.711   9.522  19.758  0.00  0.00    +0.000 A 
ATOM      9 CL   UNL     1      -0.276  10.924  19.759  0.00  0.00    +0.000 Cl
ATOM     10  C   UNL     1       1.509   9.215  18.663  0.00  0.00    +0.000 A 
ATOM     11  C   UNL     1       2.293   8.060  18.699  0.00  0.00    +0.000 A 
ATOM     12 CL   UNL     1       3.289   7.688  17.336  0.00  0.00    +0.000 Cl
ENDBRANCH   3   5
BRANCH   2  13
ATOM     13  C   UNL     1       3.681   3.736  19.677  0.00  0.00    +0.000 C 
BRANCH  13  14
ATOM     14  O   UNL     1       4.527   3.506  18.550  0.00  0.00    +0.000 OA
BRANCH  14  15
ATOM     15  C   UNL     1       5.587   4.351  18.469  0.00  0.00    +0.000 C 
ATOM     16  O   UNL     1       6.117   4.926  19.405  0.00  0.00    +0.000 OA
BRANCH  15  17
ATOM     17  C   UNL     1       6.040   4.488  17.073  0.00  0.00    +0.000 A 
ATOM     18  C   UNL     1       5.507   3.755  16.008  0.00  0.00    +0.000 A 
ATOM     19  C   UNL     1       6.008   3.957  14.722  0.00  0.00    +0.000 A 
ATOM     20  C   UNL     1       7.021   4.887  14.554  0.00  0.00    +0.000 A 
ATOM     21 CL   UNL     1       7.687   5.192  13.006  0.00  0.00    +0.000 Cl
ATOM     22  N   UNL     1       7.557   5.614  15.555  0.00  0.00    +0.000 NA
ATOM     23  C   UNL     1       7.052   5.400  16.794  0.00  0.00    +0.000 A 
ENDBRANCH  15  17
ENDBRANCH  14  15
ENDBRANCH  13  14
ENDBRANCH   2  13
TORSDOF 5
ENDMDL
MODEL 2
REMARK VINA RESULT:      -7.2      1.751      2.211
REMARK  Name = 
REMARK  5 active torsions:
REMARK  status: ('A' for Active; 'I' for Inactive)
REMARK    1  A    between atoms: C_2  and  C_3
REMARK    2  A    between atoms: C_3  and  O_4
REMARK    3  A    between atoms: O_4  and  C_5
REMARK    4  A    between atoms: C_5  and  C_7
REMARK    5  A    between atoms: N_14  and  C_15
REMARK                            x       y       z     vdW  Elec       q    Type
REMARK                         _______ _______ _______ _____ _____    ______ ____
ROOT
ATOM      1  O   UNL     1       0.574   4.690  20.351  0.00  0.00    +0.000 OA
ATOM      2  C   UNL     1       1.744   4.863  20.673  0.00  0.00    +0.000 C 
ATOM      3  N   UNL     1       2.428   6.066  20.700  0.00  0.00    +0.000 N 
ATOM      4  H   UNL     1       3.394   6.058  21.002  0.00  0.00    +0.000 HD
ENDROOT
BRANCH   3   5
ATOM      5  C   UNL     1       1.888   7.310  20.328  0.00  0.00    +0.000 A 
ATOM      6  N   UNL     1       1.175   8.018  21.226  0.00  0.00    +0.000 NA
ATOM      7  C   UNL     1       0.658   9.209  20.844  0.00  0.00    +0.000 A 
ATOM      8  C   UNL     1       0.825   9.744  19.581  0.00  0.00    +0.000 A 
ATOM      9 CL   UNL     1       0.135  11.259  19.167  0.00  0.00    +0.000 Cl
ATOM     10  C   UNL     1       1.566   9.024  18.653  0.00  0.00    +0.000 A 
ATOM     11  C   UNL     1       2.105   7.791  19.028  0.00  0.00    +0.000 A 
ATOM     12 CL   UNL     1       3.032   6.903  17.870  0.00  0.00    +0.000 Cl
ENDBRANCH   3   5
BRANCH   2  13
ATOM     13  C   UNL     1       2.573   3.693  21.200  0.00  0.00    +0.000 C 
BRANCH  13  14
ATOM     14  O   UNL     1       2.909   2.717  20.212  0.00  0.00    +0.000 OA
BRANCH  14  15
ATOM     15  C   UNL     1       4.242   2.578  20.000  0.00  0.00    +0.000 C 
ATOM     16  O   UNL     1       5.006   1.897  20.664  0.00  0.00    +0.000 OA
BRANCH  15  17
ATOM     17  C   UNL     1       4.669   3.366  18.829  0.00  0.00    +0.000 A 
ATOM     18  C   UNL     1       5.709   4.300  18.860  0.00  0.00    +0.000 A 
ATOM     19  C   UNL     1       6.035   4.998  17.696  0.00  0.00    +0.000 A 
ATOM     20  C   UNL     1       5.308   4.729  16.548  0.00  0.00    +0.000 A 
ATOM     21 CL   UNL     1       5.648   5.543  15.080  0.00  0.00    +0.000 Cl
ATOM     22  N   UNL     1       4.302   3.833  16.479  0.00  0.00    +0.000 NA
ATOM     23  C   UNL     1       4.006   3.169  17.623  0.00  0.00    +0.000 A 
ENDBRANCH  15  17
ENDBRANCH  14  15
ENDBRANCH  13  14
ENDBRANCH   2  13
TORSDOF 5
ENDMDL
MODEL 3
REMARK VINA RESULT:      -7.2      1.725      2.049
REMARK  Name = 
REMARK  5 active torsions:
REMARK  status: ('A' for Active; 'I' for Inactive)
REMARK    1  A    between atoms: C_2  and  C_3
REMARK    2  A    between atoms: C_3  and  O_4
REMARK    3  A    between atoms: O_4  and  C_5
REMARK    4  A    between atoms: C_5  and  C_7
REMARK    5  A    between atoms: N_14  and  C_15
REMARK                            x       y       z     vdW  Elec       q    Type
REMARK                         _______ _______ _______ _____ _____    ______ ____
ROOT
ATOM      1  O   UNL     1       0.683   4.666  20.040  0.00  0.00    +0.000 OA
ATOM      2  C   UNL     1       1.752   4.893  20.593  0.00  0.00    +0.000 C 
ATOM      3  N   UNL     1       2.336   6.132  20.795  0.00  0.00    +0.000 N 
ATOM      4  H   UNL     1       3.222   6.166  21.284  0.00  0.00    +0.000 HD
ENDROOT
BRANCH   3   5
ATOM      5  C   UNL     1       1.799   7.357  20.364  0.00  0.00    +0.000 A 
ATOM      6  N   UNL     1       1.006   8.062  21.195  0.00  0.00    +0.000 NA
ATOM      7  C   UNL     1       0.493   9.235  20.757  0.00  0.00    +0.000 A 
ATOM      8  C   UNL     1       0.742   9.755  19.500  0.00  0.00    +0.000 A 
ATOM      9 CL   UNL     1       0.052  11.247  19.012  0.00  0.00    +0.000 Cl
ATOM     10  C   UNL     1       1.566   9.038  18.641  0.00  0.00    +0.000 A 
ATOM     11  C   UNL     1       2.102   7.823  19.076  0.00  0.00    +0.000 A 
ATOM     12 CL   UNL     1       3.131   6.940  18.004  0.00  0.00    +0.000 Cl
ENDBRANCH   3   5
BRANCH   2  13
ATOM     13  C   UNL     1       2.538   3.750  21.237  0.00  0.00    +0.000 C 
BRANCH  13  14
ATOM     14  O   UNL     1       2.814   2.659  20.358  0.00  0.00    +0.000 OA
BRANCH  14  15
ATOM     15  C   UNL     1       4.128   2.512  20.051  0.00  0.00    +0.000 C 
ATOM     16  O   UNL     1       4.946   1.870  20.689  0.00  0.00    +0.000 OA
BRANCH  15  17
ATOM     17  C   UNL     1       4.458   3.237  18.811  0.00  0.00    +0.000 A 
ATOM     18  C   UNL     1       3.775   3.062  17.603  0.00  0.00    +0.000 A 
ATOM     19  C   UNL     1       4.167   3.796  16.484  0.00  0.00    +0.000 A 
ATOM     20  C   UNL     1       5.227   4.679  16.619  0.00  0.00    +0.000 A 
ATOM     21 CL   UNL     1       5.766   5.616  15.291  0.00  0.00    +0.000 Cl
ATOM     22  N   UNL     1       5.906   4.877  17.767  0.00  0.00    +0.000 NA
ATOM     23  C   UNL     1       5.505   4.153  18.840  0.00  0.00    +0.000 A 
ENDBRANCH  15  17
ENDBRANCH  14  15
ENDBRANCH  13  14
ENDBRANCH   2  13
TORSDOF 5
ENDMDL
MODEL 4
REMARK VINA RESULT:      -7.1      1.211      1.337
REMARK  Name = 
REMARK  5 active torsions:
REMARK  status: ('A' for Active; 'I' for Inactive)
REMARK    1  A    between atoms: C_2  and  C_3
REMARK    2  A    between atoms: C_3  and  O_4
REMARK    3  A    between atoms: O_4  and  C_5
REMARK    4  A    between atoms: C_5  and  C_7
REMARK    5  A    between atoms: N_14  and  C_15
REMARK                            x       y       z     vdW  Elec       q    Type
REMARK                         _______ _______ _______ _____ _____    ______ ____
ROOT
ATOM      1  O   UNL     1       1.377   5.278  20.809  0.00  0.00    +0.000 OA
ATOM      2  C   UNL     1       2.247   5.753  20.088  0.00  0.00    +0.000 C 
ATOM      3  N   UNL     1       2.475   7.095  19.836  0.00  0.00    +0.000 N 
ATOM      4  H   UNL     1       3.245   7.340  19.226  0.00  0.00    +0.000 HD
ENDROOT
BRANCH   3   5
ATOM      5  C   UNL     1       1.713   8.155  20.357  0.00  0.00    +0.000 A 
ATOM      6  N   UNL     1       1.483   8.217  21.683  0.00  0.00    +0.000 NA
ATOM      7  C   UNL     1       0.741   9.242  22.162  0.00  0.00    +0.000 A 
ATOM      8  C   UNL     1       0.205  10.235  21.363  0.00  0.00    +0.000 A 
ATOM      9 CL   UNL     1      -0.733  11.501  22.041  0.00  0.00    +0.000 Cl
ATOM     10  C   UNL     1       0.444  10.181  19.996  0.00  0.00    +0.000 A 
ATOM     11  C   UNL     1       1.206   9.129  19.483  0.00  0.00    +0.000 A 
ATOM     12 CL   UNL     1       1.505   9.072  17.782  0.00  0.00    +0.000 Cl
ENDBRANCH   3   5
BRANCH   2  13
ATOM     13  C   UNL     1       3.284   4.838  19.437  0.00  0.00    +0.000 C 
BRANCH  13  14
ATOM     14  O   UNL     1       4.274   5.523  18.669  0.00  0.00    +0.000 OA
BRANCH  14  15
ATOM     15  C   UNL     1       5.436   4.837  18.523  0.00  0.00    +0.000 C 
ATOM     16  O   UNL     1       6.065   4.295  19.416  0.00  0.00    +0.000 OA
BRANCH  15  17
ATOM     17  C   UNL     1       5.858   4.819  17.110  0.00  0.00    +0.000 A 
ATOM     18  C   UNL     1       5.129   4.198  16.091  0.00  0.00    +0.000 A 
ATOM     19  C   UNL     1       5.616   4.235  14.784  0.00  0.00    +0.000 A 
ATOM     20  C   UNL     1       6.813   4.895  14.550  0.00  0.00    +0.000 A 
ATOM     21 CL   UNL     1       7.474   4.984  12.974  0.00  0.00    +0.000 Cl
ATOM     22  N   UNL     1       7.540   5.507  15.506  0.00  0.00    +0.000 NA
ATOM     23  C   UNL     1       7.045   5.458  16.767  0.00  0.00    +0.000 A 
ENDBRANCH  15  17
ENDBRANCH  14  15
ENDBRANCH  13  14
ENDBRANCH   2  13
TORSDOF 5
ENDMDL
MODEL 5
REMARK VINA RESULT:      -7.0      3.613      4.476
REMARK  Name = 
REMARK  5 active torsions:
REMARK  status: ('A' for Active; 'I' for Inactive)
REMARK    1  A    between atoms: C_2  and  C_3
REMARK    2  A    between atoms: C_3  and  O_4
REMARK    3  A    between atoms: O_4  and  C_5
REMARK    4  A    between atoms: C_5  and  C_7
REMARK    5  A    between atoms: N_14  and  C_15
REMARK                            x       y       z     vdW  Elec       q    Type
REMARK                         _______ _______ _______ _____ _____    ______ ____
ROOT
ATOM      1  O   UNL     1       6.864   5.492  20.020  0.00  0.00    +0.000 OA
ATOM      2  C   UNL     1       6.960   4.743  19.054  0.00  0.00    +0.000 C 
ATOM      3  N   UNL     1       6.007   3.849  18.599  0.00  0.00    +0.000 N 
ATOM      4  H   UNL     1       6.222   3.303  17.775  0.00  0.00    +0.000 HD
ENDROOT
BRANCH   3   5
ATOM      5  C   UNL     1       4.754   3.629  19.200  0.00  0.00    +0.000 A 
ATOM      6  N   UNL     1       4.609   2.618  20.078  0.00  0.00    +0.000 NA
ATOM      7  C   UNL     1       3.393   2.419  20.638  0.00  0.00    +0.000 A 
ATOM      8  C   UNL     1       2.288   3.203  20.361  0.00  0.00    +0.000 A 
ATOM      9 CL   UNL     1       0.776   2.888  21.106  0.00  0.00    +0.000 Cl
ATOM     10  C   UNL     1       2.433   4.253  19.463  0.00  0.00    +0.000 A 
ATOM     11  C   UNL     1       3.680   4.471  18.873  0.00  0.00    +0.000 A 
ATOM     12 CL   UNL     1       3.855   5.782  17.761  0.00  0.00    +0.000 Cl
ENDBRANCH   3   5
BRANCH   2  13
ATOM     13  C   UNL     1       8.193   4.812  18.154  0.00  0.00    +0.000 C 
BRANCH  13  14
ATOM     14  O   UNL     1       7.968   4.378  16.812  0.00  0.00    +0.000 OA
BRANCH  14  15
ATOM     15  C   UNL     1       7.450   5.334  15.999  0.00  0.00    +0.000 C 
ATOM     16  O   UNL     1       7.561   6.539  16.150  0.00  0.00    +0.000 OA
BRANCH  15  17
ATOM     17  C   UNL     1       6.722   4.723  14.873  0.00  0.00    +0.000 A 
ATOM     18  C   UNL     1       5.437   4.181  14.982  0.00  0.00    +0.000 A 
ATOM     19  C   UNL     1       4.835   3.622  13.854  0.00  0.00    +0.000 A 
ATOM     20  C   UNL     1       5.542   3.631  12.662  0.00  0.00    +0.000 A 
ATOM     21 CL   UNL     1       4.870   2.964  11.236  0.00  0.00    +0.000 Cl
ATOM     22  N   UNL     1       6.780   4.146  12.519  0.00  0.00    +0.000 NA
ATOM     23  C   UNL     1       7.343   4.684  13.629  0.00  0.00    +0.000 A 
ENDBRANCH  15  17
ENDBRANCH  14  15
ENDBRANCH  13  14
ENDBRANCH   2  13
TORSDOF 5
ENDMDL
MODEL 6
REMARK VINA RESULT:      -7.0      0.867      1.146
REMARK  Name = 
REMARK  5 active torsions:
REMARK  status: ('A' for Active; 'I' for Inactive)
REMARK    1  A    between atoms: C_2  and  C_3
REMARK    2  A    between atoms: C_3  and  O_4
REMARK    3  A    between atoms: O_4  and  C_5
REMARK    4  A    between atoms: C_5  and  C_7
REMARK    5  A    between atoms: N_14  and  C_15
REMARK                            x       y       z     vdW  Elec       q    Type
REMARK                         _______ _______ _______ _____ _____    ______ ____
ROOT
ATOM      1  O   UNL     1       1.429   4.539  19.430  0.00  0.00    +0.000 OA
ATOM      2  C   UNL     1       2.565   4.850  19.766  0.00  0.00    +0.000 C 
ATOM      3  N   UNL     1       3.061   6.132  19.931  0.00  0.00    +0.000 N 
ATOM      4  H   UNL     1       4.023   6.235  20.228  0.00  0.00    +0.000 HD
ENDROOT
BRANCH   3   5
ATOM      5  C   UNL     1       2.333   7.314  19.708  0.00  0.00    +0.000 A 
ATOM      6  N   UNL     1       1.532   7.792  20.681  0.00  0.00    +0.000 NA
ATOM      7  C   UNL     1       0.834   8.927  20.442  0.00  0.00    +0.000 A 
ATOM      8  C   UNL     1       0.901   9.628  19.252  0.00  0.00    +0.000 A 
ATOM      9 CL   UNL     1      -0.017  11.058  19.020  0.00  0.00    +0.000 Cl
ATOM     10  C   UNL     1       1.732   9.146  18.249  0.00  0.00    +0.000 A 
ATOM     11  C   UNL     1       2.457   7.974  18.476  0.00  0.00    +0.000 A 
ATOM     12 CL   UNL     1       3.493   7.383  17.225  0.00  0.00    +0.000 Cl
ENDBRANCH   3   5
BRANCH   2  13
ATOM     13  C   UNL     1       3.572   3.766  20.151  0.00  0.00    +0.000 C 
BRANCH  13  14
ATOM     14  O   UNL     1       4.483   3.413  19.110  0.00  0.00    +0.000 OA
BRANCH  14  15
ATOM     15  C   UNL     1       5.469   4.323  18.902  0.00  0.00    +0.000 C 
ATOM     16  O   UNL     1       5.985   5.027  19.754  0.00  0.00    +0.000 OA
BRANCH  15  17
ATOM     17  C   UNL     1       5.861   4.353  17.481  0.00  0.00    +0.000 A 
ATOM     18  C   UNL     1       7.142   4.693  17.036  0.00  0.00    +0.000 A 
ATOM     19  C   UNL     1       7.411   4.694  15.667  0.00  0.00    +0.000 A 
ATOM     20  C   UNL     1       6.386   4.353  14.799  0.00  0.00    +0.000 A 
ATOM     21 CL   UNL     1       6.638   4.332  13.105  0.00  0.00    +0.000 Cl
ATOM     22  N   UNL     1       5.140   4.018  15.191  0.00  0.00    +0.000 NA
ATOM     23  C   UNL     1       4.905   4.023  16.526  0.00  0.00    +0.000 A 
ENDBRANCH  15  17
ENDBRANCH  14  15
ENDBRANCH  13  14
ENDBRANCH   2  13
TORSDOF 5
ENDMDL
MODEL 7
REMARK VINA RESULT:      -6.8      3.889      4.731
REMARK  Name = 
REMARK  5 active torsions:
REMARK  status: ('A' for Active; 'I' for Inactive)
REMARK    1  A    between atoms: C_2  and  C_3
REMARK    2  A    between atoms: C_3  and  O_4
REMARK    3  A    between atoms: O_4  and  C_5
REMARK    4  A    between atoms: C_5  and  C_7
REMARK    5  A    between atoms: N_14  and  C_15
REMARK                            x       y       z     vdW  Elec       q    Type
REMARK                         _______ _______ _______ _____ _____    ______ ____
ROOT
ATOM      1  O   UNL     1       6.041   5.626  19.593  0.00  0.00    +0.000 OA
ATOM      2  C   UNL     1       6.415   4.746  18.827  0.00  0.00    +0.000 C 
ATOM      3  N   UNL     1       5.646   3.723  18.298  0.00  0.00    +0.000 N 
ATOM      4  H   UNL     1       6.092   3.073  17.663  0.00  0.00    +0.000 HD
ENDROOT
BRANCH   3   5
ATOM      5  C   UNL     1       4.287   3.506  18.582  0.00  0.00    +0.000 A 
ATOM      6  N   UNL     1       3.348   4.156  17.867  0.00  0.00    +0.000 NA
ATOM      7  C   UNL     1       2.046   3.938  18.162  0.00  0.00    +0.000 A 
ATOM      8  C   UNL     1       1.622   3.078  19.159  0.00  0.00    +0.000 A 
ATOM      9 CL   UNL     1      -0.048   2.856  19.481  0.00  0.00    +0.000 Cl
ATOM     10  C   UNL     1       2.585   2.398  19.895  0.00  0.00    +0.000 A 
ATOM     11  C   UNL     1       3.934   2.613  19.606  0.00  0.00    +0.000 A 
ATOM     12 CL   UNL     1       5.126   1.759  20.522  0.00  0.00    +0.000 Cl
ENDBRANCH   3   5
BRANCH   2  13
ATOM     13  C   UNL     1       7.842   4.765  18.278  0.00  0.00    +0.000 C 
BRANCH  13  14
ATOM     14  O   UNL     1       7.945   4.428  16.894  0.00  0.00    +0.000 OA
BRANCH  14  15
ATOM     15  C   UNL     1       7.512   5.399  16.052  0.00  0.00    +0.000 C 
ATOM     16  O   UNL     1       7.589   6.601  16.244  0.00  0.00    +0.000 OA
BRANCH  15  17
ATOM     17  C   UNL     1       6.925   4.810  14.834  0.00  0.00    +0.000 A 
ATOM     18  C   UNL     1       7.556   4.818  13.586  0.00  0.00    +0.000 A 
ATOM     19  C   UNL     1       6.914   4.235  12.493  0.00  0.00    +0.000 A 
ATOM     20  C   UNL     1       5.667   3.665  12.695  0.00  0.00    +0.000 A 
ATOM     21 CL   UNL     1       4.816   2.930  11.403  0.00  0.00    +0.000 Cl
ATOM     22  N   UNL     1       5.029   3.636  13.883  0.00  0.00    +0.000 NA
ATOM     23  C   UNL     1       5.675   4.208  14.929  0.00  0.00    +0.000 A 
ENDBRANCH  15  17
ENDBRANCH  14  15
ENDBRANCH  13  14
ENDBRANCH   2  13
TORSDOF 5
ENDMDL
MODEL 8
REMARK VINA RESULT:      -6.8      3.308      7.465
REMARK  Name = 
REMARK  5 active torsions:
REMARK  status: ('A' for Active; 'I' for Inactive)
REMARK    1  A    between atoms: C_2  and  C_3
REMARK    2  A    between atoms: C_3  and  O_4
REMARK    3  A    between atoms: O_4  and  C_5
REMARK    4  A    between atoms: C_5  and  C_7
REMARK    5  A    between atoms: N_14  and  C_15
REMARK                            x       y       z     vdW  Elec       q    Type
REMARK                         _______ _______ _______ _____ _____    ______ ____
ROOT
ATOM      1  O   UNL     1       8.133   4.166  17.412  0.00  0.00    +0.000 OA
ATOM      2  C   UNL     1       7.575   5.252  17.306  0.00  0.00    +0.000 C 
ATOM      3  N   UNL     1       6.999   5.782  16.164  0.00  0.00    +0.000 N 
ATOM      4  H   UNL     1       6.560   6.691  16.231  0.00  0.00    +0.000 HD
ENDROOT
BRANCH   3   5
ATOM      5  C   UNL     1       6.983   5.158  14.904  0.00  0.00    +0.000 A 
ATOM      6  N   UNL     1       7.893   5.515  13.977  0.00  0.00    +0.000 NA
ATOM      7  C   UNL     1       7.854   4.907  12.768  0.00  0.00    +0.000 A 
ATOM      8  C   UNL     1       6.932   3.933  12.433  0.00  0.00    +0.000 A 
ATOM      9 CL   UNL     1       6.941   3.210  10.877  0.00  0.00    +0.000 Cl
ATOM     10  C   UNL     1       5.997   3.555  13.387  0.00  0.00    +0.000 A 
ATOM     11  C   UNL     1       6.020   4.174  14.639  0.00  0.00    +0.000 A 
ATOM     12 CL   UNL     1       4.857   3.693  15.825  0.00  0.00    +0.000 Cl
ENDBRANCH   3   5
BRANCH   2  13
ATOM     13  C   UNL     1       7.373   6.131  18.540  0.00  0.00    +0.000 C 
BRANCH  13  14
ATOM     14  O   UNL     1       6.283   5.734  19.374  0.00  0.00    +0.000 OA
BRANCH  14  15
ATOM     15  C   UNL     1       5.062   5.883  18.800  0.00  0.00    +0.000 C 
ATOM     16  O   UNL     1       4.812   6.549  17.810  0.00  0.00    +0.000 OA
BRANCH  15  17
ATOM     17  C   UNL     1       4.042   5.115  19.537  0.00  0.00    +0.000 A 
ATOM     18  C   UNL     1       2.889   5.683  20.087  0.00  0.00    +0.000 A 
ATOM     19  C   UNL     1       1.985   4.867  20.769  0.00  0.00    +0.000 A 
ATOM     20  C   UNL     1       2.272   3.515  20.870  0.00  0.00    +0.000 A 
ATOM     21 CL   UNL     1       1.211   2.450  21.692  0.00  0.00    +0.000 Cl
ATOM     22  N   UNL     1       3.371   2.932  20.350  0.00  0.00    +0.000 NA
ATOM     23  C   UNL     1       4.232   3.746  19.692  0.00  0.00    +0.000 A 
ENDBRANCH  15  17
ENDBRANCH  14  15
ENDBRANCH  13  14
ENDBRANCH   2  13
TORSDOF 5
ENDMDL
MODEL 9
REMARK VINA RESULT:      -6.8      2.515      5.924
REMARK  Name = 
REMARK  5 active torsions:
REMARK  status: ('A' for Active; 'I' for Inactive)
REMARK    1  A    between atoms: C_2  and  C_3
REMARK    2  A    between atoms: C_3  and  O_4
REMARK    3  A    between atoms: O_4  and  C_5
REMARK    4  A    between atoms: C_5  and  C_7
REMARK    5  A    between atoms: N_14  and  C_15
REMARK                            x       y       z     vdW  Elec       q    Type
REMARK                         _______ _______ _______ _____ _____    ______ ____
ROOT
ATOM      1  O   UNL     1       4.879   3.183  20.018  0.00  0.00    +0.000 OA
ATOM      2  C   UNL     1       4.701   3.031  18.815  0.00  0.00    +0.000 C 
ATOM      3  N   UNL     1       5.246   3.788  17.792  0.00  0.00    +0.000 N 
ATOM      4  H   UNL     1       5.018   3.534  16.839  0.00  0.00    +0.000 HD
ENDROOT
BRANCH   3   5
ATOM      5  C   UNL     1       6.093   4.896  17.971  0.00  0.00    +0.000 A 
ATOM      6  N   UNL     1       6.999   4.883  18.968  0.00  0.00    +0.000 NA
ATOM      7  C   UNL     1       7.799   5.964  19.126  0.00  0.00    +0.000 A 
ATOM      8  C   UNL     1       7.739   7.083  18.317  0.00  0.00    +0.000 A 
ATOM      9 CL   UNL     1       8.782   8.419  18.583  0.00  0.00    +0.000 Cl
ATOM     10  C   UNL     1       6.812   7.100  17.283  0.00  0.00    +0.000 A 
ATOM     11  C   UNL     1       5.976   5.994  17.106  0.00  0.00    +0.000 A 
ATOM     12 CL   UNL     1       4.830   6.019  15.813  0.00  0.00    +0.000 Cl
ENDBRANCH   3   5
BRANCH   2  13
ATOM     13  C   UNL     1       3.876   1.848  18.308  0.00  0.00    +0.000 C 
BRANCH  13  14
ATOM     14  O   UNL     1       2.675   2.215  17.629  0.00  0.00    +0.000 OA
BRANCH  14  15
ATOM     15  C   UNL     1       1.651   2.553  18.454  0.00  0.00    +0.000 C 
ATOM     16  O   UNL     1       0.765   1.809  18.838  0.00  0.00    +0.000 OA
BRANCH  15  17
ATOM     17  C   UNL     1       1.746   3.970  18.850  0.00  0.00    +0.000 A 
ATOM     18  C   UNL     1       2.062   5.004  17.963  0.00  0.00    +0.000 A 
ATOM     19  C   UNL     1       2.129   6.315  18.439  0.00  0.00    +0.000 A 
ATOM     20  C   UNL     1       1.874   6.536  19.783  0.00  0.00    +0.000 A 
ATOM     21 CL   UNL     1       1.937   8.116  20.440  0.00  0.00    +0.000 Cl
ATOM     22  N   UNL     1       1.564   5.566  20.666  0.00  0.00    +0.000 NA
ATOM     23  C   UNL     1       1.504   4.302  20.178  0.00  0.00    +0.000 A 
ENDBRANCH  15  17
ENDBRANCH  14  15
ENDBRANCH  13  14
ENDBRANCH   2  13
TORSDOF 5
ENDMDL
