MODEL 1
REMARK VINA RESULT:      -8.0      0.000      0.000
REMARK  Name = 
REMARK  6 active torsions:
REMARK  status: ('A' for Active; 'I' for Inactive)
REMARK    1  A    between atoms: C_2  and  O_3
REMARK    2  A    between atoms: C_2  and  C_4
REMARK    3  A    between atoms: C_4  and  C_5
REMARK    4  A    between atoms: C_13  and  S_14
REMARK    5  A    between atoms: S_14  and  C_15
REMARK    6  A    between atoms: C_21  and  O_22
REMARK                            x       y       z     vdW  Elec       q    Type
REMARK                         _______ _______ _______ _____ _____    ______ ____
ROOT
ATOM      1  C   UNL     1       2.597   6.162  19.176  0.00  0.00    +0.000 A 
ATOM      2  C   UNL     1       2.574   6.606  17.840  0.00  0.00    +0.000 A 
ATOM      3  C   UNL     1       2.100   7.880  17.508  0.00  0.00    +0.000 A 
ATOM      4  C   UNL     1       1.639   8.748  18.506  0.00  0.00    +0.000 A 
ATOM      5  C   UNL     1       1.701   8.340  19.835  0.00  0.00    +0.000 A 
ATOM      6  C   UNL     1       2.142   7.054  20.158  0.00  0.00    +0.000 A 
ATOM      7  O   UNL     1       1.316   9.116  20.895  0.00  0.00    +0.000 OA
ATOM      8  C   UNL     1       1.016  10.486  20.591  0.00  0.00    +0.000 C 
ATOM      9  C   UNL     1       0.220  10.666  19.294  0.00  0.00    +0.000 C 
ATOM     10  C   UNL     1       1.093  10.105  18.157  0.00  0.00    +0.000 C 
ENDROOT
BRANCH   1  11
ATOM     11  C   UNL     1       3.087   4.737  19.504  0.00  0.00    +0.000 C 
ATOM     12  C   UNL     1       2.501   3.613  18.618  0.00  0.00    +0.000 C 
ATOM     13  C   UNL     1       1.091   3.373  19.154  0.00  0.00    +0.000 C 
ATOM     14  C   UNL     1       1.150   3.727  20.635  0.00  0.00    +0.000 C 
ATOM     15  C   UNL     1       2.550   4.290  20.887  0.00  0.00    +0.000 C 
BRANCH  11  17
ATOM     16  O   UNL     1       5.400   5.547  19.596  0.00  0.00    +0.000 OA
ATOM     17  C   UNL     1       4.626   4.605  19.457  0.00  0.00    +0.000 C 
BRANCH  17  18
ATOM     18  O   UNL     1       5.095   3.348  19.315  0.00  0.00    +0.000 OA
ATOM     19  H   UNL     1       4.979   2.965  18.420  0.00  0.00    +0.000 HD
ENDBRANCH  17  18
ENDBRANCH  11  17
ENDBRANCH   1  11
BRANCH  10  20
ATOM     20  O   UNL     1       2.192  11.003  17.933  0.00  0.00    +0.000 OA
ATOM     21  H   UNL     1       1.834  11.848  17.604  0.00  0.00    +0.000 HD
ENDBRANCH  10  20
BRANCH   9  22
ATOM     22  S   UNL     1      -1.427   9.835  19.519  0.00  0.00    +0.000 S 
BRANCH  22  23
ATOM     23  C   UNL     1      -2.299  10.330  18.053  0.00  0.00    +0.000 A 
ATOM     24  C   UNL     1      -1.923   9.768  16.828  0.00  0.00    +0.000 A 
ATOM     25  C   UNL     1      -2.585  10.130  15.654  0.00  0.00    +0.000 A 
ATOM     26  C   UNL     1      -3.639  11.039  15.702  0.00  0.00    +0.000 A 
ATOM     27  C   UNL     1      -4.037  11.580  16.925  0.00  0.00    +0.000 A 
ATOM     28  C   UNL     1      -3.370  11.224  18.099  0.00  0.00    +0.000 A 
ENDBRANCH  22  23
ENDBRANCH   9  22
TORSDOF 6
ENDMDL
MODEL 2
REMARK VINA RESULT:      -7.5      0.584      1.196
REMARK  Name = 
REMARK  6 active torsions:
REMARK  status: ('A' for Active; 'I' for Inactive)
REMARK    1  A    between atoms: C_2  and  O_3
REMARK    2  A    between atoms: C_2  and  C_4
REMARK    3  A    between atoms: C_4  and  C_5
REMARK    4  A    between atoms: C_13  and  S_14
REMARK    5  A    between atoms: S_14  and  C_15
REMARK    6  A    between atoms: C_21  and  O_22
REMARK                            x       y       z     vdW  Elec       q    Type
REMARK                         _______ _______ _______ _____ _____    ______ ____
ROOT
ATOM      1  C   UNL     1       2.531   6.595  18.992  0.00  0.00    +0.000 A 
ATOM      2  C   UNL     1       2.461   7.158  17.704  0.00  0.00    +0.000 A 
ATOM      3  C   UNL     1       1.948   8.444  17.502  0.00  0.00    +0.000 A 
ATOM      4  C   UNL     1       1.492   9.205  18.586  0.00  0.00    +0.000 A 
ATOM      5  C   UNL     1       1.600   8.679  19.870  0.00  0.00    +0.000 A 
ATOM      6  C   UNL     1       2.080   7.382  20.064  0.00  0.00    +0.000 A 
ATOM      7  O   UNL     1       1.224   9.345  21.006  0.00  0.00    +0.000 OA
ATOM      8  C   UNL     1       0.883  10.729  20.836  0.00  0.00    +0.000 C 
ATOM      9  C   UNL     1       0.048  11.004  19.581  0.00  0.00    +0.000 C 
ATOM     10  C   UNL     1       0.904  10.573  18.377  0.00  0.00    +0.000 C 
ENDROOT
BRANCH   1  11
ATOM     11  C   UNL     1       3.065   5.160  19.176  0.00  0.00    +0.000 C 
ATOM     12  C   UNL     1       2.299   4.063  18.401  0.00  0.00    +0.000 C 
ATOM     13  C   UNL     1       1.027   3.814  19.208  0.00  0.00    +0.000 C 
ATOM     14  C   UNL     1       1.391   4.128  20.655  0.00  0.00    +0.000 C 
ATOM     15  C   UNL     1       2.818   4.678  20.628  0.00  0.00    +0.000 C 
BRANCH  11  17
ATOM     16  O   UNL     1       4.969   4.615  17.731  0.00  0.00    +0.000 OA
ATOM     17  C   UNL     1       4.560   5.024  18.812  0.00  0.00    +0.000 C 
BRANCH  17  18
ATOM     18  O   UNL     1       5.426   5.452  19.755  0.00  0.00    +0.000 OA
ATOM     19  H   UNL     1       6.282   5.780  19.408  0.00  0.00    +0.000 HD
ENDBRANCH  17  18
ENDBRANCH  11  17
ENDBRANCH   1  11
BRANCH  10  20
ATOM     20  O   UNL     1       1.974  11.517  18.209  0.00  0.00    +0.000 OA
ATOM     21  H   UNL     1       1.859  11.958  17.347  0.00  0.00    +0.000 HD
ENDBRANCH  10  20
BRANCH   9  22
ATOM     22  S   UNL     1      -1.571  10.112  19.769  0.00  0.00    +0.000 S 
BRANCH  22  23
ATOM     23  C   UNL     1      -2.351  10.419  18.203  0.00  0.00    +0.000 A 
ATOM     24  C   UNL     1      -3.435  11.303  18.156  0.00  0.00    +0.000 A 
ATOM     25  C   UNL     1      -4.073  11.570  16.944  0.00  0.00    +0.000 A 
ATOM     26  C   UNL     1      -3.618  10.972  15.772  0.00  0.00    +0.000 A 
ATOM     27  C   UNL     1      -2.519  10.113  15.809  0.00  0.00    +0.000 A 
ATOM     28  C   UNL     1      -1.886   9.838  17.022  0.00  0.00    +0.000 A 
ENDBRANCH  22  23
ENDBRANCH   9  22
TORSDOF 6
ENDMDL
MODEL 3
REMARK VINA RESULT:      -7.2      1.384      2.244
REMARK  Name = 
REMARK  6 active torsions:
REMARK  status: ('A' for Active; 'I' for Inactive)
REMARK    1  A    between atoms: C_2  and  O_3
REMARK    2  A    between atoms: C_2  and  C_4
REMARK    3  A    between atoms: C_4  and  C_5
REMARK    4  A    between atoms: C_13  and  S_14
REMARK    5  A    between atoms: S_14  and  C_15
REMARK    6  A    between atoms: C_21  and  O_22
REMARK                            x       y       z     vdW  Elec       q    Type
REMARK                         _______ _______ _______ _____ _____    ______ ____
ROOT
ATOM      1  C   UNL     1       2.297   6.838  19.145  0.00  0.00    +0.000 A 
ATOM      2  C   UNL     1       2.224   7.348  17.835  0.00  0.00    +0.000 A 
ATOM      3  C   UNL     1       1.753   8.642  17.586  0.00  0.00    +0.000 A 
ATOM      4  C   UNL     1       1.345   9.464  18.644  0.00  0.00    +0.000 A 
ATOM      5  C   UNL     1       1.456   8.989  19.948  0.00  0.00    +0.000 A 
ATOM      6  C   UNL     1       1.894   7.685  20.189  0.00  0.00    +0.000 A 
ATOM      7  O   UNL     1       1.125   9.716  21.060  0.00  0.00    +0.000 OA
ATOM      8  C   UNL     1       0.830  11.102  20.837  0.00  0.00    +0.000 C 
ATOM      9  C   UNL     1      -0.017  11.355  19.585  0.00  0.00    +0.000 C 
ATOM     10  C   UNL     1       0.801  10.842  18.386  0.00  0.00    +0.000 C 
ENDROOT
BRANCH   1  11
ATOM     11  C   UNL     1       2.782   5.393  19.382  0.00  0.00    +0.000 C 
ATOM     12  C   UNL     1       4.281   5.245  19.731  0.00  0.00    +0.000 C 
ATOM     13  C   UNL     1       5.020   5.395  18.403  0.00  0.00    +0.000 C 
ATOM     14  C   UNL     1       4.055   4.889  17.337  0.00  0.00    +0.000 C 
ATOM     15  C   UNL     1       2.739   4.589  18.058  0.00  0.00    +0.000 C 
BRANCH  11  17
ATOM     16  O   UNL     1       0.863   4.180  20.309  0.00  0.00    +0.000 OA
ATOM     17  C   UNL     1       1.978   4.662  20.480  0.00  0.00    +0.000 C 
BRANCH  17  18
ATOM     18  O   UNL     1       2.612   4.520  21.664  0.00  0.00    +0.000 OA
ATOM     19  H   UNL     1       3.326   3.849  21.669  0.00  0.00    +0.000 HD
ENDBRANCH  17  18
ENDBRANCH  11  17
ENDBRANCH   1  11
BRANCH  10  20
ATOM     20  O   UNL     1       1.901  11.739  18.160  0.00  0.00    +0.000 OA
ATOM     21  H   UNL     1       2.629  11.484  18.758  0.00  0.00    +0.000 HD
ENDBRANCH  10  20
BRANCH   9  22
ATOM     22  S   UNL     1      -1.663  10.531  19.837  0.00  0.00    +0.000 S 
BRANCH  22  23
ATOM     23  C   UNL     1      -2.383  10.629  18.217  0.00  0.00    +0.000 A 
ATOM     24  C   UNL     1      -3.460  11.499  18.013  0.00  0.00    +0.000 A 
ATOM     25  C   UNL     1      -4.052  11.605  16.754  0.00  0.00    +0.000 A 
ATOM     26  C   UNL     1      -3.557  10.858  15.688  0.00  0.00    +0.000 A 
ATOM     27  C   UNL     1      -2.465  10.011  15.879  0.00  0.00    +0.000 A 
ATOM     28  C   UNL     1      -1.878   9.898  17.140  0.00  0.00    +0.000 A 
ENDBRANCH  22  23
ENDBRANCH   9  22
TORSDOF 6
ENDMDL
MODEL 4
REMARK VINA RESULT:      -7.1      1.363      2.005
REMARK  Name = 
REMARK  6 active torsions:
REMARK  status: ('A' for Active; 'I' for Inactive)
REMARK    1  A    between atoms: C_2  and  O_3
REMARK    2  A    between atoms: C_2  and  C_4
REMARK    3  A    between atoms: C_4  and  C_5
REMARK    4  A    between atoms: C_13  and  S_14
REMARK    5  A    between atoms: S_14  and  C_15
REMARK    6  A    between atoms: C_21  and  O_22
REMARK                            x       y       z     vdW  Elec       q    Type
REMARK                         _______ _______ _______ _____ _____    ______ ____
ROOT
ATOM      1  C   UNL     1       2.347   6.754  19.146  0.00  0.00    +0.000 A 
ATOM      2  C   UNL     1       2.293   7.271  17.838  0.00  0.00    +0.000 A 
ATOM      3  C   UNL     1       1.813   8.562  17.589  0.00  0.00    +0.000 A 
ATOM      4  C   UNL     1       1.376   9.373  18.644  0.00  0.00    +0.000 A 
ATOM      5  C   UNL     1       1.468   8.890  19.947  0.00  0.00    +0.000 A 
ATOM      6  C   UNL     1       1.915   7.589  20.188  0.00  0.00    +0.000 A 
ATOM      7  O   UNL     1       1.108   9.606  21.057  0.00  0.00    +0.000 OA
ATOM      8  C   UNL     1       0.802  10.991  20.837  0.00  0.00    +0.000 C 
ATOM      9  C   UNL     1      -0.024  11.242  19.571  0.00  0.00    +0.000 C 
ATOM     10  C   UNL     1       0.822  10.747  18.384  0.00  0.00    +0.000 C 
ENDROOT
BRANCH   1  11
ATOM     11  C   UNL     1       2.843   5.313  19.383  0.00  0.00    +0.000 C 
ATOM     12  C   UNL     1       4.344   5.176  19.733  0.00  0.00    +0.000 C 
ATOM     13  C   UNL     1       5.082   5.332  18.406  0.00  0.00    +0.000 C 
ATOM     14  C   UNL     1       4.121   4.819  17.339  0.00  0.00    +0.000 C 
ATOM     15  C   UNL     1       2.808   4.509  18.058  0.00  0.00    +0.000 C 
BRANCH  11  17
ATOM     16  O   UNL     1       2.474   4.347  21.607  0.00  0.00    +0.000 OA
ATOM     17  C   UNL     1       2.044   4.575  20.481  0.00  0.00    +0.000 C 
BRANCH  17  18
ATOM     18  O   UNL     1       0.780   4.237  20.148  0.00  0.00    +0.000 OA
ATOM     19  H   UNL     1       0.706   3.622  19.389  0.00  0.00    +0.000 HD
ENDBRANCH  17  18
ENDBRANCH  11  17
ENDBRANCH   1  11
BRANCH  10  20
ATOM     20  O   UNL     1       1.917  11.656  18.185  0.00  0.00    +0.000 OA
ATOM     21  H   UNL     1       2.090  12.114  19.029  0.00  0.00    +0.000 HD
ENDBRANCH  10  20
BRANCH   9  22
ATOM     22  S   UNL     1      -1.665  10.399  19.787  0.00  0.00    +0.000 S 
BRANCH  22  23
ATOM     23  C   UNL     1      -2.405  10.605  18.185  0.00  0.00    +0.000 A 
ATOM     24  C   UNL     1      -1.928   9.830  17.122  0.00  0.00    +0.000 A 
ATOM     25  C   UNL     1      -2.485   9.963  15.849  0.00  0.00    +0.000 A 
ATOM     26  C   UNL     1      -3.534  10.853  15.638  0.00  0.00    +0.000 A 
ATOM     27  C   UNL     1      -4.033  11.606  16.701  0.00  0.00    +0.000 A 
ATOM     28  C   UNL     1      -3.471  11.481  17.973  0.00  0.00    +0.000 A 
ENDBRANCH  22  23
ENDBRANCH   9  22
TORSDOF 6
ENDMDL
MODEL 5
REMARK VINA RESULT:      -7.0      1.108      1.634
REMARK  Name = 
REMARK  6 active torsions:
REMARK  status: ('A' for Active; 'I' for Inactive)
REMARK    1  A    between atoms: C_2  and  O_3
REMARK    2  A    between atoms: C_2  and  C_4
REMARK    3  A    between atoms: C_4  and  C_5
REMARK    4  A    between atoms: C_13  and  S_14
REMARK    5  A    between atoms: S_14  and  C_15
REMARK    6  A    between atoms: C_21  and  O_22
REMARK                            x       y       z     vdW  Elec       q    Type
REMARK                         _______ _______ _______ _____ _____    ______ ____
ROOT
ATOM      1  C   UNL     1       2.918   6.234  18.867  0.00  0.00    +0.000 A 
ATOM      2  C   UNL     1       3.324   6.843  17.665  0.00  0.00    +0.000 A 
ATOM      3  C   UNL     1       2.938   8.150  17.349  0.00  0.00    +0.000 A 
ATOM      4  C   UNL     1       2.137   8.887  18.231  0.00  0.00    +0.000 A 
ATOM      5  C   UNL     1       1.767   8.313  19.444  0.00  0.00    +0.000 A 
ATOM      6  C   UNL     1       2.125   6.996  19.739  0.00  0.00    +0.000 A 
ATOM      7  O   UNL     1       1.020   8.950  20.398  0.00  0.00    +0.000 OA
ATOM      8  C   UNL     1       0.784  10.348  20.178  0.00  0.00    +0.000 C 
ATOM      9  C   UNL     1       0.460  10.693  18.720  0.00  0.00    +0.000 C 
ATOM     10  C   UNL     1       1.684  10.279  17.884  0.00  0.00    +0.000 C 
ENDROOT
BRANCH   1  11
ATOM     11  C   UNL     1       3.326   4.777  19.167  0.00  0.00    +0.000 C 
ATOM     12  C   UNL     1       2.831   3.725  18.148  0.00  0.00    +0.000 C 
ATOM     13  C   UNL     1       1.359   3.501  18.485  0.00  0.00    +0.000 C 
ATOM     14  C   UNL     1       1.236   3.767  19.981  0.00  0.00    +0.000 C 
ATOM     15  C   UNL     1       2.605   4.269  20.441  0.00  0.00    +0.000 C 
BRANCH  11  17
ATOM     16  O   UNL     1       5.623   5.496  19.638  0.00  0.00    +0.000 OA
ATOM     17  C   UNL     1       4.855   4.599  19.308  0.00  0.00    +0.000 C 
BRANCH  17  18
ATOM     18  O   UNL     1       5.312   3.345  19.104  0.00  0.00    +0.000 OA
ATOM     19  H   UNL     1       5.102   2.710  19.819  0.00  0.00    +0.000 HD
ENDBRANCH  17  18
ENDBRANCH  11  17
ENDBRANCH   1  11
BRANCH  10  20
ATOM     20  O   UNL     1       2.759  11.194  18.153  0.00  0.00    +0.000 OA
ATOM     21  H   UNL     1       3.436  10.725  18.674  0.00  0.00    +0.000 HD
ENDBRANCH  10  20
BRANCH   9  22
ATOM     22  S   UNL     1      -1.132   9.846  18.277  0.00  0.00    +0.000 S 
BRANCH  22  23
ATOM     23  C   UNL     1      -2.347  11.020  18.826  0.00  0.00    +0.000 A 
ATOM     24  C   UNL     1      -3.617  10.994  18.242  0.00  0.00    +0.000 A 
ATOM     25  C   UNL     1      -4.598  11.899  18.647  0.00  0.00    +0.000 A 
ATOM     26  C   UNL     1      -4.321  12.821  19.653  0.00  0.00    +0.000 A 
ATOM     27  C   UNL     1      -3.065  12.832  20.260  0.00  0.00    +0.000 A 
ATOM     28  C   UNL     1      -2.080  11.932  19.849  0.00  0.00    +0.000 A 
ENDBRANCH  22  23
ENDBRANCH   9  22
TORSDOF 6
ENDMDL
MODEL 6
REMARK VINA RESULT:      -6.8      1.478      2.388
REMARK  Name = 
REMARK  6 active torsions:
REMARK  status: ('A' for Active; 'I' for Inactive)
REMARK    1  A    between atoms: C_2  and  O_3
REMARK    2  A    between atoms: C_2  and  C_4
REMARK    3  A    between atoms: C_4  and  C_5
REMARK    4  A    between atoms: C_13  and  S_14
REMARK    5  A    between atoms: S_14  and  C_15
REMARK    6  A    between atoms: C_21  and  O_22
REMARK                            x       y       z     vdW  Elec       q    Type
REMARK                         _______ _______ _______ _____ _____    ______ ____
ROOT
ATOM      1  C   UNL     1       2.422   6.728  18.641  0.00  0.00    +0.000 A 
ATOM      2  C   UNL     1       2.316   7.483  17.458  0.00  0.00    +0.000 A 
ATOM      3  C   UNL     1       1.834   8.797  17.478  0.00  0.00    +0.000 A 
ATOM      4  C   UNL     1       1.447   9.393  18.685  0.00  0.00    +0.000 A 
ATOM      5  C   UNL     1       1.591   8.673  19.868  0.00  0.00    +0.000 A 
ATOM      6  C   UNL     1       2.040   7.351  19.839  0.00  0.00    +0.000 A 
ATOM      7  O   UNL     1       1.284   9.165  21.108  0.00  0.00    +0.000 OA
ATOM      8  C   UNL     1       0.978  10.566  21.167  0.00  0.00    +0.000 C 
ATOM      9  C   UNL     1       0.101  11.052  20.008  0.00  0.00    +0.000 C 
ATOM     10  C   UNL     1       0.893  10.791  18.714  0.00  0.00    +0.000 C 
ENDROOT
BRANCH   1  11
ATOM     11  C   UNL     1       2.918   5.269  18.580  0.00  0.00    +0.000 C 
ATOM     12  C   UNL     1       3.916   4.859  19.687  0.00  0.00    +0.000 C 
ATOM     13  C   UNL     1       5.257   5.452  19.259  0.00  0.00    +0.000 C 
ATOM     14  C   UNL     1       5.218   5.496  17.736  0.00  0.00    +0.000 C 
ATOM     15  C   UNL     1       3.810   5.058  17.330  0.00  0.00    +0.000 C 
BRANCH  11  17
ATOM     16  O   UNL     1       1.032   4.045  19.560  0.00  0.00    +0.000 OA
ATOM     17  C   UNL     1       1.764   4.241  18.595  0.00  0.00    +0.000 C 
BRANCH  17  18
ATOM     18  O   UNL     1       1.553   3.590  17.432  0.00  0.00    +0.000 OA
ATOM     19  H   UNL     1       2.146   3.856  16.699  0.00  0.00    +0.000 HD
ENDBRANCH  17  18
ENDBRANCH  11  17
ENDBRANCH   1  11
BRANCH  10  20
ATOM     20  O   UNL     1       1.984  11.723  18.644  0.00  0.00    +0.000 OA
ATOM     21  H   UNL     1       2.052  12.177  19.504  0.00  0.00    +0.000 HD
ENDBRANCH  10  20
BRANCH   9  22
ATOM     22  S   UNL     1      -1.535  10.180  20.132  0.00  0.00    +0.000 S 
BRANCH  22  23
ATOM     23  C   UNL     1      -2.230  10.460  18.521  0.00  0.00    +0.000 A 
ATOM     24  C   UNL     1      -3.245  11.413  18.384  0.00  0.00    +0.000 A 
ATOM     25  C   UNL     1      -3.815  11.661  17.135  0.00  0.00    +0.000 A 
ATOM     26  C   UNL     1      -3.358  10.974  16.014  0.00  0.00    +0.000 A 
ATOM     27  C   UNL     1      -2.327  10.043  16.139  0.00  0.00    +0.000 A 
ATOM     28  C   UNL     1      -1.762   9.788  17.390  0.00  0.00    +0.000 A 
ENDBRANCH  22  23
ENDBRANCH   9  22
TORSDOF 6
ENDMDL
MODEL 7
REMARK VINA RESULT:      -6.7      5.143      7.364
REMARK  Name = 
REMARK  6 active torsions:
REMARK  status: ('A' for Active; 'I' for Inactive)
REMARK    1  A    between atoms: C_2  and  O_3
REMARK    2  A    between atoms: C_2  and  C_4
REMARK    3  A    between atoms: C_4  and  C_5
REMARK    4  A    between atoms: C_13  and  S_14
REMARK    5  A    between atoms: S_14  and  C_15
REMARK    6  A    between atoms: C_21  and  O_22
REMARK                            x       y       z     vdW  Elec       q    Type
REMARK                         _______ _______ _______ _____ _____    ______ ____
ROOT
ATOM      1  C   UNL     1       2.979   4.161  18.561  0.00  0.00    +0.000 A 
ATOM      2  C   UNL     1       2.532   5.445  18.196  0.00  0.00    +0.000 A 
ATOM      3  C   UNL     1       3.376   6.346  17.537  0.00  0.00    +0.000 A 
ATOM      4  C   UNL     1       4.692   5.984  17.221  0.00  0.00    +0.000 A 
ATOM      5  C   UNL     1       5.132   4.701  17.535  0.00  0.00    +0.000 A 
ATOM      6  C   UNL     1       4.297   3.818  18.224  0.00  0.00    +0.000 A 
ATOM      7  O   UNL     1       6.381   4.225  17.240  0.00  0.00    +0.000 OA
ATOM      8  C   UNL     1       7.186   5.060  16.396  0.00  0.00    +0.000 C 
ATOM      9  C   UNL     1       7.092   6.551  16.739  0.00  0.00    +0.000 C 
ATOM     10  C   UNL     1       5.620   6.957  16.547  0.00  0.00    +0.000 C 
ENDROOT
BRANCH   1  11
ATOM     11  C   UNL     1       2.037   3.207  19.324  0.00  0.00    +0.000 C 
ATOM     12  C   UNL     1       0.979   3.893  20.219  0.00  0.00    +0.000 C 
ATOM     13  C   UNL     1       1.735   4.329  21.472  0.00  0.00    +0.000 C 
ATOM     14  C   UNL     1       2.871   3.327  21.635  0.00  0.00    +0.000 C 
ATOM     15  C   UNL     1       2.826   2.422  20.403  0.00  0.00    +0.000 C 
BRANCH  11  17
ATOM     16  O   UNL     1       0.082   2.012  18.449  0.00  0.00    +0.000 OA
ATOM     17  C   UNL     1       1.288   2.230  18.390  0.00  0.00    +0.000 C 
BRANCH  17  18
ATOM     18  O   UNL     1       2.042   1.654  17.430  0.00  0.00    +0.000 OA
ATOM     19  H   UNL     1       1.969   2.070  16.546  0.00  0.00    +0.000 HD
ENDBRANCH  17  18
ENDBRANCH  11  17
ENDBRANCH   1  11
BRANCH  10  20
ATOM     20  O   UNL     1       5.325   6.978  15.141  0.00  0.00    +0.000 OA
ATOM     21  H   UNL     1       4.909   6.129  14.904  0.00  0.00    +0.000 HD
ENDBRANCH  10  20
BRANCH   9  22
ATOM     22  S   UNL     1       7.766   6.782  18.454  0.00  0.00    +0.000 S 
BRANCH  22  23
ATOM     23  C   UNL     1       8.239   8.494  18.443  0.00  0.00    +0.000 A 
ATOM     24  C   UNL     1       9.087   8.962  19.453  0.00  0.00    +0.000 A 
ATOM     25  C   UNL     1       9.481  10.300  19.477  0.00  0.00    +0.000 A 
ATOM     26  C   UNL     1       9.049  11.171  18.480  0.00  0.00    +0.000 A 
ATOM     27  C   UNL     1       8.228  10.703  17.454  0.00  0.00    +0.000 A 
ATOM     28  C   UNL     1       7.825   9.366  17.434  0.00  0.00    +0.000 A 
ENDBRANCH  22  23
ENDBRANCH   9  22
TORSDOF 6
ENDMDL
MODEL 8
REMARK VINA RESULT:      -6.5      3.037      7.444
REMARK  Name = 
REMARK  6 active torsions:
REMARK  status: ('A' for Active; 'I' for Inactive)
REMARK    1  A    between atoms: C_2  and  O_3
REMARK    2  A    between atoms: C_2  and  C_4
REMARK    3  A    between atoms: C_4  and  C_5
REMARK    4  A    between atoms: C_13  and  S_14
REMARK    5  A    between atoms: S_14  and  C_15
REMARK    6  A    between atoms: C_21  and  O_22
REMARK                            x       y       z     vdW  Elec       q    Type
REMARK                         _______ _______ _______ _____ _____    ______ ____
ROOT
ATOM      1  C   UNL     1       1.317   8.295  20.319  0.00  0.00    +0.000 A 
ATOM      2  C   UNL     1       1.708   8.405  18.971  0.00  0.00    +0.000 A 
ATOM      3  C   UNL     1       2.101   7.281  18.237  0.00  0.00    +0.000 A 
ATOM      4  C   UNL     1       2.110   6.012  18.831  0.00  0.00    +0.000 A 
ATOM      5  C   UNL     1       1.681   5.883  20.148  0.00  0.00    +0.000 A 
ATOM      6  C   UNL     1       1.323   7.012  20.888  0.00  0.00    +0.000 A 
ATOM      7  O   UNL     1       1.610   4.691  20.819  0.00  0.00    +0.000 OA
ATOM      8  C   UNL     1       1.819   3.514  20.026  0.00  0.00    +0.000 C 
ATOM      9  C   UNL     1       2.957   3.654  19.009  0.00  0.00    +0.000 C 
ATOM     10  C   UNL     1       2.567   4.803  18.062  0.00  0.00    +0.000 C 
ENDROOT
BRANCH   1  11
ATOM     11  C   UNL     1       0.929   9.559  21.113  0.00  0.00    +0.000 C 
ATOM     12  C   UNL     1      -0.575   9.920  21.094  0.00  0.00    +0.000 C 
ATOM     13  C   UNL     1      -0.817  10.564  19.731  0.00  0.00    +0.000 C 
ATOM     14  C   UNL     1       0.505  11.219  19.346  0.00  0.00    +0.000 C 
ATOM     15  C   UNL     1       1.511  10.822  20.428  0.00  0.00    +0.000 C 
BRANCH  11  17
ATOM     16  O   UNL     1       0.597   9.550  23.542  0.00  0.00    +0.000 OA
ATOM     17  C   UNL     1       1.370   9.499  22.592  0.00  0.00    +0.000 C 
BRANCH  17  18
ATOM     18  O   UNL     1       2.693   9.317  22.794  0.00  0.00    +0.000 OA
ATOM     19  H   UNL     1       3.060   8.500  22.398  0.00  0.00    +0.000 HD
ENDBRANCH  17  18
ENDBRANCH  11  17
ENDBRANCH   1  11
BRANCH  10  20
ATOM     20  O   UNL     1       1.493   4.360  17.216  0.00  0.00    +0.000 OA
ATOM     21  H   UNL     1       1.099   5.143  16.790  0.00  0.00    +0.000 HD
ENDBRANCH  10  20
BRANCH   9  22
ATOM     22  S   UNL     1       4.537   3.902  19.956  0.00  0.00    +0.000 S 
BRANCH  22  23
ATOM     23  C   UNL     1       5.596   4.631  18.731  0.00  0.00    +0.000 A 
ATOM     24  C   UNL     1       6.524   5.596  19.137  0.00  0.00    +0.000 A 
ATOM     25  C   UNL     1       7.375   6.192  18.204  0.00  0.00    +0.000 A 
ATOM     26  C   UNL     1       7.316   5.809  16.866  0.00  0.00    +0.000 A 
ATOM     27  C   UNL     1       6.413   4.827  16.461  0.00  0.00    +0.000 A 
ATOM     28  C   UNL     1       5.556   4.237  17.392  0.00  0.00    +0.000 A 
ENDBRANCH  22  23
ENDBRANCH   9  22
TORSDOF 6
ENDMDL
MODEL 9
REMARK VINA RESULT:      -6.5      1.669      2.384
REMARK  Name = 
REMARK  6 active torsions:
REMARK  status: ('A' for Active; 'I' for Inactive)
REMARK    1  A    between atoms: C_2  and  O_3
REMARK    2  A    between atoms: C_2  and  C_4
REMARK    3  A    between atoms: C_4  and  C_5
REMARK    4  A    between atoms: C_13  and  S_14
REMARK    5  A    between atoms: S_14  and  C_15
REMARK    6  A    between atoms: C_21  and  O_22
REMARK                            x       y       z     vdW  Elec       q    Type
REMARK                         _______ _______ _______ _____ _____    ______ ____
ROOT
ATOM      1  C   UNL     1       2.636   6.342  19.108  0.00  0.00    +0.000 A 
ATOM      2  C   UNL     1       2.678   6.806  17.779  0.00  0.00    +0.000 A 
ATOM      3  C   UNL     1       2.287   8.110  17.454  0.00  0.00    +0.000 A 
ATOM      4  C   UNL     1       1.848   8.989  18.453  0.00  0.00    +0.000 A 
ATOM      5  C   UNL     1       1.847   8.558  19.776  0.00  0.00    +0.000 A 
ATOM      6  C   UNL     1       2.204   7.245  20.091  0.00  0.00    +0.000 A 
ATOM      7  O   UNL     1       1.476   9.339  20.838  0.00  0.00    +0.000 OA
ATOM      8  C   UNL     1       1.264  10.729  20.548  0.00  0.00    +0.000 C 
ATOM      9  C   UNL     1       0.517  10.973  19.232  0.00  0.00    +0.000 C 
ATOM     10  C   UNL     1       1.390  10.380  18.111  0.00  0.00    +0.000 C 
ENDROOT
BRANCH   1  11
ATOM     11  C   UNL     1       3.034   4.886  19.426  0.00  0.00    +0.000 C 
ATOM     12  C   UNL     1       2.429   3.813  18.491  0.00  0.00    +0.000 C 
ATOM     13  C   UNL     1       0.986   3.640  18.958  0.00  0.00    +0.000 C 
ATOM     14  C   UNL     1       0.996   3.962  20.448  0.00  0.00    +0.000 C 
ATOM     15  C   UNL     1       2.411   4.443  20.774  0.00  0.00    +0.000 C 
BRANCH  11  17
ATOM     16  O   UNL     1       5.379   5.564  19.656  0.00  0.00    +0.000 OA
ATOM     17  C   UNL     1       4.564   4.673  19.446  0.00  0.00    +0.000 C 
BRANCH  17  18
ATOM     18  O   UNL     1       4.972   3.397  19.277  0.00  0.00    +0.000 OA
ATOM     19  H   UNL     1       5.899   3.299  18.976  0.00  0.00    +0.000 HD
ENDBRANCH  17  18
ENDBRANCH  11  17
ENDBRANCH   1  11
BRANCH  10  20
ATOM     20  O   UNL     1       2.545  11.216  17.933  0.00  0.00    +0.000 OA
ATOM     21  H   UNL     1       3.317  10.641  17.777  0.00  0.00    +0.000 HD
ENDBRANCH  10  20
BRANCH   9  22
ATOM     22  S   UNL     1      -1.180  10.235  19.396  0.00  0.00    +0.000 S 
BRANCH  22  23
ATOM     23  C   UNL     1      -2.055  11.503  20.280  0.00  0.00    +0.000 A 
ATOM     24  C   UNL     1      -1.683  11.778  21.601  0.00  0.00    +0.000 A 
ATOM     25  C   UNL     1      -2.346  12.767  22.327  0.00  0.00    +0.000 A 
ATOM     26  C   UNL     1      -3.368  13.502  21.731  0.00  0.00    +0.000 A 
ATOM     27  C   UNL     1      -3.723  13.252  20.405  0.00  0.00    +0.000 A 
ATOM     28  C   UNL     1      -3.066  12.256  19.680  0.00  0.00    +0.000 A 
ENDBRANCH  22  23
ENDBRANCH   9  22
TORSDOF 6
ENDMDL
