MODEL 1
REMARK VINA RESULT:      -6.2      0.000      0.000
REMARK  Name = 
REMARK  6 active torsions:
REMARK  status: ('A' for Active; 'I' for Inactive)
REMARK    1  A    between atoms: N_1  and  C_2
REMARK    2  A    between atoms: C_2  and  C_3
REMARK    3  A    between atoms: C_3  and  O_5
REMARK    4  A    between atoms: C_7  and  O_8
REMARK    5  A    between atoms: C_11  and  C_12
REMARK    6  A    between atoms: C_12  and  O_14
REMARK                            x       y       z     vdW  Elec       q    Type
REMARK                         _______ _______ _______ _____ _____    ______ ____
ROOT
ATOM      1  C   UNL     1       7.011   5.375  17.896  0.00  0.00    +0.000 C 
ATOM      2  C   UNL     1       6.790   6.653  17.053  0.00  0.00    +0.000 C 
ATOM      3  C   UNL     1       5.518   6.392  16.240  0.00  0.00    +0.000 C 
ATOM      4  C   UNL     1       4.701   5.494  17.118  0.00  0.00    +0.000 C 
ATOM      5  C   UNL     1       5.618   4.813  18.099  0.00  0.00    +0.000 C 
ATOM      6  C   UNL     1       4.841   3.991  17.075  0.00  0.00    +0.000 C 
ENDROOT
BRANCH   1   7
ATOM      7  N   UNL     1       7.882   4.397  17.196  0.00  0.00    +0.000 NA
ATOM      8  H   UNL     1       7.519   4.247  16.253  0.00  0.00    +0.000 HD
ATOM      9  H   UNL     1       7.766   3.489  17.661  0.00  0.00    +0.000 HD
ENDBRANCH   1   7
BRANCH   1  10
ATOM     10  C   UNL     1       7.721   5.791  19.209  0.00  0.00    +0.000 C 
ATOM     11  O   UNL     1       7.639   5.216  20.283  0.00  0.00    +0.000 OA
BRANCH  10  12
ATOM     12  O   UNL     1       8.430   6.939  19.035  0.00  0.00    +0.000 OA
ATOM     13  H   UNL     1       8.789   7.190  19.920  0.00  0.00    +0.000 HD
ENDBRANCH  10  12
ENDBRANCH   1  10
BRANCH   3  14
ATOM     14  O   UNL     1       5.795   5.703  15.027  0.00  0.00    +0.000 OA
ATOM     15  H   UNL     1       5.727   6.332  14.290  0.00  0.00    +0.000 HD
ENDBRANCH   3  14
BRANCH   6  16
ATOM     16  C   UNL     1       3.696   3.151  17.513  0.00  0.00    +0.000 C 
ATOM     17  O   UNL     1       2.548   3.557  17.526  0.00  0.00    +0.000 OA
BRANCH  16  18
ATOM     18  O   UNL     1       4.048   1.894  17.870  0.00  0.00    +0.000 OA
ATOM     19  H   UNL     1       4.713   1.495  17.280  0.00  0.00    +0.000 HD
ENDBRANCH  16  18
ENDBRANCH   6  16
TORSDOF 6
ENDMDL
MODEL 2
REMARK VINA RESULT:      -6.1      2.022      4.665
REMARK  Name = 
REMARK  6 active torsions:
REMARK  status: ('A' for Active; 'I' for Inactive)
REMARK    1  A    between atoms: N_1  and  C_2
REMARK    2  A    between atoms: C_2  and  C_3
REMARK    3  A    between atoms: C_3  and  O_5
REMARK    4  A    between atoms: C_7  and  O_8
REMARK    5  A    between atoms: C_11  and  C_12
REMARK    6  A    between atoms: C_12  and  O_14
REMARK                            x       y       z     vdW  Elec       q    Type
REMARK                         _______ _______ _______ _____ _____    ______ ____
ROOT
ATOM      1  C   UNL     1       3.772   3.530  17.934  0.00  0.00    +0.000 C 
ATOM      2  C   UNL     1       3.801   4.629  19.021  0.00  0.00    +0.000 C 
ATOM      3  C   UNL     1       5.073   5.439  18.751  0.00  0.00    +0.000 C 
ATOM      4  C   UNL     1       5.255   5.350  17.266  0.00  0.00    +0.000 C 
ATOM      5  C   UNL     1       4.512   4.141  16.762  0.00  0.00    +0.000 C 
ATOM      6  C   UNL     1       6.030   4.225  16.622  0.00  0.00    +0.000 C 
ENDROOT
BRANCH   1   7
ATOM      7  N   UNL     1       4.440   2.285  18.392  0.00  0.00    +0.000 NA
ATOM      8  H   UNL     1       4.994   1.904  17.624  0.00  0.00    +0.000 HD
ATOM      9  H   UNL     1       3.710   1.582  18.553  0.00  0.00    +0.000 HD
ENDBRANCH   1   7
BRANCH   1  10
ATOM     10  C   UNL     1       2.289   3.195  17.638  0.00  0.00    +0.000 C 
ATOM     11  O   UNL     1       1.414   3.997  17.356  0.00  0.00    +0.000 OA
BRANCH  10  12
ATOM     12  O   UNL     1       2.054   1.862  17.784  0.00  0.00    +0.000 OA
ATOM     13  H   UNL     1       2.195   1.448  16.899  0.00  0.00    +0.000 HD
ENDBRANCH  10  12
ENDBRANCH   1  10
BRANCH   3  14
ATOM     14  O   UNL     1       6.213   4.863  19.379  0.00  0.00    +0.000 OA
ATOM     15  H   UNL     1       6.386   5.341  20.206  0.00  0.00    +0.000 HD
ENDBRANCH   3  14
BRANCH   6  16
ATOM     16  C   UNL     1       6.641   4.448  15.286  0.00  0.00    +0.000 C 
ATOM     17  O   UNL     1       7.355   5.404  15.041  0.00  0.00    +0.000 OA
BRANCH  16  18
ATOM     18  O   UNL     1       6.350   3.482  14.386  0.00  0.00    +0.000 OA
ATOM     19  H   UNL     1       6.045   2.651  14.793  0.00  0.00    +0.000 HD
ENDBRANCH  16  18
ENDBRANCH   6  16
TORSDOF 6
ENDMDL
MODEL 3
REMARK VINA RESULT:      -6.0      1.993      4.360
REMARK  Name = 
REMARK  6 active torsions:
REMARK  status: ('A' for Active; 'I' for Inactive)
REMARK    1  A    between atoms: N_1  and  C_2
REMARK    2  A    between atoms: C_2  and  C_3
REMARK    3  A    between atoms: C_3  and  O_5
REMARK    4  A    between atoms: C_7  and  O_8
REMARK    5  A    between atoms: C_11  and  C_12
REMARK    6  A    between atoms: C_12  and  O_14
REMARK                            x       y       z     vdW  Elec       q    Type
REMARK                         _______ _______ _______ _____ _____    ______ ____
ROOT
ATOM      1  C   UNL     1       4.151   4.050  17.573  0.00  0.00    +0.000 C 
ATOM      2  C   UNL     1       4.788   4.874  18.717  0.00  0.00    +0.000 C 
ATOM      3  C   UNL     1       6.196   5.230  18.230  0.00  0.00    +0.000 C 
ATOM      4  C   UNL     1       6.053   5.334  16.742  0.00  0.00    +0.000 C 
ATOM      5  C   UNL     1       4.834   4.558  16.319  0.00  0.00    +0.000 C 
ATOM      6  C   UNL     1       6.219   4.137  15.836  0.00  0.00    +0.000 C 
ENDROOT
BRANCH   1   7
ATOM      7  N   UNL     1       4.380   2.593  17.750  0.00  0.00    +0.000 NA
ATOM      8  H   UNL     1       4.521   2.399  18.743  0.00  0.00    +0.000 HD
ATOM      9  H   UNL     1       5.280   2.365  17.314  0.00  0.00    +0.000 HD
ENDBRANCH   1   7
BRANCH   1  10
ATOM     10  C   UNL     1       2.622   4.300  17.604  0.00  0.00    +0.000 C 
ATOM     11  O   UNL     1       1.759   3.511  17.256  0.00  0.00    +0.000 OA
BRANCH  10  12
ATOM     12  O   UNL     1       2.345   5.562  18.032  0.00  0.00    +0.000 OA
ATOM     13  H   UNL     1       1.405   5.561  18.335  0.00  0.00    +0.000 HD
ENDBRANCH  10  12
ENDBRANCH   1  10
BRANCH   3  14
ATOM     14  O   UNL     1       7.134   4.200  18.519  0.00  0.00    +0.000 OA
ATOM     15  H   UNL     1       7.743   4.116  17.767  0.00  0.00    +0.000 HD
ENDBRANCH   3  14
BRANCH   6  16
ATOM     16  C   UNL     1       6.610   4.356  14.420  0.00  0.00    +0.000 C 
ATOM     17  O   UNL     1       7.181   5.364  14.044  0.00  0.00    +0.000 OA
BRANCH  16  18
ATOM     18  O   UNL     1       6.295   3.326  13.602  0.00  0.00    +0.000 OA
ATOM     19  H   UNL     1       6.971   3.150  12.922  0.00  0.00    +0.000 HD
ENDBRANCH  16  18
ENDBRANCH   6  16
TORSDOF 6
ENDMDL
MODEL 4
REMARK VINA RESULT:      -6.0      2.118      4.683
REMARK  Name = 
REMARK  6 active torsions:
REMARK  status: ('A' for Active; 'I' for Inactive)
REMARK    1  A    between atoms: N_1  and  C_2
REMARK    2  A    between atoms: C_2  and  C_3
REMARK    3  A    between atoms: C_3  and  O_5
REMARK    4  A    between atoms: C_7  and  O_8
REMARK    5  A    between atoms: C_11  and  C_12
REMARK    6  A    between atoms: C_12  and  O_14
REMARK                            x       y       z     vdW  Elec       q    Type
REMARK                         _______ _______ _______ _____ _____    ______ ____
ROOT
ATOM      1  C   UNL     1       3.980   3.123  18.477  0.00  0.00    +0.000 C 
ATOM      2  C   UNL     1       2.933   4.149  18.970  0.00  0.00    +0.000 C 
ATOM      3  C   UNL     1       3.554   5.525  18.707  0.00  0.00    +0.000 C 
ATOM      4  C   UNL     1       4.408   5.315  17.493  0.00  0.00    +0.000 C 
ATOM      5  C   UNL     1       4.729   3.848  17.378  0.00  0.00    +0.000 C 
ATOM      6  C   UNL     1       5.846   4.866  17.594  0.00  0.00    +0.000 C 
ENDROOT
BRANCH   1   7
ATOM      7  N   UNL     1       4.902   2.709  19.566  0.00  0.00    +0.000 NA
ATOM      8  H   UNL     1       5.706   3.338  19.574  0.00  0.00    +0.000 HD
ATOM      9  H   UNL     1       5.294   1.796  19.311  0.00  0.00    +0.000 HD
ENDBRANCH   1   7
BRANCH   1  10
ATOM     10  C   UNL     1       3.217   1.864  17.995  0.00  0.00    +0.000 C 
ATOM     11  O   UNL     1       2.120   1.850  17.459  0.00  0.00    +0.000 OA
BRANCH  10  12
ATOM     12  O   UNL     1       3.910   0.732  18.292  0.00  0.00    +0.000 OA
ATOM     13  H   UNL     1       3.410  -0.023  17.899  0.00  0.00    +0.000 HD
ENDBRANCH  10  12
ENDBRANCH   1  10
BRANCH   3  14
ATOM     14  O   UNL     1       4.392   5.943  19.778  0.00  0.00    +0.000 OA
ATOM     15  H   UNL     1       4.182   6.867  19.994  0.00  0.00    +0.000 HD
ENDBRANCH   3  14
BRANCH   6  16
ATOM     16  C   UNL     1       6.780   5.191  16.485  0.00  0.00    +0.000 C 
ATOM     17  O   UNL     1       6.526   6.026  15.636  0.00  0.00    +0.000 OA
BRANCH  16  18
ATOM     18  O   UNL     1       7.938   4.494  16.526  0.00  0.00    +0.000 OA
ATOM     19  H   UNL     1       8.225   4.168  15.654  0.00  0.00    +0.000 HD
ENDBRANCH  16  18
ENDBRANCH   6  16
TORSDOF 6
ENDMDL
MODEL 5
REMARK VINA RESULT:      -5.9      2.047      4.369
REMARK  Name = 
REMARK  6 active torsions:
REMARK  status: ('A' for Active; 'I' for Inactive)
REMARK    1  A    between atoms: N_1  and  C_2
REMARK    2  A    between atoms: C_2  and  C_3
REMARK    3  A    between atoms: C_3  and  O_5
REMARK    4  A    between atoms: C_7  and  O_8
REMARK    5  A    between atoms: C_11  and  C_12
REMARK    6  A    between atoms: C_12  and  O_14
REMARK                            x       y       z     vdW  Elec       q    Type
REMARK                         _______ _______ _______ _____ _____    ______ ____
ROOT
ATOM      1  C   UNL     1       6.267   4.943  15.757  0.00  0.00    +0.000 C 
ATOM      2  C   UNL     1       5.103   5.930  15.507  0.00  0.00    +0.000 C 
ATOM      3  C   UNL     1       4.894   6.661  16.837  0.00  0.00    +0.000 C 
ATOM      4  C   UNL     1       6.260   6.697  17.453  0.00  0.00    +0.000 C 
ATOM      5  C   UNL     1       7.094   5.602  16.842  0.00  0.00    +0.000 C 
ATOM      6  C   UNL     1       6.771   5.582  18.333  0.00  0.00    +0.000 C 
ENDROOT
BRANCH   1   7
ATOM      7  N   UNL     1       5.776   3.612  16.199  0.00  0.00    +0.000 NA
ATOM      8  H   UNL     1       6.406   2.892  15.842  0.00  0.00    +0.000 HD
ATOM      9  H   UNL     1       4.886   3.434  15.718  0.00  0.00    +0.000 HD
ENDBRANCH   1   7
BRANCH   1  10
ATOM     10  C   UNL     1       7.021   4.752  14.417  0.00  0.00    +0.000 C 
ATOM     11  O   UNL     1       7.861   5.505  13.953  0.00  0.00    +0.000 OA
BRANCH  10  12
ATOM     12  O   UNL     1       6.589   3.634  13.771  0.00  0.00    +0.000 OA
ATOM     13  H   UNL     1       7.387   3.083  13.589  0.00  0.00    +0.000 HD
ENDBRANCH  10  12
ENDBRANCH   1  10
BRANCH   3  14
ATOM     14  O   UNL     1       4.029   5.942  17.708  0.00  0.00    +0.000 OA
ATOM     15  H   UNL     1       4.558   5.565  18.429  0.00  0.00    +0.000 HD
ENDBRANCH   3  14
BRANCH   6  16
ATOM     16  C   UNL     1       7.834   5.881  19.327  0.00  0.00    +0.000 C 
ATOM     17  O   UNL     1       8.038   5.182  20.303  0.00  0.00    +0.000 OA
BRANCH  16  18
ATOM     18  O   UNL     1       8.562   6.982  19.031  0.00  0.00    +0.000 OA
ATOM     19  H   UNL     1       9.426   7.009  19.481  0.00  0.00    +0.000 HD
ENDBRANCH  16  18
ENDBRANCH   6  16
TORSDOF 6
ENDMDL
MODEL 6
REMARK VINA RESULT:      -5.9      2.715      3.936
REMARK  Name = 
REMARK  6 active torsions:
REMARK  status: ('A' for Active; 'I' for Inactive)
REMARK    1  A    between atoms: N_1  and  C_2
REMARK    2  A    between atoms: C_2  and  C_3
REMARK    3  A    between atoms: C_3  and  O_5
REMARK    4  A    between atoms: C_7  and  O_8
REMARK    5  A    between atoms: C_11  and  C_12
REMARK    6  A    between atoms: C_12  and  O_14
REMARK                            x       y       z     vdW  Elec       q    Type
REMARK                         _______ _______ _______ _____ _____    ______ ____
ROOT
ATOM      1  C   UNL     1       4.543   3.994  18.763  0.00  0.00    +0.000 C 
ATOM      2  C   UNL     1       4.145   3.721  17.293  0.00  0.00    +0.000 C 
ATOM      3  C   UNL     1       2.781   3.027  17.360  0.00  0.00    +0.000 C 
ATOM      4  C   UNL     1       2.142   3.596  18.591  0.00  0.00    +0.000 C 
ATOM      5  C   UNL     1       3.222   4.135  19.490  0.00  0.00    +0.000 C 
ATOM      6  C   UNL     1       2.341   2.979  19.954  0.00  0.00    +0.000 C 
ENDROOT
BRANCH   1   7
ATOM      7  N   UNL     1       5.346   2.880  19.331  0.00  0.00    +0.000 NA
ATOM      8  H   UNL     1       5.279   2.073  18.709  0.00  0.00    +0.000 HD
ATOM      9  H   UNL     1       4.885   2.575  20.196  0.00  0.00    +0.000 HD
ENDBRANCH   1   7
BRANCH   1  10
ATOM     10  C   UNL     1       5.417   5.272  18.787  0.00  0.00    +0.000 C 
ATOM     11  O   UNL     1       5.291   6.242  18.057  0.00  0.00    +0.000 OA
BRANCH  10  12
ATOM     12  O   UNL     1       6.408   5.166  19.714  0.00  0.00    +0.000 OA
ATOM     13  H   UNL     1       7.214   5.578  19.321  0.00  0.00    +0.000 HD
ENDBRANCH  10  12
ENDBRANCH   1  10
BRANCH   3  14
ATOM     14  O   UNL     1       2.909   1.620  17.532  0.00  0.00    +0.000 OA
ATOM     15  H   UNL     1       3.286   1.447  18.410  0.00  0.00    +0.000 HD
ENDBRANCH   3  14
BRANCH   6  16
ATOM     16  C   UNL     1       1.311   3.204  21.001  0.00  0.00    +0.000 C 
ATOM     17  O   UNL     1       1.421   2.774  22.135  0.00  0.00    +0.000 OA
BRANCH  16  18
ATOM     18  O   UNL     1       0.261   3.947  20.582  0.00  0.00    +0.000 OA
ATOM     19  H   UNL     1       0.001   3.765  19.661  0.00  0.00    +0.000 HD
ENDBRANCH  16  18
ENDBRANCH   6  16
TORSDOF 6
ENDMDL
MODEL 7
REMARK VINA RESULT:      -5.9      2.783      3.720
REMARK  Name = 
REMARK  6 active torsions:
REMARK  status: ('A' for Active; 'I' for Inactive)
REMARK    1  A    between atoms: N_1  and  C_2
REMARK    2  A    between atoms: C_2  and  C_3
REMARK    3  A    between atoms: C_3  and  O_5
REMARK    4  A    between atoms: C_7  and  O_8
REMARK    5  A    between atoms: C_11  and  C_12
REMARK    6  A    between atoms: C_12  and  O_14
REMARK                            x       y       z     vdW  Elec       q    Type
REMARK                         _______ _______ _______ _____ _____    ______ ____
ROOT
ATOM      1  C   UNL     1       4.496   3.964  18.266  0.00  0.00    +0.000 C 
ATOM      2  C   UNL     1       3.717   5.027  17.456  0.00  0.00    +0.000 C 
ATOM      3  C   UNL     1       2.274   4.952  17.965  0.00  0.00    +0.000 C 
ATOM      4  C   UNL     1       2.413   4.539  19.399  0.00  0.00    +0.000 C 
ATOM      5  C   UNL     1       3.750   3.872  19.582  0.00  0.00    +0.000 C 
ATOM      6  C   UNL     1       2.461   3.087  19.813  0.00  0.00    +0.000 C 
ENDROOT
BRANCH   1   7
ATOM      7  N   UNL     1       4.517   2.649  17.574  0.00  0.00    +0.000 NA
ATOM      8  H   UNL     1       3.562   2.290  17.520  0.00  0.00    +0.000 HD
ATOM      9  H   UNL     1       5.006   1.984  18.183  0.00  0.00    +0.000 HD
ENDBRANCH   1   7
BRANCH   1  10
ATOM     10  C   UNL     1       5.960   4.453  18.404  0.00  0.00    +0.000 C 
ATOM     11  O   UNL     1       6.424   5.072  19.348  0.00  0.00    +0.000 OA
BRANCH  10  12
ATOM     12  O   UNL     1       6.681   4.146  17.292  0.00  0.00    +0.000 OA
ATOM     13  H   UNL     1       7.411   3.547  17.580  0.00  0.00    +0.000 HD
ENDBRANCH  10  12
ENDBRANCH   1  10
BRANCH   3  14
ATOM     14  O   UNL     1       1.521   3.956  17.282  0.00  0.00    +0.000 OA
ATOM     15  H   UNL     1       0.723   3.761  17.801  0.00  0.00    +0.000 HD
ENDBRANCH   3  14
BRANCH   6  16
ATOM     16  C   UNL     1       2.053   2.720  21.193  0.00  0.00    +0.000 C 
ATOM     17  O   UNL     1       2.851   2.372  22.044  0.00  0.00    +0.000 OA
BRANCH  16  18
ATOM     18  O   UNL     1       0.724   2.834  21.417  0.00  0.00    +0.000 OA
ATOM     19  H   UNL     1       0.508   3.234  22.278  0.00  0.00    +0.000 HD
ENDBRANCH  16  18
ENDBRANCH   6  16
TORSDOF 6
ENDMDL
MODEL 8
REMARK VINA RESULT:      -5.9      2.713      4.114
REMARK  Name = 
REMARK  6 active torsions:
REMARK  status: ('A' for Active; 'I' for Inactive)
REMARK    1  A    between atoms: N_1  and  C_2
REMARK    2  A    between atoms: C_2  and  C_3
REMARK    3  A    between atoms: C_3  and  O_5
REMARK    4  A    between atoms: C_7  and  O_8
REMARK    5  A    between atoms: C_11  and  C_12
REMARK    6  A    between atoms: C_12  and  O_14
REMARK                            x       y       z     vdW  Elec       q    Type
REMARK                         _______ _______ _______ _____ _____    ______ ____
ROOT
ATOM      1  C   UNL     1       4.472   4.190  18.448  0.00  0.00    +0.000 C 
ATOM      2  C   UNL     1       4.154   3.390  17.163  0.00  0.00    +0.000 C 
ATOM      3  C   UNL     1       3.146   2.318  17.587  0.00  0.00    +0.000 C 
ATOM      4  C   UNL     1       2.382   2.957  18.707  0.00  0.00    +0.000 C 
ATOM      5  C   UNL     1       3.216   4.068  19.287  0.00  0.00    +0.000 C 
ATOM      6  C   UNL     1       2.840   2.863  20.143  0.00  0.00    +0.000 C 
ENDROOT
BRANCH   1   7
ATOM      7  N   UNL     1       5.647   3.634  19.167  0.00  0.00    +0.000 NA
ATOM      8  H   UNL     1       5.449   2.666  19.424  0.00  0.00    +0.000 HD
ATOM      9  H   UNL     1       5.724   4.126  20.064  0.00  0.00    +0.000 HD
ENDBRANCH   1   7
BRANCH   1  10
ATOM     10  C   UNL     1       4.813   5.642  18.029  0.00  0.00    +0.000 C 
ATOM     11  O   UNL     1       5.933   6.116  17.928  0.00  0.00    +0.000 OA
BRANCH  10  12
ATOM     12  O   UNL     1       3.680   6.369  17.829  0.00  0.00    +0.000 OA
ATOM     13  H   UNL     1       3.885   7.298  18.094  0.00  0.00    +0.000 HD
ENDBRANCH  10  12
ENDBRANCH   1  10
BRANCH   3  14
ATOM     14  O   UNL     1       3.789   1.153  18.091  0.00  0.00    +0.000 OA
ATOM     15  H   UNL     1       3.650   0.425  17.462  0.00  0.00    +0.000 HD
ENDBRANCH   3  14
BRANCH   6  16
ATOM     16  C   UNL     1       1.834   3.007  21.228  0.00  0.00    +0.000 C 
ATOM     17  O   UNL     1       2.144   3.134  22.399  0.00  0.00    +0.000 OA
BRANCH  16  18
ATOM     18  O   UNL     1       0.555   3.008  20.788  0.00  0.00    +0.000 OA
ATOM     19  H   UNL     1       0.475   3.156  19.829  0.00  0.00    +0.000 HD
ENDBRANCH  16  18
ENDBRANCH   6  16
TORSDOF 6
ENDMDL
MODEL 9
REMARK VINA RESULT:      -5.8      2.114      4.094
REMARK  Name = 
REMARK  6 active torsions:
REMARK  status: ('A' for Active; 'I' for Inactive)
REMARK    1  A    between atoms: N_1  and  C_2
REMARK    2  A    between atoms: C_2  and  C_3
REMARK    3  A    between atoms: C_3  and  O_5
REMARK    4  A    between atoms: C_7  and  O_8
REMARK    5  A    between atoms: C_11  and  C_12
REMARK    6  A    between atoms: C_12  and  O_14
REMARK                            x       y       z     vdW  Elec       q    Type
REMARK                         _______ _______ _______ _____ _____    ______ ____
ROOT
ATOM      1  C   UNL     1       4.870   4.789  17.642  0.00  0.00    +0.000 C 
ATOM      2  C   UNL     1       5.789   5.426  18.710  0.00  0.00    +0.000 C 
ATOM      3  C   UNL     1       7.185   5.461  18.079  0.00  0.00    +0.000 C 
ATOM      4  C   UNL     1       6.920   5.620  16.613  0.00  0.00    +0.000 C 
ATOM      5  C   UNL     1       5.520   5.149  16.322  0.00  0.00    +0.000 C 
ATOM      6  C   UNL     1       6.717   4.432  15.703  0.00  0.00    +0.000 C 
ENDROOT
BRANCH   1   7
ATOM      7  N   UNL     1       4.777   3.315  17.804  0.00  0.00    +0.000 NA
ATOM      8  H   UNL     1       5.119   2.866  16.953  0.00  0.00    +0.000 HD
ATOM      9  H   UNL     1       3.781   3.068  17.841  0.00  0.00    +0.000 HD
ENDBRANCH   1   7
BRANCH   1  10
ATOM     10  C   UNL     1       3.450   5.379  17.827  0.00  0.00    +0.000 C 
ATOM     11  O   UNL     1       2.414   4.740  17.923  0.00  0.00    +0.000 OA
BRANCH  10  12
ATOM     12  O   UNL     1       3.484   6.739  17.822  0.00  0.00    +0.000 OA
ATOM     13  H   UNL     1       4.382   7.002  17.507  0.00  0.00    +0.000 HD
ENDBRANCH  10  12
ENDBRANCH   1  10
BRANCH   3  14
ATOM     14  O   UNL     1       7.889   4.240  18.278  0.00  0.00    +0.000 OA
ATOM     15  H   UNL     1       7.248   3.510  18.280  0.00  0.00    +0.000 HD
ENDBRANCH   3  14
BRANCH   6  16
ATOM     16  C   UNL     1       7.003   4.581  14.252  0.00  0.00    +0.000 C 
ATOM     17  O   UNL     1       7.710   5.468  13.809  0.00  0.00    +0.000 OA
BRANCH  16  18
ATOM     18  O   UNL     1       6.426   3.630  13.483  0.00  0.00    +0.000 OA
ATOM     19  H   UNL     1       5.510   3.423  13.744  0.00  0.00    +0.000 HD
ENDBRANCH  16  18
ENDBRANCH   6  16
TORSDOF 6
ENDMDL
