MODEL 1
REMARK VINA RESULT:      -7.8      0.000      0.000
REMARK  Name = 
REMARK  13 active torsions:
REMARK  status: ('A' for Active; 'I' for Inactive)
REMARK    1  A    between atoms: C_1  and  C_2
REMARK    2  A    between atoms: C_2  and  C_3
REMARK    3  A    between atoms: C_2  and  N_4
REMARK    4  A    between atoms: N_4  and  C_5
REMARK    5  A    between atoms: C_5  and  C_6
REMARK    6  A    between atoms: CA_8  and  C_9
REMARK    7  A    between atoms: C_9  and  O_10
REMARK    8  A    between atoms: C_11  and  C_12
REMARK    9  A    between atoms: C_15  and  C_16
REMARK   10  A    between atoms: C_24  and  C_26
REMARK   11  A    between atoms: C_26  and  N_27
REMARK   12  A    between atoms: N_27  and  C_28
REMARK   13  A    between atoms: N_27  and  C_29
REMARK                            x       y       z     vdW  Elec       q    Type
REMARK                         _______ _______ _______ _____ _____    ______ ____
ROOT
ATOM      1  C   UNL     1       4.122   5.218  18.587  0.00  0.00    +0.000 C 
ATOM      2  N   UNL     1       2.936   4.276  18.444  0.00  0.00    +0.000 NA
ATOM      3  CA  UNL     1       2.631   4.437  19.891  0.00  0.00    +0.000 C 
ATOM      4  C   UNL     1       3.315   5.837  19.811  0.00  0.00    +0.000 C 
ATOM      5  H   UNL     1       3.144   3.324  18.150  0.00  0.00    +0.000 HD
ENDROOT
BRANCH   4   6
ATOM      6  C   UNL     1       2.301   7.075  19.608  0.00  0.00    +0.000 A 
ATOM      7  C   UNL     1       2.197   7.703  18.349  0.00  0.00    +0.000 A 
ATOM      8  C   UNL     1       1.587   8.948  18.196  0.00  0.00    +0.000 A 
ATOM      9  C   UNL     1       1.038   9.589  19.305  0.00  0.00    +0.000 A 
ATOM     10  C   UNL     1       1.024   8.943  20.541  0.00  0.00    +0.000 A 
ATOM     11  C   UNL     1       1.641   7.701  20.684  0.00  0.00    +0.000 A 
BRANCH   9  12
ATOM     12  C   UNL     1       0.448  10.920  19.173  0.00  0.00    +0.000 C 
ATOM     13  C   UNL     1      -0.640  11.067  18.399  0.00  0.00    +0.000 C 
ATOM     14  C   UNL     1      -1.318  12.387  18.195  0.00  0.00    +0.000 C 
ATOM     15  C   UNL     1      -0.456  13.567  18.640  0.00  0.00    +0.000 C 
ATOM     16  C   UNL     1       0.201  13.301  19.985  0.00  0.00    +0.000 C 
ATOM     17  C   UNL     1       1.086  12.050  19.940  0.00  0.00    +0.000 C 
ENDBRANCH   9  12
ENDBRANCH   4   6
BRANCH   1  18
ATOM     18  C   UNL     1       5.449   4.406  18.716  0.00  0.00    +0.000 C 
BRANCH  18  19
ATOM     19  N   UNL     1       6.574   4.909  17.874  0.00  0.00    +0.000 N 
ATOM     20  C   UNL     1       6.895   4.356  16.613  0.00  0.00    +0.000 C 
ATOM     21  O   UNL     1       7.998   4.541  16.081  0.00  0.00    +0.000 OA
BRANCH  19  23
ATOM     22  C   UNL     1       7.756   7.140  18.097  0.00  0.00    +0.000 C 
ATOM     23  C   UNL     1       7.693   5.672  18.470  0.00  0.00    +0.000 C 
ATOM     24  C   UNL     1       7.764   5.509  19.995  0.00  0.00    +0.000 C 
ENDBRANCH  19  23
BRANCH  20  25
ATOM     25  C   UNL     1       5.877   3.502  15.853  0.00  0.00    +0.000 C 
BRANCH  25  26
ATOM     26  N   UNL     1       5.268   4.242  14.734  0.00  0.00    +0.000 NA
ATOM     27  C   UNL     1       5.319   5.689  14.969  0.00  0.00    +0.000 C 
ATOM     28  C   UNL     1       5.977   3.915  13.493  0.00  0.00    +0.000 C 
ENDBRANCH  25  26
ENDBRANCH  20  25
ENDBRANCH  18  19
ENDBRANCH   1  18
BRANCH   3  29
ATOM     29  C   UNL     1       1.139   4.335  20.227  0.00  0.00    +0.000 C 
BRANCH  29  30
ATOM     30  O   UNL     1       0.830   3.004  20.646  0.00  0.00    +0.000 OA
ATOM     31  H   UNL     1       1.500   2.760  21.311  0.00  0.00    +0.000 HD
ENDBRANCH  29  30
ENDBRANCH   3  29
TORSDOF 9
ENDMDL
MODEL 2
REMARK VINA RESULT:      -7.6      1.147      1.393
REMARK  Name = 
REMARK  13 active torsions:
REMARK  status: ('A' for Active; 'I' for Inactive)
REMARK    1  A    between atoms: C_1  and  C_2
REMARK    2  A    between atoms: C_2  and  C_3
REMARK    3  A    between atoms: C_2  and  N_4
REMARK    4  A    between atoms: N_4  and  C_5
REMARK    5  A    between atoms: C_5  and  C_6
REMARK    6  A    between atoms: CA_8  and  C_9
REMARK    7  A    between atoms: C_9  and  O_10
REMARK    8  A    between atoms: C_11  and  C_12
REMARK    9  A    between atoms: C_15  and  C_16
REMARK   10  A    between atoms: C_24  and  C_26
REMARK   11  A    between atoms: C_26  and  N_27
REMARK   12  A    between atoms: N_27  and  C_28
REMARK   13  A    between atoms: N_27  and  C_29
REMARK                            x       y       z     vdW  Elec       q    Type
REMARK                         _______ _______ _______ _____ _____    ______ ____
ROOT
ATOM      1  C   UNL     1       3.941   5.252  17.354  0.00  0.00    +0.000 C 
ATOM      2  N   UNL     1       2.760   4.308  17.518  0.00  0.00    +0.000 NA
ATOM      3  CA  UNL     1       2.863   4.433  18.996  0.00  0.00    +0.000 C 
ATOM      4  C   UNL     1       3.501   5.838  18.767  0.00  0.00    +0.000 C 
ATOM      5  H   UNL     1       2.879   3.364  17.155  0.00  0.00    +0.000 HD
ENDROOT
BRANCH   4   6
ATOM      6  C   UNL     1       2.472   7.075  18.879  0.00  0.00    +0.000 A 
ATOM      7  C   UNL     1       2.188   7.862  17.742  0.00  0.00    +0.000 A 
ATOM      8  C   UNL     1       1.565   9.106  17.847  0.00  0.00    +0.000 A 
ATOM      9  C   UNL     1       1.185   9.586  19.099  0.00  0.00    +0.000 A 
ATOM     10  C   UNL     1       1.349   8.781  20.226  0.00  0.00    +0.000 A 
ATOM     11  C   UNL     1       1.976   7.542  20.112  0.00  0.00    +0.000 A 
BRANCH   9  12
ATOM     12  C   UNL     1       0.586  10.912  19.231  0.00  0.00    +0.000 C 
ATOM     13  C   UNL     1      -0.711  11.001  19.566  0.00  0.00    +0.000 C 
ATOM     14  C   UNL     1      -1.421  12.311  19.725  0.00  0.00    +0.000 C 
ATOM     15  C   UNL     1      -0.642  13.479  19.122  0.00  0.00    +0.000 C 
ATOM     16  C   UNL     1       0.832  13.415  19.490  0.00  0.00    +0.000 C 
ATOM     17  C   UNL     1       1.475  12.110  19.007  0.00  0.00    +0.000 C 
ENDBRANCH   9  12
ENDBRANCH   4   6
BRANCH   1  18
ATOM     18  C   UNL     1       5.251   4.444  17.095  0.00  0.00    +0.000 C 
BRANCH  18  19
ATOM     19  N   UNL     1       6.357   5.229  16.471  0.00  0.00    +0.000 N 
ATOM     20  C   UNL     1       6.756   5.055  15.126  0.00  0.00    +0.000 C 
ATOM     21  O   UNL     1       7.856   5.451  14.715  0.00  0.00    +0.000 OA
BRANCH  19  23
ATOM     22  C   UNL     1       7.262   7.382  17.455  0.00  0.00    +0.000 C 
ATOM     23  C   UNL     1       7.395   5.880  17.301  0.00  0.00    +0.000 C 
ATOM     24  C   UNL     1       7.543   5.216  18.677  0.00  0.00    +0.000 C 
ENDBRANCH  19  23
BRANCH  20  25
ATOM     25  C   UNL     1       5.830   4.368  14.119  0.00  0.00    +0.000 C 
BRANCH  25  26
ATOM     26  N   UNL     1       6.585   3.725  13.029  0.00  0.00    +0.000 NA
ATOM     27  C   UNL     1       5.701   2.923  12.177  0.00  0.00    +0.000 C 
ATOM     28  C   UNL     1       7.251   4.755  12.226  0.00  0.00    +0.000 C 
ENDBRANCH  25  26
ENDBRANCH  20  25
ENDBRANCH  18  19
ENDBRANCH   1  18
BRANCH   3  29
ATOM     29  C   UNL     1       1.520   4.315  19.726  0.00  0.00    +0.000 C 
BRANCH  29  30
ATOM     30  O   UNL     1       0.958   3.022  19.493  0.00  0.00    +0.000 OA
ATOM     31  H   UNL     1       1.686   2.381  19.589  0.00  0.00    +0.000 HD
ENDBRANCH  29  30
ENDBRANCH   3  29
TORSDOF 9
ENDMDL
MODEL 3
REMARK VINA RESULT:      -7.5      0.369      1.004
REMARK  Name = 
REMARK  13 active torsions:
REMARK  status: ('A' for Active; 'I' for Inactive)
REMARK    1  A    between atoms: C_1  and  C_2
REMARK    2  A    between atoms: C_2  and  C_3
REMARK    3  A    between atoms: C_2  and  N_4
REMARK    4  A    between atoms: N_4  and  C_5
REMARK    5  A    between atoms: C_5  and  C_6
REMARK    6  A    between atoms: CA_8  and  C_9
REMARK    7  A    between atoms: C_9  and  O_10
REMARK    8  A    between atoms: C_11  and  C_12
REMARK    9  A    between atoms: C_15  and  C_16
REMARK   10  A    between atoms: C_24  and  C_26
REMARK   11  A    between atoms: C_26  and  N_27
REMARK   12  A    between atoms: N_27  and  C_28
REMARK   13  A    between atoms: N_27  and  C_29
REMARK                            x       y       z     vdW  Elec       q    Type
REMARK                         _______ _______ _______ _____ _____    ______ ____
ROOT
ATOM      1  C   UNL     1       4.054   5.118  18.270  0.00  0.00    +0.000 C 
ATOM      2  N   UNL     1       2.867   4.174  18.391  0.00  0.00    +0.000 NA
ATOM      3  CA  UNL     1       2.801   4.441  19.853  0.00  0.00    +0.000 C 
ATOM      4  C   UNL     1       3.454   5.827  19.562  0.00  0.00    +0.000 C 
ATOM      5  H   UNL     1       3.031   3.202  18.136  0.00  0.00    +0.000 HD
ENDROOT
BRANCH   4   6
ATOM      6  C   UNL     1       2.413   7.053  19.439  0.00  0.00    +0.000 A 
ATOM      7  C   UNL     1       2.227   7.699  18.198  0.00  0.00    +0.000 A 
ATOM      8  C   UNL     1       1.591   8.936  18.102  0.00  0.00    +0.000 A 
ATOM      9  C   UNL     1       1.099   9.552  19.251  0.00  0.00    +0.000 A 
ATOM     10  C   UNL     1       1.167   8.887  20.475  0.00  0.00    +0.000 A 
ATOM     11  C   UNL     1       1.809   7.652  20.561  0.00  0.00    +0.000 A 
BRANCH   9  12
ATOM     12  C   UNL     1       0.484  10.876  19.175  0.00  0.00    +0.000 C 
ATOM     13  C   UNL     1       1.060  11.892  19.837  0.00  0.00    +0.000 C 
ATOM     14  C   UNL     1       0.508  13.285  19.826  0.00  0.00    +0.000 C 
ATOM     15  C   UNL     1      -0.929  13.344  19.311  0.00  0.00    +0.000 C 
ATOM     16  C   UNL     1      -1.110  12.494  18.064  0.00  0.00    +0.000 C 
ATOM     17  C   UNL     1      -0.756  11.026  18.330  0.00  0.00    +0.000 C 
ENDBRANCH   9  12
ENDBRANCH   4   6
BRANCH   1  18
ATOM     18  C   UNL     1       5.390   4.309  18.238  0.00  0.00    +0.000 C 
BRANCH  18  19
ATOM     19  N   UNL     1       6.486   4.944  17.449  0.00  0.00    +0.000 N 
ATOM     20  C   UNL     1       6.945   4.423  16.217  0.00  0.00    +0.000 C 
ATOM     21  O   UNL     1       8.042   4.743  15.741  0.00  0.00    +0.000 OA
BRANCH  19  23
ATOM     22  C   UNL     1       7.314   7.321  17.749  0.00  0.00    +0.000 C 
ATOM     23  C   UNL     1       7.464   5.851  18.090  0.00  0.00    +0.000 C 
ATOM     24  C   UNL     1       7.522   5.664  19.613  0.00  0.00    +0.000 C 
ENDBRANCH  19  23
BRANCH  20  25
ATOM     25  C   UNL     1       6.088   3.437  15.419  0.00  0.00    +0.000 C 
BRANCH  25  26
ATOM     26  N   UNL     1       5.344   4.107  14.338  0.00  0.00    +0.000 NA
ATOM     27  C   UNL     1       5.259   5.553  14.575  0.00  0.00    +0.000 C 
ATOM     28  C   UNL     1       6.012   3.852  13.058  0.00  0.00    +0.000 C 
ENDBRANCH  25  26
ENDBRANCH  20  25
ENDBRANCH  18  19
ENDBRANCH   1  18
BRANCH   3  29
ATOM     29  C   UNL     1       1.385   4.371  20.435  0.00  0.00    +0.000 C 
BRANCH  29  30
ATOM     30  O   UNL     1       0.882   3.039  20.318  0.00  0.00    +0.000 OA
ATOM     31  H   UNL     1      -0.080   3.116  20.181  0.00  0.00    +0.000 HD
ENDBRANCH  29  30
ENDBRANCH   3  29
TORSDOF 9
ENDMDL
MODEL 4
REMARK VINA RESULT:      -7.5      1.633      2.270
REMARK  Name = 
REMARK  13 active torsions:
REMARK  status: ('A' for Active; 'I' for Inactive)
REMARK    1  A    between atoms: C_1  and  C_2
REMARK    2  A    between atoms: C_2  and  C_3
REMARK    3  A    between atoms: C_2  and  N_4
REMARK    4  A    between atoms: N_4  and  C_5
REMARK    5  A    between atoms: C_5  and  C_6
REMARK    6  A    between atoms: CA_8  and  C_9
REMARK    7  A    between atoms: C_9  and  O_10
REMARK    8  A    between atoms: C_11  and  C_12
REMARK    9  A    between atoms: C_15  and  C_16
REMARK   10  A    between atoms: C_24  and  C_26
REMARK   11  A    between atoms: C_26  and  N_27
REMARK   12  A    between atoms: N_27  and  C_28
REMARK   13  A    between atoms: N_27  and  C_29
REMARK                            x       y       z     vdW  Elec       q    Type
REMARK                         _______ _______ _______ _____ _____    ______ ____
ROOT
ATOM      1  C   UNL     1       4.120   4.544  17.482  0.00  0.00    +0.000 C 
ATOM      2  N   UNL     1       3.106   3.435  17.720  0.00  0.00    +0.000 NA
ATOM      3  CA  UNL     1       3.452   3.427  19.166  0.00  0.00    +0.000 C 
ATOM      4  C   UNL     1       3.869   4.921  19.008  0.00  0.00    +0.000 C 
ATOM      5  H   UNL     1       3.269   2.557  17.232  0.00  0.00    +0.000 HD
ENDROOT
BRANCH   4   6
ATOM      6  C   UNL     1       2.738   5.989  19.433  0.00  0.00    +0.000 A 
ATOM      7  C   UNL     1       2.629   7.215  18.743  0.00  0.00    +0.000 A 
ATOM      8  C   UNL     1       1.894   8.284  19.256  0.00  0.00    +0.000 A 
ATOM      9  C   UNL     1       1.224   8.143  20.470  0.00  0.00    +0.000 A 
ATOM     10  C   UNL     1       1.219   6.908  21.118  0.00  0.00    +0.000 A 
ATOM     11  C   UNL     1       1.960   5.847  20.599  0.00  0.00    +0.000 A 
BRANCH   9  12
ATOM     12  C   UNL     1       0.499   9.273  21.049  0.00  0.00    +0.000 C 
ATOM     13  C   UNL     1       0.040  10.231  20.229  0.00  0.00    +0.000 C 
ATOM     14  C   UNL     1      -0.711  11.430  20.722  0.00  0.00    +0.000 C 
ATOM     15  C   UNL     1      -0.578  11.629  22.230  0.00  0.00    +0.000 C 
ATOM     16  C   UNL     1      -0.750  10.319  22.982  0.00  0.00    +0.000 C 
ATOM     17  C   UNL     1       0.287   9.279  22.542  0.00  0.00    +0.000 C 
ENDBRANCH   9  12
ENDBRANCH   4   6
BRANCH   1  18
ATOM     18  C   UNL     1       5.450   3.952  16.918  0.00  0.00    +0.000 C 
BRANCH  18  19
ATOM     19  N   UNL     1       6.304   4.928  16.178  0.00  0.00    +0.000 N 
ATOM     20  C   UNL     1       6.818   4.671  14.886  0.00  0.00    +0.000 C 
ATOM     21  O   UNL     1       7.770   5.313  14.424  0.00  0.00    +0.000 OA
BRANCH  19  23
ATOM     22  C   UNL     1       6.276   7.270  17.147  0.00  0.00    +0.000 C 
ATOM     23  C   UNL     1       7.047   5.990  16.894  0.00  0.00    +0.000 C 
ATOM     24  C   UNL     1       7.677   5.483  18.198  0.00  0.00    +0.000 C 
ENDBRANCH  19  23
BRANCH  20  25
ATOM     25  C   UNL     1       6.203   3.581  14.004  0.00  0.00    +0.000 C 
BRANCH  25  26
ATOM     26  N   UNL     1       6.084   4.014  12.601  0.00  0.00    +0.000 NA
ATOM     27  C   UNL     1       7.220   3.536  11.804  0.00  0.00    +0.000 C 
ATOM     28  C   UNL     1       4.831   3.501  12.039  0.00  0.00    +0.000 C 
ENDBRANCH  25  26
ENDBRANCH  20  25
ENDBRANCH  18  19
ENDBRANCH   1  18
BRANCH   3  29
ATOM     29  C   UNL     1       2.282   3.055  20.084  0.00  0.00    +0.000 C 
BRANCH  29  30
ATOM     30  O   UNL     1       1.397   2.167  19.399  0.00  0.00    +0.000 OA
ATOM     31  H   UNL     1       0.572   2.663  19.243  0.00  0.00    +0.000 HD
ENDBRANCH  29  30
ENDBRANCH   3  29
TORSDOF 9
ENDMDL
MODEL 5
REMARK VINA RESULT:      -7.4      1.289      1.994
REMARK  Name = 
REMARK  13 active torsions:
REMARK  status: ('A' for Active; 'I' for Inactive)
REMARK    1  A    between atoms: C_1  and  C_2
REMARK    2  A    between atoms: C_2  and  C_3
REMARK    3  A    between atoms: C_2  and  N_4
REMARK    4  A    between atoms: N_4  and  C_5
REMARK    5  A    between atoms: C_5  and  C_6
REMARK    6  A    between atoms: CA_8  and  C_9
REMARK    7  A    between atoms: C_9  and  O_10
REMARK    8  A    between atoms: C_11  and  C_12
REMARK    9  A    between atoms: C_15  and  C_16
REMARK   10  A    between atoms: C_24  and  C_26
REMARK   11  A    between atoms: C_26  and  N_27
REMARK   12  A    between atoms: N_27  and  C_28
REMARK   13  A    between atoms: N_27  and  C_29
REMARK                            x       y       z     vdW  Elec       q    Type
REMARK                         _______ _______ _______ _____ _____    ______ ____
ROOT
ATOM      1  C   UNL     1       3.811   5.482  17.395  0.00  0.00    +0.000 C 
ATOM      2  N   UNL     1       2.559   4.671  17.689  0.00  0.00    +0.000 NA
ATOM      3  CA  UNL     1       2.783   4.849  19.148  0.00  0.00    +0.000 C 
ATOM      4  C   UNL     1       3.537   6.170  18.804  0.00  0.00    +0.000 C 
ATOM      5  H   UNL     1       2.557   3.704  17.368  0.00  0.00    +0.000 HD
ENDROOT
BRANCH   4   6
ATOM      6  C   UNL     1       2.646   7.509  18.924  0.00  0.00    +0.000 A 
ATOM      7  C   UNL     1       2.012   7.829  20.144  0.00  0.00    +0.000 A 
ATOM      8  C   UNL     1       0.998   8.783  20.217  0.00  0.00    +0.000 A 
ATOM      9  C   UNL     1       0.606   9.466  19.067  0.00  0.00    +0.000 A 
ATOM     10  C   UNL     1       1.290   9.254  17.870  0.00  0.00    +0.000 A 
ATOM     11  C   UNL     1       2.300   8.294  17.806  0.00  0.00    +0.000 A 
BRANCH   9  12
ATOM     12  C   UNL     1      -0.496  10.425  19.116  0.00  0.00    +0.000 C 
ATOM     13  C   UNL     1      -0.533  11.309  20.126  0.00  0.00    +0.000 C 
ATOM     14  C   UNL     1      -1.619  12.332  20.269  0.00  0.00    +0.000 C 
ATOM     15  C   UNL     1      -2.832  12.029  19.391  0.00  0.00    +0.000 C 
ATOM     16  C   UNL     1      -2.415  11.621  17.987  0.00  0.00    +0.000 C 
ATOM     17  C   UNL     1      -1.516  10.380  18.007  0.00  0.00    +0.000 C 
ENDBRANCH   9  12
ENDBRANCH   4   6
BRANCH   1  18
ATOM     18  C   UNL     1       5.013   4.534  17.087  0.00  0.00    +0.000 C 
BRANCH  18  19
ATOM     19  N   UNL     1       6.216   5.213  16.521  0.00  0.00    +0.000 N 
ATOM     20  C   UNL     1       6.675   4.988  15.203  0.00  0.00    +0.000 C 
ATOM     21  O   UNL     1       7.825   5.282  14.853  0.00  0.00    +0.000 OA
BRANCH  19  23
ATOM     22  C   UNL     1       7.319   7.299  17.449  0.00  0.00    +0.000 C 
ATOM     23  C   UNL     1       7.258   5.785  17.404  0.00  0.00    +0.000 C 
ATOM     24  C   UNL     1       7.194   5.214  18.828  0.00  0.00    +0.000 C 
ENDBRANCH  19  23
BRANCH  20  25
ATOM     25  C   UNL     1       5.751   4.368  14.151  0.00  0.00    +0.000 C 
BRANCH  25  26
ATOM     26  N   UNL     1       6.512   3.727  13.064  0.00  0.00    +0.000 NA
ATOM     27  C   UNL     1       5.624   2.968  12.176  0.00  0.00    +0.000 C 
ATOM     28  C   UNL     1       7.222   4.754  12.296  0.00  0.00    +0.000 C 
ENDBRANCH  25  26
ENDBRANCH  20  25
ENDBRANCH  18  19
ENDBRANCH   1  18
BRANCH   3  29
ATOM     29  C   UNL     1       1.493   4.900  19.974  0.00  0.00    +0.000 C 
BRANCH  29  30
ATOM     30  O   UNL     1       0.899   3.601  20.019  0.00  0.00    +0.000 OA
ATOM     31  H   UNL     1       0.024   3.711  20.436  0.00  0.00    +0.000 HD
ENDBRANCH  29  30
ENDBRANCH   3  29
TORSDOF 9
ENDMDL
MODEL 6
REMARK VINA RESULT:      -7.3      4.842      9.980
REMARK  Name = 
REMARK  13 active torsions:
REMARK  status: ('A' for Active; 'I' for Inactive)
REMARK    1  A    between atoms: C_1  and  C_2
REMARK    2  A    between atoms: C_2  and  C_3
REMARK    3  A    between atoms: C_2  and  N_4
REMARK    4  A    between atoms: N_4  and  C_5
REMARK    5  A    between atoms: C_5  and  C_6
REMARK    6  A    between atoms: CA_8  and  C_9
REMARK    7  A    between atoms: C_9  and  O_10
REMARK    8  A    between atoms: C_11  and  C_12
REMARK    9  A    between atoms: C_15  and  C_16
REMARK   10  A    between atoms: C_24  and  C_26
REMARK   11  A    between atoms: C_26  and  N_27
REMARK   12  A    between atoms: N_27  and  C_28
REMARK   13  A    between atoms: N_27  and  C_29
REMARK                            x       y       z     vdW  Elec       q    Type
REMARK                         _______ _______ _______ _____ _____    ______ ____
ROOT
ATOM      1  C   UNL     1      -0.904  12.003  19.443  0.00  0.00    +0.000 C 
ATOM      2  N   UNL     1      -0.104  12.632  18.313  0.00  0.00    +0.000 NA
ATOM      3  CA  UNL     1       1.128  12.566  19.144  0.00  0.00    +0.000 C 
ATOM      4  C   UNL     1       0.481  11.356  19.887  0.00  0.00    +0.000 C 
ATOM      5  H   UNL     1      -0.381  13.569  18.026  0.00  0.00    +0.000 HD
ENDROOT
BRANCH   4   6
ATOM      6  C   UNL     1       0.941   9.907  19.348  0.00  0.00    +0.000 A 
ATOM      7  C   UNL     1       1.300   8.894  20.263  0.00  0.00    +0.000 A 
ATOM      8  C   UNL     1       1.990   7.751  19.861  0.00  0.00    +0.000 A 
ATOM      9  C   UNL     1       2.320   7.579  18.518  0.00  0.00    +0.000 A 
ATOM     10  C   UNL     1       1.880   8.506  17.574  0.00  0.00    +0.000 A 
ATOM     11  C   UNL     1       1.194   9.648  17.986  0.00  0.00    +0.000 A 
BRANCH   9  12
ATOM     12  C   UNL     1       3.095   6.416  18.090  0.00  0.00    +0.000 C 
ATOM     13  C   UNL     1       4.234   6.617  17.410  0.00  0.00    +0.000 C 
ATOM     14  C   UNL     1       5.099   5.494  16.925  0.00  0.00    +0.000 C 
ATOM     15  C   UNL     1       4.385   4.145  16.956  0.00  0.00    +0.000 C 
ATOM     16  C   UNL     1       3.622   3.949  18.257  0.00  0.00    +0.000 C 
ATOM     17  C   UNL     1       2.576   5.050  18.466  0.00  0.00    +0.000 C 
ENDBRANCH   9  12
ENDBRANCH   4   6
BRANCH   1  18
ATOM     18  C   UNL     1      -1.669  13.102  20.245  0.00  0.00    +0.000 C 
BRANCH  18  19
ATOM     19  N   UNL     1      -2.561  12.582  21.324  0.00  0.00    +0.000 N 
ATOM     20  C   UNL     1      -3.971  12.647  21.251  0.00  0.00    +0.000 C 
ATOM     21  O   UNL     1      -4.683  12.527  22.257  0.00  0.00    +0.000 OA
BRANCH  19  23
ATOM     22  C   UNL     1      -1.377  11.079  22.987  0.00  0.00    +0.000 C 
ATOM     23  C   UNL     1      -2.062  12.402  22.706  0.00  0.00    +0.000 C 
ATOM     24  C   UNL     1      -1.174  13.567  23.163  0.00  0.00    +0.000 C 
ENDBRANCH  19  23
BRANCH  20  25
ATOM     25  C   UNL     1      -4.674  12.865  19.909  0.00  0.00    +0.000 C 
BRANCH  25  26
ATOM     26  N   UNL     1      -4.977  11.591  19.235  0.00  0.00    +0.000 NA
ATOM     27  C   UNL     1      -6.419  11.445  19.006  0.00  0.00    +0.000 C 
ATOM     28  C   UNL     1      -4.262  11.535  17.956  0.00  0.00    +0.000 C 
ENDBRANCH  25  26
ENDBRANCH  20  25
ENDBRANCH  18  19
ENDBRANCH   1  18
BRANCH   3  29
ATOM     29  C   UNL     1       2.414  12.366  18.336  0.00  0.00    +0.000 C 
BRANCH  29  30
ATOM     30  O   UNL     1       2.741  13.574  17.645  0.00  0.00    +0.000 OA
ATOM     31  H   UNL     1       2.050  13.703  16.970  0.00  0.00    +0.000 HD
ENDBRANCH  29  30
ENDBRANCH   3  29
TORSDOF 9
ENDMDL
MODEL 7
REMARK VINA RESULT:      -7.3      1.649      2.350
REMARK  Name = 
REMARK  13 active torsions:
REMARK  status: ('A' for Active; 'I' for Inactive)
REMARK    1  A    between atoms: C_1  and  C_2
REMARK    2  A    between atoms: C_2  and  C_3
REMARK    3  A    between atoms: C_2  and  N_4
REMARK    4  A    between atoms: N_4  and  C_5
REMARK    5  A    between atoms: C_5  and  C_6
REMARK    6  A    between atoms: CA_8  and  C_9
REMARK    7  A    between atoms: C_9  and  O_10
REMARK    8  A    between atoms: C_11  and  C_12
REMARK    9  A    between atoms: C_15  and  C_16
REMARK   10  A    between atoms: C_24  and  C_26
REMARK   11  A    between atoms: C_26  and  N_27
REMARK   12  A    between atoms: N_27  and  C_28
REMARK   13  A    between atoms: N_27  and  C_29
REMARK                            x       y       z     vdW  Elec       q    Type
REMARK                         _______ _______ _______ _____ _____    ______ ____
ROOT
ATOM      1  C   UNL     1       3.780   4.561  17.230  0.00  0.00    +0.000 C 
ATOM      2  N   UNL     1       2.581   3.626  17.226  0.00  0.00    +0.000 NA
ATOM      3  CA  UNL     1       2.779   3.362  18.677  0.00  0.00    +0.000 C 
ATOM      4  C   UNL     1       3.449   4.768  18.773  0.00  0.00    +0.000 C 
ATOM      5  H   UNL     1       2.645   2.805  16.626  0.00  0.00    +0.000 HD
ENDROOT
BRANCH   4   6
ATOM      6  C   UNL     1       2.471   5.950  19.269  0.00  0.00    +0.000 A 
ATOM      7  C   UNL     1       2.330   7.122  18.494  0.00  0.00    +0.000 A 
ATOM      8  C   UNL     1       1.757   8.282  19.015  0.00  0.00    +0.000 A 
ATOM      9  C   UNL     1       1.284   8.293  20.325  0.00  0.00    +0.000 A 
ATOM     10  C   UNL     1       1.307   7.118  21.078  0.00  0.00    +0.000 A 
ATOM     11  C   UNL     1       1.885   5.964  20.550  0.00  0.00    +0.000 A 
BRANCH   9  12
ATOM     12  C   UNL     1       0.736   9.518  20.904  0.00  0.00    +0.000 C 
ATOM     13  C   UNL     1       0.084   9.440  22.075  0.00  0.00    +0.000 C 
ATOM     14  C   UNL     1      -0.517  10.635  22.750  0.00  0.00    +0.000 C 
ATOM     15  C   UNL     1      -0.632  11.841  21.820  0.00  0.00    +0.000 C 
ATOM     16  C   UNL     1       0.639  12.042  21.009  0.00  0.00    +0.000 C 
ATOM     17  C   UNL     1       0.962  10.809  20.158  0.00  0.00    +0.000 C 
ENDBRANCH   9  12
ENDBRANCH   4   6
BRANCH   1  18
ATOM     18  C   UNL     1       5.044   3.826  16.683  0.00  0.00    +0.000 C 
BRANCH  18  19
ATOM     19  N   UNL     1       5.975   4.685  15.892  0.00  0.00    +0.000 N 
ATOM     20  C   UNL     1       6.220   4.485  14.515  0.00  0.00    +0.000 C 
ATOM     21  O   UNL     1       7.211   4.967  13.951  0.00  0.00    +0.000 OA
BRANCH  19  23
ATOM     22  C   UNL     1       6.633   6.878  16.980  0.00  0.00    +0.000 C 
ATOM     23  C   UNL     1       7.033   5.478  16.557  0.00  0.00    +0.000 C 
ATOM     24  C   UNL     1       7.670   4.729  17.736  0.00  0.00    +0.000 C 
ENDBRANCH  19  23
BRANCH  20  25
ATOM     25  C   UNL     1       5.254   3.658  13.662  0.00  0.00    +0.000 C 
BRANCH  25  26
ATOM     26  N   UNL     1       5.637   3.663  12.239  0.00  0.00    +0.000 NA
ATOM     27  C   UNL     1       6.561   2.564  11.939  0.00  0.00    +0.000 C 
ATOM     28  C   UNL     1       4.433   3.540  11.412  0.00  0.00    +0.000 C 
ENDBRANCH  25  26
ENDBRANCH  20  25
ENDBRANCH  18  19
ENDBRANCH   1  18
BRANCH   3  29
ATOM     29  C   UNL     1       1.481   3.082  19.441  0.00  0.00    +0.000 C 
BRANCH  29  30
ATOM     30  O   UNL     1       1.767   2.303  20.605  0.00  0.00    +0.000 OA
ATOM     31  H   UNL     1       2.112   1.448  20.289  0.00  0.00    +0.000 HD
ENDBRANCH  29  30
ENDBRANCH   3  29
TORSDOF 9
ENDMDL
MODEL 8
REMARK VINA RESULT:      -7.2      0.876      1.307
REMARK  Name = 
REMARK  13 active torsions:
REMARK  status: ('A' for Active; 'I' for Inactive)
REMARK    1  A    between atoms: C_1  and  C_2
REMARK    2  A    between atoms: C_2  and  C_3
REMARK    3  A    between atoms: C_2  and  N_4
REMARK    4  A    between atoms: N_4  and  C_5
REMARK    5  A    between atoms: C_5  and  C_6
REMARK    6  A    between atoms: CA_8  and  C_9
REMARK    7  A    between atoms: C_9  and  O_10
REMARK    8  A    between atoms: C_11  and  C_12
REMARK    9  A    between atoms: C_15  and  C_16
REMARK   10  A    between atoms: C_24  and  C_26
REMARK   11  A    between atoms: C_26  and  N_27
REMARK   12  A    between atoms: N_27  and  C_28
REMARK   13  A    between atoms: N_27  and  C_29
REMARK                            x       y       z     vdW  Elec       q    Type
REMARK                         _______ _______ _______ _____ _____    ______ ____
ROOT
ATOM      1  C   UNL     1       3.999   5.378  18.334  0.00  0.00    +0.000 C 
ATOM      2  N   UNL     1       2.711   4.570  18.322  0.00  0.00    +0.000 NA
ATOM      3  CA  UNL     1       2.579   4.756  19.792  0.00  0.00    +0.000 C 
ATOM      4  C   UNL     1       3.397   6.074  19.632  0.00  0.00    +0.000 C 
ATOM      5  H   UNL     1       2.784   3.602  18.014  0.00  0.00    +0.000 HD
ENDROOT
BRANCH   4   6
ATOM      6  C   UNL     1       2.506   7.415  19.529  0.00  0.00    +0.000 A 
ATOM      7  C   UNL     1       1.777   7.866  20.650  0.00  0.00    +0.000 A 
ATOM      8  C   UNL     1       0.766   8.819  20.534  0.00  0.00    +0.000 A 
ATOM      9  C   UNL     1       0.472   9.368  19.287  0.00  0.00    +0.000 A 
ATOM     10  C   UNL     1       1.250   9.026  18.181  0.00  0.00    +0.000 A 
ATOM     11  C   UNL     1       2.257   8.069  18.306  0.00  0.00    +0.000 A 
BRANCH   9  12
ATOM     12  C   UNL     1      -0.624  10.323  19.139  0.00  0.00    +0.000 C 
ATOM     13  C   UNL     1      -1.438  10.207  18.077  0.00  0.00    +0.000 C 
ATOM     14  C   UNL     1      -2.588  11.136  17.832  0.00  0.00    +0.000 C 
ATOM     15  C   UNL     1      -2.513  12.403  18.680  0.00  0.00    +0.000 C 
ATOM     16  C   UNL     1      -2.143  12.088  20.121  0.00  0.00    +0.000 C 
ATOM     17  C   UNL     1      -0.792  11.371  20.210  0.00  0.00    +0.000 C 
ENDBRANCH   9  12
ENDBRANCH   4   6
BRANCH   1  18
ATOM     18  C   UNL     1       5.238   4.427  18.327  0.00  0.00    +0.000 C 
BRANCH  18  19
ATOM     19  N   UNL     1       6.411   4.933  17.555  0.00  0.00    +0.000 N 
ATOM     20  C   UNL     1       6.829   4.359  16.332  0.00  0.00    +0.000 C 
ATOM     21  O   UNL     1       7.962   4.554  15.874  0.00  0.00    +0.000 OA
BRANCH  19  23
ATOM     22  C   UNL     1       7.522   7.195  17.826  0.00  0.00    +0.000 C 
ATOM     23  C   UNL     1       7.472   5.730  18.210  0.00  0.00    +0.000 C 
ATOM     24  C   UNL     1       7.452   5.583  19.738  0.00  0.00    +0.000 C 
ENDBRANCH  19  23
BRANCH  20  25
ATOM     25  C   UNL     1       5.881   3.471  15.522  0.00  0.00    +0.000 C 
BRANCH  25  26
ATOM     26  N   UNL     1       5.337   4.177  14.349  0.00  0.00    +0.000 NA
ATOM     27  C   UNL     1       5.398   5.631  14.534  0.00  0.00    +0.000 C 
ATOM     28  C   UNL     1       6.100   3.795  13.156  0.00  0.00    +0.000 C 
ENDBRANCH  25  26
ENDBRANCH  20  25
ENDBRANCH  18  19
ENDBRANCH   1  18
BRANCH   3  29
ATOM     29  C   UNL     1       1.129   4.813  20.284  0.00  0.00    +0.000 C 
BRANCH  29  30
ATOM     30  O   UNL     1       0.556   3.504  20.248  0.00  0.00    +0.000 OA
ATOM     31  H   UNL     1       1.259   2.902  19.939  0.00  0.00    +0.000 HD
ENDBRANCH  29  30
ENDBRANCH   3  29
TORSDOF 9
ENDMDL
MODEL 9
REMARK VINA RESULT:      -7.1      5.071     10.300
REMARK  Name = 
REMARK  13 active torsions:
REMARK  status: ('A' for Active; 'I' for Inactive)
REMARK    1  A    between atoms: C_1  and  C_2
REMARK    2  A    between atoms: C_2  and  C_3
REMARK    3  A    between atoms: C_2  and  N_4
REMARK    4  A    between atoms: N_4  and  C_5
REMARK    5  A    between atoms: C_5  and  C_6
REMARK    6  A    between atoms: CA_8  and  C_9
REMARK    7  A    between atoms: C_9  and  O_10
REMARK    8  A    between atoms: C_11  and  C_12
REMARK    9  A    between atoms: C_15  and  C_16
REMARK   10  A    between atoms: C_24  and  C_26
REMARK   11  A    between atoms: C_26  and  N_27
REMARK   12  A    between atoms: N_27  and  C_28
REMARK   13  A    between atoms: N_27  and  C_29
REMARK                            x       y       z     vdW  Elec       q    Type
REMARK                         _______ _______ _______ _____ _____    ______ ____
ROOT
ATOM      1  C   UNL     1      -1.005  11.943  19.408  0.00  0.00    +0.000 C 
ATOM      2  N   UNL     1      -0.165  12.590  18.317  0.00  0.00    +0.000 NA
ATOM      3  CA  UNL     1       1.029  12.539  19.203  0.00  0.00    +0.000 C 
ATOM      4  C   UNL     1       0.368  11.315  19.911  0.00  0.00    +0.000 C 
ATOM      5  H   UNL     1      -0.443  13.524  18.022  0.00  0.00    +0.000 HD
ENDROOT
BRANCH   4   6
ATOM      6  C   UNL     1       0.875   9.877  19.388  0.00  0.00    +0.000 A 
ATOM      7  C   UNL     1       1.242   8.877  20.315  0.00  0.00    +0.000 A 
ATOM      8  C   UNL     1       1.968   7.750  19.931  0.00  0.00    +0.000 A 
ATOM      9  C   UNL     1       2.326   7.580  18.595  0.00  0.00    +0.000 A 
ATOM     10  C   UNL     1       1.880   8.492  17.638  0.00  0.00    +0.000 A 
ATOM     11  C   UNL     1       1.159   9.618  18.032  0.00  0.00    +0.000 A 
BRANCH   9  12
ATOM     12  C   UNL     1       3.138   6.435  18.187  0.00  0.00    +0.000 C 
ATOM     13  C   UNL     1       2.808   5.217  18.645  0.00  0.00    +0.000 C 
ATOM     14  C   UNL     1       3.576   3.981  18.290  0.00  0.00    +0.000 C 
ATOM     15  C   UNL     1       4.941   4.290  17.680  0.00  0.00    +0.000 C 
ATOM     16  C   UNL     1       4.849   5.398  16.642  0.00  0.00    +0.000 C 
ATOM     17  C   UNL     1       4.290   6.690  17.248  0.00  0.00    +0.000 C 
ENDBRANCH   9  12
ENDBRANCH   4   6
BRANCH   1  18
ATOM     18  C   UNL     1      -1.823  13.027  20.178  0.00  0.00    +0.000 C 
BRANCH  18  19
ATOM     19  N   UNL     1      -2.546  12.525  21.384  0.00  0.00    +0.000 N 
ATOM     20  C   UNL     1      -3.955  12.546  21.497  0.00  0.00    +0.000 C 
ATOM     21  O   UNL     1      -4.523  12.446  22.592  0.00  0.00    +0.000 OA
BRANCH  19  23
ATOM     22  C   UNL     1      -1.297  11.046  23.021  0.00  0.00    +0.000 C 
ATOM     23  C   UNL     1      -1.864  12.413  22.693  0.00  0.00    +0.000 C 
ATOM     24  C   UNL     1      -0.790  13.493  22.885  0.00  0.00    +0.000 C 
ENDBRANCH  19  23
BRANCH  20  25
ATOM     25  C   UNL     1      -4.836  12.691  20.253  0.00  0.00    +0.000 C 
BRANCH  25  26
ATOM     26  N   UNL     1      -5.796  13.801  20.389  0.00  0.00    +0.000 NA
ATOM     27  C   UNL     1      -5.103  15.092  20.454  0.00  0.00    +0.000 C 
ATOM     28  C   UNL     1      -6.717  13.788  19.248  0.00  0.00    +0.000 C 
ENDBRANCH  25  26
ENDBRANCH  20  25
ENDBRANCH  18  19
ENDBRANCH   1  18
BRANCH   3  29
ATOM     29  C   UNL     1       2.354  12.362  18.453  0.00  0.00    +0.000 C 
BRANCH  29  30
ATOM     30  O   UNL     1       2.371  13.208  17.301  0.00  0.00    +0.000 OA
ATOM     31  H   UNL     1       3.306  13.424  17.129  0.00  0.00    +0.000 HD
ENDBRANCH  29  30
ENDBRANCH   3  29
TORSDOF 9
ENDMDL
