MODEL 1
REMARK VINA RESULT:      -8.2      0.000      0.000
REMARK  Name = 
REMARK  10 active torsions:
REMARK  status: ('A' for Active; 'I' for Inactive)
REMARK    1  A    between atoms: C_1  and  N_2
REMARK    2  A    between atoms: N_2  and  C_3
REMARK    3  A    between atoms: C_3  and  C_4
REMARK    4  A    between atoms: C_7  and  C_8
REMARK    5  A    between atoms: N_15  and  C_16
REMARK    6  A    between atoms: C_18  and  C_19
REMARK    7  A    between atoms: N_21  and  C_22
REMARK    8  A    between atoms: C_31  and  C_32
REMARK    9  A    between atoms: C_32  and  C_33
REMARK   10  A    between atoms: C_32  and  C_34
REMARK                            x       y       z     vdW  Elec       q    Type
REMARK                         _______ _______ _______ _____ _____    ______ ____
ROOT
ATOM      1  C   UNL     1      -0.051  10.974  20.682  0.00  0.00    +0.000 A 
ATOM      2  C   UNL     1       0.217  11.234  19.362  0.00  0.00    +0.000 A 
ATOM      3  N   UNL     1       1.048  10.263  18.904  0.00  0.00    +0.000 N 
ATOM      4  N   UNL     1       1.553  10.259  17.664  0.00  0.00    +0.000 NA
ATOM      5  C   UNL     1       2.277   9.219  17.394  0.00  0.00    +0.000 A 
ATOM      6  N   UNL     1       2.520   8.178  18.231  0.00  0.00    +0.000 NA
ATOM      7  C   UNL     1       2.043   8.163  19.446  0.00  0.00    +0.000 A 
ATOM      8  N   UNL     1       2.313   7.062  20.234  0.00  0.00    +0.000 N 
ATOM      9  C   UNL     1       1.268   9.309  19.874  0.00  0.00    +0.000 A 
ATOM     10  C   UNL     1       0.609   9.734  21.045  0.00  0.00    +0.000 A 
ATOM     11  H   UNL     1       2.980   7.284  20.970  0.00  0.00    +0.000 HD
ENDROOT
BRANCH   8  12
ATOM     12  C   UNL     1       2.586   5.773  19.699  0.00  0.00    +0.000 A 
ATOM     13  C   UNL     1       3.696   5.527  18.873  0.00  0.00    +0.000 A 
ATOM     14  C   UNL     1       3.952   4.243  18.357  0.00  0.00    +0.000 A 
ATOM     15  C   UNL     1       3.051   3.215  18.642  0.00  0.00    +0.000 A 
ATOM     16  F   UNL     1       3.246   1.974  18.171  0.00  0.00    +0.000 F 
ATOM     17  C   UNL     1       1.927   3.441  19.430  0.00  0.00    +0.000 A 
ATOM     18  C   UNL     1       1.704   4.714  19.946  0.00  0.00    +0.000 A 
ATOM     19  F   UNL     1       0.634   4.919  20.729  0.00  0.00    +0.000 F 
BRANCH  14  20
ATOM     20  C   UNL     1       5.196   4.036  17.559  0.00  0.00    +0.000 C 
ATOM     21  O   UNL     1       6.269   3.902  18.142  0.00  0.00    +0.000 OA
ATOM     22  N   UNL     1       5.077   3.992  16.182  0.00  0.00    +0.000 N 
ATOM     23  H   UNL     1       4.168   4.114  15.751  0.00  0.00    +0.000 HD
BRANCH  22  24
ATOM     24  C   UNL     1       6.205   3.755  15.337  0.00  0.00    +0.000 C 
ATOM     25  C   UNL     1       6.051   3.849  13.844  0.00  0.00    +0.000 C 
ATOM     26  C   UNL     1       6.883   4.861  14.574  0.00  0.00    +0.000 C 
ENDBRANCH  22  24
ENDBRANCH  14  20
ENDBRANCH   8  12
BRANCH   1  30
ATOM     27  C   UNL     1      -2.610  12.849  22.375  0.00  0.00    +0.000 A 
ATOM     28  N   UNL     1      -1.559  13.286  23.030  0.00  0.00    +0.000 NA
ATOM     29  N   UNL     1      -0.477  12.641  22.485  0.00  0.00    +0.000 NA
ATOM     30  C   UNL     1      -0.921  11.863  21.516  0.00  0.00    +0.000 A 
ATOM     31  O   UNL     1      -2.288  11.968  21.372  0.00  0.00    +0.000 OA
BRANCH  27  32
ATOM     32  C   UNL     1      -4.051  13.141  22.610  0.00  0.00    +0.000 C 
BRANCH  32  34
ATOM     33  C   UNL     1      -4.707  12.352  24.798  0.00  0.00    +0.000 C 
ATOM     34  N   UNL     1      -4.295  13.503  24.012  0.00  0.00    +0.000 NA
ATOM     35  H   UNL     1      -3.441  13.903  24.402  0.00  0.00    +0.000 HD
ENDBRANCH  32  34
ENDBRANCH  27  32
ENDBRANCH   1  30
BRANCH  10  36
ATOM     36  C   UNL     1       0.432   9.115  22.427  0.00  0.00    +0.000 C 
ATOM     37  C   UNL     1       1.684   9.300  23.290  0.00  0.00    +0.000 C 
ATOM     38  C   UNL     1      -0.809   9.473  23.227  0.00  0.00    +0.000 C 
ENDBRANCH  10  36
TORSDOF 7
ENDMDL
MODEL 2
REMARK VINA RESULT:      -8.1      1.183      1.473
REMARK  Name = 
REMARK  10 active torsions:
REMARK  status: ('A' for Active; 'I' for Inactive)
REMARK    1  A    between atoms: C_1  and  N_2
REMARK    2  A    between atoms: N_2  and  C_3
REMARK    3  A    between atoms: C_3  and  C_4
REMARK    4  A    between atoms: C_7  and  C_8
REMARK    5  A    between atoms: N_15  and  C_16
REMARK    6  A    between atoms: C_18  and  C_19
REMARK    7  A    between atoms: N_21  and  C_22
REMARK    8  A    between atoms: C_31  and  C_32
REMARK    9  A    between atoms: C_32  and  C_33
REMARK   10  A    between atoms: C_32  and  C_34
REMARK                            x       y       z     vdW  Elec       q    Type
REMARK                         _______ _______ _______ _____ _____    ______ ____
ROOT
ATOM      1  C   UNL     1      -0.276  11.211  20.157  0.00  0.00    +0.000 A 
ATOM      2  C   UNL     1       0.214  11.419  18.893  0.00  0.00    +0.000 A 
ATOM      3  N   UNL     1       1.100  10.427  18.618  0.00  0.00    +0.000 N 
ATOM      4  N   UNL     1       1.806  10.373  17.482  0.00  0.00    +0.000 NA
ATOM      5  C   UNL     1       2.554   9.321  17.376  0.00  0.00    +0.000 A 
ATOM      6  N   UNL     1       2.642   8.311  18.281  0.00  0.00    +0.000 NA
ATOM      7  C   UNL     1       1.966   8.345  19.398  0.00  0.00    +0.000 A 
ATOM      8  N   UNL     1       2.089   7.274  20.260  0.00  0.00    +0.000 N 
ATOM      9  C   UNL     1       1.143   9.511  19.646  0.00  0.00    +0.000 A 
ATOM     10  C   UNL     1       0.301   9.983  20.672  0.00  0.00    +0.000 A 
ATOM     11  H   UNL     1       2.624   7.522  21.090  0.00  0.00    +0.000 HD
ENDROOT
BRANCH   8  12
ATOM     12  C   UNL     1       2.434   5.965  19.828  0.00  0.00    +0.000 A 
ATOM     13  C   UNL     1       3.569   5.715  19.038  0.00  0.00    +0.000 A 
ATOM     14  C   UNL     1       3.897   4.410  18.623  0.00  0.00    +0.000 A 
ATOM     15  C   UNL     1       3.043   3.361  18.973  0.00  0.00    +0.000 A 
ATOM     16  F   UNL     1       3.307   2.100  18.599  0.00  0.00    +0.000 F 
ATOM     17  C   UNL     1       1.895   3.589  19.726  0.00  0.00    +0.000 A 
ATOM     18  C   UNL     1       1.601   4.883  20.142  0.00  0.00    +0.000 A 
ATOM     19  F   UNL     1       0.509   5.092  20.893  0.00  0.00    +0.000 F 
BRANCH  14  20
ATOM     20  C   UNL     1       5.163   4.207  17.860  0.00  0.00    +0.000 C 
ATOM     21  O   UNL     1       6.231   4.174  18.465  0.00  0.00    +0.000 OA
ATOM     22  N   UNL     1       5.069   4.051  16.489  0.00  0.00    +0.000 N 
ATOM     23  H   UNL     1       4.162   4.092  16.038  0.00  0.00    +0.000 HD
BRANCH  22  24
ATOM     24  C   UNL     1       6.222   3.809  15.679  0.00  0.00    +0.000 C 
ATOM     25  C   UNL     1       6.133   3.974  14.187  0.00  0.00    +0.000 C 
ATOM     26  C   UNL     1       6.970   4.921  14.994  0.00  0.00    +0.000 C 
ENDBRANCH  22  24
ENDBRANCH  14  20
ENDBRANCH   8  12
BRANCH   1  30
ATOM     27  C   UNL     1      -2.199  13.542  22.105  0.00  0.00    +0.000 A 
ATOM     28  N   UNL     1      -3.067  13.298  21.151  0.00  0.00    +0.000 NA
ATOM     29  N   UNL     1      -2.459  12.404  20.305  0.00  0.00    +0.000 NA
ATOM     30  C   UNL     1      -1.264  12.134  20.798  0.00  0.00    +0.000 A 
ATOM     31  O   UNL     1      -1.041  12.815  21.975  0.00  0.00    +0.000 OA
BRANCH  27  32
ATOM     32  C   UNL     1      -2.294  14.505  23.236  0.00  0.00    +0.000 C 
BRANCH  32  34
ATOM     33  C   UNL     1      -0.957  15.631  24.907  0.00  0.00    +0.000 C 
ATOM     34  N   UNL     1      -1.102  14.437  24.092  0.00  0.00    +0.000 NA
ATOM     35  H   UNL     1      -1.175  13.614  24.691  0.00  0.00    +0.000 HD
ENDBRANCH  32  34
ENDBRANCH  27  32
ENDBRANCH   1  30
BRANCH  10  36
ATOM     36  C   UNL     1      -0.113   9.418  22.027  0.00  0.00    +0.000 C 
ATOM     37  C   UNL     1      -0.724   8.021  21.890  0.00  0.00    +0.000 C 
ATOM     38  C   UNL     1       0.903   9.433  23.157  0.00  0.00    +0.000 C 
ENDBRANCH  10  36
TORSDOF 7
ENDMDL
MODEL 3
REMARK VINA RESULT:      -8.1      1.065      1.271
REMARK  Name = 
REMARK  10 active torsions:
REMARK  status: ('A' for Active; 'I' for Inactive)
REMARK    1  A    between atoms: C_1  and  N_2
REMARK    2  A    between atoms: N_2  and  C_3
REMARK    3  A    between atoms: C_3  and  C_4
REMARK    4  A    between atoms: C_7  and  C_8
REMARK    5  A    between atoms: N_15  and  C_16
REMARK    6  A    between atoms: C_18  and  C_19
REMARK    7  A    between atoms: N_21  and  C_22
REMARK    8  A    between atoms: C_31  and  C_32
REMARK    9  A    between atoms: C_32  and  C_33
REMARK   10  A    between atoms: C_32  and  C_34
REMARK                            x       y       z     vdW  Elec       q    Type
REMARK                         _______ _______ _______ _____ _____    ______ ____
ROOT
ATOM      1  C   UNL     1      -0.294  11.207  20.152  0.00  0.00    +0.000 A 
ATOM      2  C   UNL     1       0.199  11.417  18.890  0.00  0.00    +0.000 A 
ATOM      3  N   UNL     1       1.095  10.432  18.620  0.00  0.00    +0.000 N 
ATOM      4  N   UNL     1       1.806  10.383  17.486  0.00  0.00    +0.000 NA
ATOM      5  C   UNL     1       2.563   9.337  17.385  0.00  0.00    +0.000 A 
ATOM      6  N   UNL     1       2.656   8.330  18.292  0.00  0.00    +0.000 NA
ATOM      7  C   UNL     1       1.976   8.359  19.406  0.00  0.00    +0.000 A 
ATOM      8  N   UNL     1       2.104   7.290  20.270  0.00  0.00    +0.000 N 
ATOM      9  C   UNL     1       1.141   9.518  19.649  0.00  0.00    +0.000 A 
ATOM     10  C   UNL     1       0.291   9.984  20.671  0.00  0.00    +0.000 A 
ATOM     11  H   UNL     1       2.634   7.543  21.101  0.00  0.00    +0.000 HD
ENDROOT
BRANCH   8  12
ATOM     12  C   UNL     1       2.462   5.983  19.840  0.00  0.00    +0.000 A 
ATOM     13  C   UNL     1       3.614   5.739  19.074  0.00  0.00    +0.000 A 
ATOM     14  C   UNL     1       3.955   4.436  18.662  0.00  0.00    +0.000 A 
ATOM     15  C   UNL     1       3.096   3.385  18.989  0.00  0.00    +0.000 A 
ATOM     16  F   UNL     1       3.372   2.125  18.617  0.00  0.00    +0.000 F 
ATOM     17  C   UNL     1       1.932   3.607  19.718  0.00  0.00    +0.000 A 
ATOM     18  C   UNL     1       1.625   4.899  20.132  0.00  0.00    +0.000 A 
ATOM     19  F   UNL     1       0.516   5.102  20.859  0.00  0.00    +0.000 F 
BRANCH  14  20
ATOM     20  C   UNL     1       5.238   4.240  17.926  0.00  0.00    +0.000 C 
ATOM     21  O   UNL     1       6.282   4.112  18.561  0.00  0.00    +0.000 OA
ATOM     22  N   UNL     1       5.187   4.197  16.545  0.00  0.00    +0.000 N 
ATOM     23  H   UNL     1       4.299   4.314  16.070  0.00  0.00    +0.000 HD
BRANCH  22  24
ATOM     24  C   UNL     1       6.358   3.971  15.756  0.00  0.00    +0.000 C 
ATOM     25  C   UNL     1       6.230   3.792  14.269  0.00  0.00    +0.000 C 
ATOM     26  C   UNL     1       6.909   5.011  14.819  0.00  0.00    +0.000 C 
ENDBRANCH  22  24
ENDBRANCH  14  20
ENDBRANCH   8  12
BRANCH   1  30
ATOM     27  C   UNL     1      -3.104  13.126  21.311  0.00  0.00    +0.000 A 
ATOM     28  N   UNL     1      -2.176  13.608  22.106  0.00  0.00    +0.000 NA
ATOM     29  N   UNL     1      -1.017  12.952  21.777  0.00  0.00    +0.000 NA
ATOM     30  C   UNL     1      -1.293  12.122  20.788  0.00  0.00    +0.000 A 
ATOM     31  O   UNL     1      -2.618  12.202  20.419  0.00  0.00    +0.000 OA
BRANCH  27  32
ATOM     32  C   UNL     1      -4.565  13.411  21.294  0.00  0.00    +0.000 C 
BRANCH  32  34
ATOM     33  C   UNL     1      -6.647  12.207  21.041  0.00  0.00    +0.000 C 
ATOM     34  N   UNL     1      -5.295  12.385  20.537  0.00  0.00    +0.000 NA
ATOM     35  H   UNL     1      -5.324  12.661  19.555  0.00  0.00    +0.000 HD
ENDBRANCH  32  34
ENDBRANCH  27  32
ENDBRANCH   1  30
BRANCH  10  36
ATOM     36  C   UNL     1      -0.123   9.417  22.024  0.00  0.00    +0.000 C 
ATOM     37  C   UNL     1      -0.775   8.039  21.881  0.00  0.00    +0.000 C 
ATOM     38  C   UNL     1       0.905   9.393  23.144  0.00  0.00    +0.000 C 
ENDBRANCH  10  36
TORSDOF 7
ENDMDL
MODEL 4
REMARK VINA RESULT:      -7.9      3.098      4.565
REMARK  Name = 
REMARK  10 active torsions:
REMARK  status: ('A' for Active; 'I' for Inactive)
REMARK    1  A    between atoms: C_1  and  N_2
REMARK    2  A    between atoms: N_2  and  C_3
REMARK    3  A    between atoms: C_3  and  C_4
REMARK    4  A    between atoms: C_7  and  C_8
REMARK    5  A    between atoms: N_15  and  C_16
REMARK    6  A    between atoms: C_18  and  C_19
REMARK    7  A    between atoms: N_21  and  C_22
REMARK    8  A    between atoms: C_31  and  C_32
REMARK    9  A    between atoms: C_32  and  C_33
REMARK   10  A    between atoms: C_32  and  C_34
REMARK                            x       y       z     vdW  Elec       q    Type
REMARK                         _______ _______ _______ _____ _____    ______ ____
ROOT
ATOM      1  C   UNL     1      -3.395  12.563  20.859  0.00  0.00    +0.000 A 
ATOM      2  C   UNL     1      -3.954  12.197  19.661  0.00  0.00    +0.000 A 
ATOM      3  N   UNL     1      -2.985  11.619  18.905  0.00  0.00    +0.000 N 
ATOM      4  N   UNL     1      -3.189  11.206  17.648  0.00  0.00    +0.000 NA
ATOM      5  C   UNL     1      -2.162  10.627  17.111  0.00  0.00    +0.000 A 
ATOM      6  N   UNL     1      -0.967  10.401  17.717  0.00  0.00    +0.000 NA
ATOM      7  C   UNL     1      -0.744  10.800  18.940  0.00  0.00    +0.000 A 
ATOM      8  N   UNL     1       0.486  10.517  19.499  0.00  0.00    +0.000 N 
ATOM      9  C   UNL     1      -1.808  11.516  19.615  0.00  0.00    +0.000 A 
ATOM     10  C   UNL     1      -2.009  12.133  20.864  0.00  0.00    +0.000 A 
ATOM     11  H   UNL     1       1.057  11.355  19.590  0.00  0.00    +0.000 HD
ENDROOT
BRANCH   8  12
ATOM     12  C   UNL     1       1.291   9.419  19.088  0.00  0.00    +0.000 A 
ATOM     13  C   UNL     1       1.246   8.176  19.741  0.00  0.00    +0.000 A 
ATOM     14  C   UNL     1       2.048   7.099  19.317  0.00  0.00    +0.000 A 
ATOM     15  C   UNL     1       2.933   7.300  18.256  0.00  0.00    +0.000 A 
ATOM     16  F   UNL     1       3.722   6.309  17.816  0.00  0.00    +0.000 F 
ATOM     17  C   UNL     1       3.020   8.533  17.616  0.00  0.00    +0.000 A 
ATOM     18  C   UNL     1       2.204   9.577  18.038  0.00  0.00    +0.000 A 
ATOM     19  F   UNL     1       2.271  10.754  17.398  0.00  0.00    +0.000 F 
BRANCH  14  20
ATOM     20  C   UNL     1       1.884   5.783  20.001  0.00  0.00    +0.000 C 
ATOM     21  O   UNL     1       2.041   5.714  21.218  0.00  0.00    +0.000 OA
ATOM     22  N   UNL     1       1.546   4.691  19.223  0.00  0.00    +0.000 N 
ATOM     23  H   UNL     1       1.435   4.801  18.221  0.00  0.00    +0.000 HD
BRANCH  22  24
ATOM     24  C   UNL     1       1.327   3.399  19.794  0.00  0.00    +0.000 C 
ATOM     25  C   UNL     1       0.733   2.303  18.953  0.00  0.00    +0.000 C 
ATOM     26  C   UNL     1       2.156   2.202  19.416  0.00  0.00    +0.000 C 
ENDBRANCH  22  24
ENDBRANCH  14  20
ENDBRANCH   8  12
BRANCH   1  30
ATOM     27  C   UNL     1      -5.135  14.742  23.129  0.00  0.00    +0.000 A 
ATOM     28  N   UNL     1      -5.436  13.585  23.674  0.00  0.00    +0.000 NA
ATOM     29  N   UNL     1      -4.830  12.631  22.895  0.00  0.00    +0.000 NA
ATOM     30  C   UNL     1      -4.176  13.254  21.933  0.00  0.00    +0.000 A 
ATOM     31  O   UNL     1      -4.309  14.622  22.039  0.00  0.00    +0.000 OA
BRANCH  27  32
ATOM     32  C   UNL     1      -5.601  16.105  23.504  0.00  0.00    +0.000 C 
BRANCH  32  34
ATOM     33  C   UNL     1      -3.760  16.653  24.970  0.00  0.00    +0.000 C 
ATOM     34  N   UNL     1      -5.194  16.446  24.873  0.00  0.00    +0.000 NA
ATOM     35  H   UNL     1      -5.688  17.291  25.162  0.00  0.00    +0.000 HD
ENDBRANCH  32  34
ENDBRANCH  27  32
ENDBRANCH   1  30
BRANCH  10  36
ATOM     36  C   UNL     1      -1.128  12.309  22.096  0.00  0.00    +0.000 C 
ATOM     37  C   UNL     1      -0.814  10.965  22.760  0.00  0.00    +0.000 C 
ATOM     38  C   UNL     1       0.143  13.133  21.965  0.00  0.00    +0.000 C 
ENDBRANCH  10  36
TORSDOF 7
ENDMDL
MODEL 5
REMARK VINA RESULT:      -7.9      3.840     10.376
REMARK  Name = 
REMARK  10 active torsions:
REMARK  status: ('A' for Active; 'I' for Inactive)
REMARK    1  A    between atoms: C_1  and  N_2
REMARK    2  A    between atoms: N_2  and  C_3
REMARK    3  A    between atoms: C_3  and  C_4
REMARK    4  A    between atoms: C_7  and  C_8
REMARK    5  A    between atoms: N_15  and  C_16
REMARK    6  A    between atoms: C_18  and  C_19
REMARK    7  A    between atoms: N_21  and  C_22
REMARK    8  A    between atoms: C_31  and  C_32
REMARK    9  A    between atoms: C_32  and  C_33
REMARK   10  A    between atoms: C_32  and  C_34
REMARK                            x       y       z     vdW  Elec       q    Type
REMARK                         _______ _______ _______ _____ _____    ______ ____
ROOT
ATOM      1  C   UNL     1       1.593   8.082  20.030  0.00  0.00    +0.000 A 
ATOM      2  C   UNL     1       1.252   7.832  21.335  0.00  0.00    +0.000 A 
ATOM      3  N   UNL     1       0.620   8.931  21.821  0.00  0.00    +0.000 N 
ATOM      4  N   UNL     1       0.213   9.036  23.092  0.00  0.00    +0.000 NA
ATOM      5  C   UNL     1      -0.422  10.135  23.353  0.00  0.00    +0.000 A 
ATOM      6  N   UNL     1      -0.709  11.120  22.461  0.00  0.00    +0.000 NA
ATOM      7  C   UNL     1      -0.318  11.041  21.219  0.00  0.00    +0.000 A 
ATOM      8  N   UNL     1      -0.664  12.069  20.365  0.00  0.00    +0.000 N 
ATOM      9  C   UNL     1       0.457   9.879  20.834  0.00  0.00    +0.000 A 
ATOM     10  C   UNL     1       1.090   9.395  19.672  0.00  0.00    +0.000 A 
ATOM     11  H   UNL     1       0.143  12.640  20.122  0.00  0.00    +0.000 HD
ENDROOT
BRANCH   8  12
ATOM     12  C   UNL     1      -1.805  12.893  20.565  0.00  0.00    +0.000 A 
ATOM     13  C   UNL     1      -3.097  12.478  20.203  0.00  0.00    +0.000 A 
ATOM     14  C   UNL     1      -4.216  13.307  20.413  0.00  0.00    +0.000 A 
ATOM     15  C   UNL     1      -4.014  14.581  20.948  0.00  0.00    +0.000 A 
ATOM     16  F   UNL     1      -5.045  15.412  21.164  0.00  0.00    +0.000 F 
ATOM     17  C   UNL     1      -2.739  15.027  21.283  0.00  0.00    +0.000 A 
ATOM     18  C   UNL     1      -1.651  14.184  21.086  0.00  0.00    +0.000 A 
ATOM     19  F   UNL     1      -0.428  14.609  21.438  0.00  0.00    +0.000 F 
BRANCH  14  20
ATOM     20  C   UNL     1      -5.568  12.768  20.086  0.00  0.00    +0.000 C 
ATOM     21  O   UNL     1      -6.117  13.112  19.042  0.00  0.00    +0.000 OA
ATOM     22  N   UNL     1      -6.141  11.882  20.980  0.00  0.00    +0.000 N 
ATOM     23  H   UNL     1      -5.648  11.635  21.831  0.00  0.00    +0.000 HD
BRANCH  22  24
ATOM     24  C   UNL     1      -7.414  11.280  20.731  0.00  0.00    +0.000 C 
ATOM     25  C   UNL     1      -7.483   9.918  20.098  0.00  0.00    +0.000 C 
ATOM     26  C   UNL     1      -7.914  10.102  21.523  0.00  0.00    +0.000 C 
ENDBRANCH  22  24
ENDBRANCH  14  20
ENDBRANCH   8  12
BRANCH   1  30
ATOM     27  C   UNL     1       2.954   5.286  18.226  0.00  0.00    +0.000 A 
ATOM     28  N   UNL     1       3.726   6.238  17.754  0.00  0.00    +0.000 NA
ATOM     29  N   UNL     1       3.313   7.397  18.363  0.00  0.00    +0.000 NA
ATOM     30  C   UNL     1       2.330   7.088  19.187  0.00  0.00    +0.000 A 
ATOM     31  O   UNL     1       2.063   5.736  19.169  0.00  0.00    +0.000 OA
BRANCH  27  32
ATOM     32  C   UNL     1       2.897   3.848  17.844  0.00  0.00    +0.000 C 
BRANCH  32  34
ATOM     33  C   UNL     1       1.117   2.444  18.681  0.00  0.00    +0.000 C 
ATOM     34  N   UNL     1       1.509   3.403  17.662  0.00  0.00    +0.000 NA
ATOM     35  H   UNL     1       0.896   4.218  17.697  0.00  0.00    +0.000 HD
ENDBRANCH  32  34
ENDBRANCH  27  32
ENDBRANCH   1  30
BRANCH  10  36
ATOM     36  C   UNL     1       1.224   9.938  18.253  0.00  0.00    +0.000 C 
ATOM     37  C   UNL     1      -0.139  10.052  17.565  0.00  0.00    +0.000 C 
ATOM     38  C   UNL     1       2.024  11.212  18.038  0.00  0.00    +0.000 C 
ENDBRANCH  10  36
TORSDOF 7
ENDMDL
MODEL 6
REMARK VINA RESULT:      -7.9      3.168     10.078
REMARK  Name = 
REMARK  10 active torsions:
REMARK  status: ('A' for Active; 'I' for Inactive)
REMARK    1  A    between atoms: C_1  and  N_2
REMARK    2  A    between atoms: N_2  and  C_3
REMARK    3  A    between atoms: C_3  and  C_4
REMARK    4  A    between atoms: C_7  and  C_8
REMARK    5  A    between atoms: N_15  and  C_16
REMARK    6  A    between atoms: C_18  and  C_19
REMARK    7  A    between atoms: N_21  and  C_22
REMARK    8  A    between atoms: C_31  and  C_32
REMARK    9  A    between atoms: C_32  and  C_33
REMARK   10  A    between atoms: C_32  and  C_34
REMARK                            x       y       z     vdW  Elec       q    Type
REMARK                         _______ _______ _______ _____ _____    ______ ____
ROOT
ATOM      1  C   UNL     1       4.303   4.605  16.797  0.00  0.00    +0.000 A 
ATOM      2  C   UNL     1       3.425   3.722  17.372  0.00  0.00    +0.000 A 
ATOM      3  N   UNL     1       2.740   4.383  18.341  0.00  0.00    +0.000 N 
ATOM      4  N   UNL     1       1.846   3.786  19.139  0.00  0.00    +0.000 NA
ATOM      5  C   UNL     1       1.252   4.593  19.960  0.00  0.00    +0.000 A 
ATOM      6  N   UNL     1       1.448   5.935  20.040  0.00  0.00    +0.000 NA
ATOM      7  C   UNL     1       2.319   6.537  19.276  0.00  0.00    +0.000 A 
ATOM      8  N   UNL     1       2.449   7.905  19.398  0.00  0.00    +0.000 N 
ATOM      9  C   UNL     1       3.085   5.716  18.361  0.00  0.00    +0.000 A 
ATOM     10  C   UNL     1       4.106   5.906  17.409  0.00  0.00    +0.000 A 
ATOM     11  H   UNL     1       3.327   8.158  19.848  0.00  0.00    +0.000 HD
ENDROOT
BRANCH   8  12
ATOM     12  C   UNL     1       1.402   8.747  19.863  0.00  0.00    +0.000 A 
ATOM     13  C   UNL     1       0.641   9.543  18.990  0.00  0.00    +0.000 A 
ATOM     14  C   UNL     1      -0.395  10.367  19.468  0.00  0.00    +0.000 A 
ATOM     15  C   UNL     1      -0.629  10.418  20.844  0.00  0.00    +0.000 A 
ATOM     16  F   UNL     1      -1.601  11.190  21.353  0.00  0.00    +0.000 F 
ATOM     17  C   UNL     1       0.134   9.665  21.732  0.00  0.00    +0.000 A 
ATOM     18  C   UNL     1       1.139   8.843  21.235  0.00  0.00    +0.000 A 
ATOM     19  F   UNL     1       1.852   8.096  22.094  0.00  0.00    +0.000 F 
BRANCH  14  20
ATOM     20  C   UNL     1      -1.218  11.117  18.475  0.00  0.00    +0.000 C 
ATOM     21  O   UNL     1      -1.426  12.315  18.650  0.00  0.00    +0.000 OA
ATOM     22  N   UNL     1      -1.703  10.421  17.384  0.00  0.00    +0.000 N 
ATOM     23  H   UNL     1      -1.507   9.430  17.290  0.00  0.00    +0.000 HD
BRANCH  22  24
ATOM     24  C   UNL     1      -2.464  11.064  16.359  0.00  0.00    +0.000 C 
ATOM     25  C   UNL     1      -2.870  10.290  15.135  0.00  0.00    +0.000 C 
ATOM     26  C   UNL     1      -3.913  10.743  16.113  0.00  0.00    +0.000 C 
ENDBRANCH  22  24
ENDBRANCH  14  20
ENDBRANCH   8  12
BRANCH   1  30
ATOM     27  C   UNL     1       6.076   3.742  13.791  0.00  0.00    +0.000 A 
ATOM     28  N   UNL     1       7.061   3.641  14.653  0.00  0.00    +0.000 NA
ATOM     29  N   UNL     1       6.526   3.953  15.878  0.00  0.00    +0.000 NA
ATOM     30  C   UNL     1       5.242   4.206  15.701  0.00  0.00    +0.000 A 
ATOM     31  O   UNL     1       4.878   4.062  14.380  0.00  0.00    +0.000 OA
BRANCH  27  32
ATOM     32  C   UNL     1       6.109   3.605  12.308  0.00  0.00    +0.000 C 
BRANCH  32  34
ATOM     33  C   UNL     1       4.050   3.133  11.133  0.00  0.00    +0.000 C 
ATOM     34  N   UNL     1       5.178   2.565  11.852  0.00  0.00    +0.000 NA
ATOM     35  H   UNL     1       5.682   1.914  11.249  0.00  0.00    +0.000 HD
ENDBRANCH  32  34
ENDBRANCH  27  32
ENDBRANCH   1  30
BRANCH  10  36
ATOM     36  C   UNL     1       4.869   7.135  16.926  0.00  0.00    +0.000 C 
ATOM     37  C   UNL     1       6.274   7.199  17.532  0.00  0.00    +0.000 C 
ATOM     38  C   UNL     1       4.934   7.403  15.431  0.00  0.00    +0.000 C 
ENDBRANCH  10  36
TORSDOF 7
ENDMDL
MODEL 7
REMARK VINA RESULT:      -7.8      3.920     10.513
REMARK  Name = 
REMARK  10 active torsions:
REMARK  status: ('A' for Active; 'I' for Inactive)
REMARK    1  A    between atoms: C_1  and  N_2
REMARK    2  A    between atoms: N_2  and  C_3
REMARK    3  A    between atoms: C_3  and  C_4
REMARK    4  A    between atoms: C_7  and  C_8
REMARK    5  A    between atoms: N_15  and  C_16
REMARK    6  A    between atoms: C_18  and  C_19
REMARK    7  A    between atoms: N_21  and  C_22
REMARK    8  A    between atoms: C_31  and  C_32
REMARK    9  A    between atoms: C_32  and  C_33
REMARK   10  A    between atoms: C_32  and  C_34
REMARK                            x       y       z     vdW  Elec       q    Type
REMARK                         _______ _______ _______ _____ _____    ______ ____
ROOT
ATOM      1  C   UNL     1       1.446   8.249  20.224  0.00  0.00    +0.000 A 
ATOM      2  C   UNL     1       1.097   8.067  21.538  0.00  0.00    +0.000 A 
ATOM      3  N   UNL     1       0.403   9.162  21.943  0.00  0.00    +0.000 N 
ATOM      4  N   UNL     1      -0.031   9.328  23.199  0.00  0.00    +0.000 NA
ATOM      5  C   UNL     1      -0.724  10.407  23.378  0.00  0.00    +0.000 A 
ATOM      6  N   UNL     1      -1.046  11.316  22.420  0.00  0.00    +0.000 NA
ATOM      7  C   UNL     1      -0.630  11.177  21.191  0.00  0.00    +0.000 A 
ATOM      8  N   UNL     1      -1.013  12.129  20.267  0.00  0.00    +0.000 N 
ATOM      9  C   UNL     1       0.208  10.033  20.893  0.00  0.00    +0.000 A 
ATOM     10  C   UNL     1       0.884   9.509  19.774  0.00  0.00    +0.000 A 
ATOM     11  H   UNL     1      -0.233  12.724  19.998  0.00  0.00    +0.000 HD
ENDROOT
BRANCH   8  12
ATOM     12  C   UNL     1      -2.197  12.904  20.397  0.00  0.00    +0.000 A 
ATOM     13  C   UNL     1      -3.467  12.383  20.097  0.00  0.00    +0.000 A 
ATOM     14  C   UNL     1      -4.629  13.166  20.237  0.00  0.00    +0.000 A 
ATOM     15  C   UNL     1      -4.496  14.498  20.637  0.00  0.00    +0.000 A 
ATOM     16  F   UNL     1      -5.571  15.288  20.781  0.00  0.00    +0.000 F 
ATOM     17  C   UNL     1      -3.246  15.046  20.907  0.00  0.00    +0.000 A 
ATOM     18  C   UNL     1      -2.113  14.248  20.782  0.00  0.00    +0.000 A 
ATOM     19  F   UNL     1      -0.913  14.774  21.072  0.00  0.00    +0.000 F 
BRANCH  14  20
ATOM     20  C   UNL     1      -5.951  12.522  19.985  0.00  0.00    +0.000 C 
ATOM     21  O   UNL     1      -6.658  12.937  19.070  0.00  0.00    +0.000 OA
ATOM     22  N   UNL     1      -6.316  11.463  20.796  0.00  0.00    +0.000 N 
ATOM     23  H   UNL     1      -5.697  11.163  21.541  0.00  0.00    +0.000 HD
BRANCH  22  24
ATOM     24  C   UNL     1      -7.543  10.756  20.603  0.00  0.00    +0.000 C 
ATOM     25  C   UNL     1      -7.524   9.383  19.990  0.00  0.00    +0.000 C 
ATOM     26  C   UNL     1      -7.916   9.553  21.428  0.00  0.00    +0.000 C 
ENDBRANCH  22  24
ENDBRANCH  14  20
ENDBRANCH   8  12
BRANCH   1  30
ATOM     27  C   UNL     1       3.672   6.321  18.162  0.00  0.00    +0.000 A 
ATOM     28  N   UNL     1       3.020   5.340  18.743  0.00  0.00    +0.000 NA
ATOM     29  N   UNL     1       2.114   5.935  19.585  0.00  0.00    +0.000 NA
ATOM     30  C   UNL     1       2.246   7.242  19.458  0.00  0.00    +0.000 A 
ATOM     31  O   UNL     1       3.217   7.562  18.534  0.00  0.00    +0.000 OA
BRANCH  27  32
ATOM     32  C   UNL     1       4.828   6.254  17.225  0.00  0.00    +0.000 C 
BRANCH  32  34
ATOM     33  C   UNL     1       7.226   6.540  17.135  0.00  0.00    +0.000 C 
ATOM     34  N   UNL     1       6.096   6.141  17.957  0.00  0.00    +0.000 NA
ATOM     35  H   UNL     1       6.048   6.728  18.790  0.00  0.00    +0.000 HD
ENDBRANCH  32  34
ENDBRANCH  27  32
ENDBRANCH   1  30
BRANCH  10  36
ATOM     36  C   UNL     1       1.013   9.965  18.325  0.00  0.00    +0.000 C 
ATOM     37  C   UNL     1      -0.334   9.919  17.599  0.00  0.00    +0.000 C 
ATOM     38  C   UNL     1       1.713  11.283  18.041  0.00  0.00    +0.000 C 
ENDBRANCH  10  36
TORSDOF 7
ENDMDL
MODEL 8
REMARK VINA RESULT:      -7.6      1.006      1.022
REMARK  Name = 
REMARK  10 active torsions:
REMARK  status: ('A' for Active; 'I' for Inactive)
REMARK    1  A    between atoms: C_1  and  N_2
REMARK    2  A    between atoms: N_2  and  C_3
REMARK    3  A    between atoms: C_3  and  C_4
REMARK    4  A    between atoms: C_7  and  C_8
REMARK    5  A    between atoms: N_15  and  C_16
REMARK    6  A    between atoms: C_18  and  C_19
REMARK    7  A    between atoms: N_21  and  C_22
REMARK    8  A    between atoms: C_31  and  C_32
REMARK    9  A    between atoms: C_32  and  C_33
REMARK   10  A    between atoms: C_32  and  C_34
REMARK                            x       y       z     vdW  Elec       q    Type
REMARK                         _______ _______ _______ _____ _____    ______ ____
ROOT
ATOM      1  C   UNL     1       0.398  10.932  20.476  0.00  0.00    +0.000 A 
ATOM      2  C   UNL     1       0.738  11.096  19.157  0.00  0.00    +0.000 A 
ATOM      3  N   UNL     1       1.400   9.982  18.753  0.00  0.00    +0.000 N 
ATOM      4  N   UNL     1       1.925   9.849  17.529  0.00  0.00    +0.000 NA
ATOM      5  C   UNL     1       2.466   8.692  17.310  0.00  0.00    +0.000 A 
ATOM      6  N   UNL     1       2.508   7.654  18.186  0.00  0.00    +0.000 NA
ATOM      7  C   UNL     1       2.006   7.763  19.386  0.00  0.00    +0.000 A 
ATOM      8  N   UNL     1       2.065   6.660  20.214  0.00  0.00    +0.000 N 
ATOM      9  C   UNL     1       1.430   9.039  19.757  0.00  0.00    +0.000 A 
ATOM     10  C   UNL     1       0.827   9.610  20.894  0.00  0.00    +0.000 A 
ATOM     11  H   UNL     1       2.743   6.790  20.962  0.00  0.00    +0.000 HD
ENDROOT
BRANCH   8  12
ATOM     12  C   UNL     1       2.125   5.326  19.726  0.00  0.00    +0.000 A 
ATOM     13  C   UNL     1       3.110   4.907  18.816  0.00  0.00    +0.000 A 
ATOM     14  C   UNL     1       3.156   3.580  18.348  0.00  0.00    +0.000 A 
ATOM     15  C   UNL     1       2.169   2.687  18.769  0.00  0.00    +0.000 A 
ATOM     16  F   UNL     1       2.165   1.413  18.350  0.00  0.00    +0.000 F 
ATOM     17  C   UNL     1       1.164   3.087  19.644  0.00  0.00    +0.000 A 
ATOM     18  C   UNL     1       1.149   4.397  20.110  0.00  0.00    +0.000 A 
ATOM     19  F   UNL     1       0.194   4.769  20.976  0.00  0.00    +0.000 F 
BRANCH  14  20
ATOM     20  C   UNL     1       4.281   3.185  17.450  0.00  0.00    +0.000 C 
ATOM     21  O   UNL     1       4.665   2.018  17.446  0.00  0.00    +0.000 OA
ATOM     22  N   UNL     1       4.836   4.163  16.646  0.00  0.00    +0.000 N 
ATOM     23  H   UNL     1       4.486   5.113  16.693  0.00  0.00    +0.000 HD
BRANCH  22  24
ATOM     24  C   UNL     1       5.889   3.870  15.724  0.00  0.00    +0.000 C 
ATOM     25  C   UNL     1       5.988   4.641  14.437  0.00  0.00    +0.000 C 
ATOM     26  C   UNL     1       7.039   4.812  15.492  0.00  0.00    +0.000 C 
ENDBRANCH  22  24
ENDBRANCH  14  20
ENDBRANCH   8  12
BRANCH   1  30
ATOM     27  C   UNL     1      -1.854  13.201  22.121  0.00  0.00    +0.000 A 
ATOM     28  N   UNL     1      -0.718  13.632  22.620  0.00  0.00    +0.000 NA
ATOM     29  N   UNL     1       0.260  12.839  22.073  0.00  0.00    +0.000 NA
ATOM     30  C   UNL     1      -0.326  11.984  21.257  0.00  0.00    +0.000 A 
ATOM     31  O   UNL     1      -1.690  12.179  21.219  0.00  0.00    +0.000 OA
BRANCH  27  32
ATOM     32  C   UNL     1      -3.243  13.634  22.438  0.00  0.00    +0.000 C 
BRANCH  32  34
ATOM     33  C   UNL     1      -5.391  12.738  21.788  0.00  0.00    +0.000 C 
ATOM     34  N   UNL     1      -4.154  12.484  22.506  0.00  0.00    +0.000 NA
ATOM     35  H   UNL     1      -3.684  11.670  22.111  0.00  0.00    +0.000 HD
ENDBRANCH  32  34
ENDBRANCH  27  32
ENDBRANCH   1  30
BRANCH  10  36
ATOM     36  C   UNL     1       0.514   9.078  22.289  0.00  0.00    +0.000 C 
ATOM     37  C   UNL     1       1.697   9.269  23.242  0.00  0.00    +0.000 C 
ATOM     38  C   UNL     1      -0.773   9.525  22.962  0.00  0.00    +0.000 C 
ENDBRANCH  10  36
TORSDOF 7
ENDMDL
MODEL 9
REMARK VINA RESULT:      -7.5      1.153      1.477
REMARK  Name = 
REMARK  10 active torsions:
REMARK  status: ('A' for Active; 'I' for Inactive)
REMARK    1  A    between atoms: C_1  and  N_2
REMARK    2  A    between atoms: N_2  and  C_3
REMARK    3  A    between atoms: C_3  and  C_4
REMARK    4  A    between atoms: C_7  and  C_8
REMARK    5  A    between atoms: N_15  and  C_16
REMARK    6  A    between atoms: C_18  and  C_19
REMARK    7  A    between atoms: N_21  and  C_22
REMARK    8  A    between atoms: C_31  and  C_32
REMARK    9  A    between atoms: C_32  and  C_33
REMARK   10  A    between atoms: C_32  and  C_34
REMARK                            x       y       z     vdW  Elec       q    Type
REMARK                         _______ _______ _______ _____ _____    ______ ____
ROOT
ATOM      1  C   UNL     1      -0.299  11.159  20.102  0.00  0.00    +0.000 A 
ATOM      2  C   UNL     1       0.221  11.378  18.852  0.00  0.00    +0.000 A 
ATOM      3  N   UNL     1       1.126  10.399  18.597  0.00  0.00    +0.000 N 
ATOM      4  N   UNL     1       1.862  10.358  17.479  0.00  0.00    +0.000 NA
ATOM      5  C   UNL     1       2.626   9.316  17.389  0.00  0.00    +0.000 A 
ATOM      6  N   UNL     1       2.702   8.304  18.293  0.00  0.00    +0.000 NA
ATOM      7  C   UNL     1       1.997   8.324  19.391  0.00  0.00    +0.000 A 
ATOM      8  N   UNL     1       2.110   7.252  20.252  0.00  0.00    +0.000 N 
ATOM      9  C   UNL     1       1.153   9.479  19.622  0.00  0.00    +0.000 A 
ATOM     10  C   UNL     1       0.279   9.936  20.627  0.00  0.00    +0.000 A 
ATOM     11  H   UNL     1       2.621   7.502  21.096  0.00  0.00    +0.000 HD
ENDROOT
BRANCH   8  12
ATOM     12  C   UNL     1       2.483   5.948  19.824  0.00  0.00    +0.000 A 
ATOM     13  C   UNL     1       3.622   5.720  19.035  0.00  0.00    +0.000 A 
ATOM     14  C   UNL     1       3.978   4.421  18.624  0.00  0.00    +0.000 A 
ATOM     15  C   UNL     1       3.147   3.356  18.977  0.00  0.00    +0.000 A 
ATOM     16  F   UNL     1       3.437   2.099  18.608  0.00  0.00    +0.000 F 
ATOM     17  C   UNL     1       1.995   3.561  19.731  0.00  0.00    +0.000 A 
ATOM     18  C   UNL     1       1.674   4.851  20.142  0.00  0.00    +0.000 A 
ATOM     19  F   UNL     1       0.577   5.039  20.893  0.00  0.00    +0.000 F 
BRANCH  14  20
ATOM     20  C   UNL     1       5.248   4.242  17.861  0.00  0.00    +0.000 C 
ATOM     21  O   UNL     1       6.312   4.180  18.470  0.00  0.00    +0.000 OA
ATOM     22  N   UNL     1       5.162   4.140  16.485  0.00  0.00    +0.000 N 
ATOM     23  H   UNL     1       4.257   4.204  16.030  0.00  0.00    +0.000 HD
BRANCH  22  24
ATOM     24  C   UNL     1       6.318   3.925  15.672  0.00  0.00    +0.000 C 
ATOM     25  C   UNL     1       6.171   3.810  14.181  0.00  0.00    +0.000 C 
ATOM     26  C   UNL     1       6.877   4.993  14.771  0.00  0.00    +0.000 C 
ENDBRANCH  22  24
ENDBRANCH  14  20
ENDBRANCH   8  12
BRANCH   1  30
ATOM     27  C   UNL     1      -3.020  13.316  21.036  0.00  0.00    +0.000 A 
ATOM     28  N   UNL     1      -2.397  13.250  22.190  0.00  0.00    +0.000 NA
ATOM     29  N   UNL     1      -1.310  12.437  21.988  0.00  0.00    +0.000 NA
ATOM     30  C   UNL     1      -1.316  12.068  20.720  0.00  0.00    +0.000 A 
ATOM     31  O   UNL     1      -2.379  12.621  20.040  0.00  0.00    +0.000 OA
BRANCH  27  32
ATOM     32  C   UNL     1      -4.309  13.982  20.702  0.00  0.00    +0.000 C 
BRANCH  32  34
ATOM     33  C   UNL     1      -2.765  15.841  20.652  0.00  0.00    +0.000 C 
ATOM     34  N   UNL     1      -4.162  15.444  20.692  0.00  0.00    +0.000 NA
ATOM     35  H   UNL     1      -4.653  15.817  19.879  0.00  0.00    +0.000 HD
ENDBRANCH  32  34
ENDBRANCH  27  32
ENDBRANCH   1  30
BRANCH  10  36
ATOM     36  C   UNL     1      -0.163   9.361  21.968  0.00  0.00    +0.000 C 
ATOM     37  C   UNL     1      -0.726   7.945  21.815  0.00  0.00    +0.000 C 
ATOM     38  C   UNL     1       0.812   9.410  23.133  0.00  0.00    +0.000 C 
ENDBRANCH  10  36
TORSDOF 7
ENDMDL
