MODEL 1
REMARK VINA RESULT:      -9.5      0.000      0.000
REMARK  Name = 
REMARK  6 active torsions:
REMARK  status: ('A' for Active; 'I' for Inactive)
REMARK    1  A    between atoms: N_2  and  C_4
REMARK    2  A    between atoms: C_8  and  C_9
REMARK    3  A    between atoms: C_9  and  S_10
REMARK    4  A    between atoms: S_10  and  C_11
REMARK    5  A    between atoms: C_14  and  C_15
REMARK    6  A    between atoms: N_25  and  C_26
REMARK                            x       y       z     vdW  Elec       q    Type
REMARK                         _______ _______ _______ _____ _____    ______ ____
ROOT
ATOM      1  C   UNL     1       4.359   5.615  17.104  0.00  0.00    +0.000 A 
ATOM      2  N   UNL     1       4.612   6.800  16.603  0.00  0.00    +0.000 NA
ATOM      3  N   UNL     1       3.698   7.676  17.112  0.00  0.00    +0.000 NA
ATOM      4  C   UNL     1       2.896   7.034  17.950  0.00  0.00    +0.000 A 
ATOM      5  N   UNL     1       3.226   5.659  17.925  0.00  0.00    +0.000 N 
ENDROOT
BRANCH   4   6
ATOM      6  C   UNL     1       2.024   7.748  18.902  0.00  0.00    +0.000 A 
ATOM      7  C   UNL     1       1.892   7.456  20.271  0.00  0.00    +0.000 A 
ATOM      8  C   UNL     1       1.453   8.457  21.154  0.00  0.00    +0.000 A 
ATOM      9  C   UNL     1       1.102   9.714  20.663  0.00  0.00    +0.000 A 
ATOM     10  C   UNL     1       1.012   9.905  19.287  0.00  0.00    +0.000 A 
ATOM     11  C   UNL     1       1.431   8.915  18.411  0.00  0.00    +0.000 A 
ATOM     12  O   UNL     1       0.642  11.097  18.729  0.00  0.00    +0.000 OA
ATOM     13  C   UNL     1       1.211  12.138  19.518  0.00  0.00    +0.000 C 
ATOM     14  C   UNL     1       0.746  12.026  20.964  0.00  0.00    +0.000 C 
ATOM     15  O   UNL     1       0.954  10.734  21.564  0.00  0.00    +0.000 OA
ENDBRANCH   4   6
BRANCH   5  16
ATOM     16  C   UNL     1       2.561   4.565  18.583  0.00  0.00    +0.000 A 
ATOM     17  C   UNL     1       1.471   3.922  17.983  0.00  0.00    +0.000 A 
ATOM     18  C   UNL     1       0.737   2.951  18.676  0.00  0.00    +0.000 A 
ATOM     19  C   UNL     1       1.041   2.654  19.999  0.00  0.00    +0.000 A 
ATOM     20  C   UNL     1       2.140   3.254  20.596  0.00  0.00    +0.000 A 
ATOM     21  C   UNL     1       2.928   4.151  19.869  0.00  0.00    +0.000 A 
ENDBRANCH   5  16
BRANCH   1  22
ATOM     22  S   UNL     1       5.382   4.225  16.868  0.00  0.00    +0.000 S 
BRANCH  22  23
ATOM     23  C   UNL     1       6.937   4.907  16.226  0.00  0.00    +0.000 C 
BRANCH  23  28
ATOM     24  C   UNL     1       6.223   3.722  12.641  0.00  0.00    +0.000 A 
ATOM     25  C   UNL     1       7.157   4.462  11.904  0.00  0.00    +0.000 A 
ATOM     26  C   UNL     1       8.016   5.329  12.574  0.00  0.00    +0.000 A 
ATOM     27  C   UNL     1       7.948   5.458  13.966  0.00  0.00    +0.000 A 
ATOM     28  C   UNL     1       7.018   4.719  14.719  0.00  0.00    +0.000 A 
ATOM     29  C   UNL     1       6.146   3.846  14.041  0.00  0.00    +0.000 A 
BRANCH  24  31
ATOM     30  O   UNL     1       4.136   3.200  11.762  0.00  0.00    +0.000 OA
ATOM     31  N   UNL     1       5.305   2.820  11.931  0.00  0.00    +0.000 N 
ATOM     32  O   UNL     1       5.754   1.731  11.545  0.00  0.00    +0.000 OA
ENDBRANCH  24  31
ENDBRANCH  23  28
ENDBRANCH  22  23
ENDBRANCH   1  22
TORSDOF 6
ENDMDL
MODEL 2
REMARK VINA RESULT:      -9.4      0.174      1.022
REMARK  Name = 
REMARK  6 active torsions:
REMARK  status: ('A' for Active; 'I' for Inactive)
REMARK    1  A    between atoms: N_2  and  C_4
REMARK    2  A    between atoms: C_8  and  C_9
REMARK    3  A    between atoms: C_9  and  S_10
REMARK    4  A    between atoms: S_10  and  C_11
REMARK    5  A    between atoms: C_14  and  C_15
REMARK    6  A    between atoms: N_25  and  C_26
REMARK                            x       y       z     vdW  Elec       q    Type
REMARK                         _______ _______ _______ _____ _____    ______ ____
ROOT
ATOM      1  C   UNL     1       4.369   5.572  17.109  0.00  0.00    +0.000 A 
ATOM      2  N   UNL     1       4.627   6.752  16.598  0.00  0.00    +0.000 NA
ATOM      3  N   UNL     1       3.719   7.636  17.103  0.00  0.00    +0.000 NA
ATOM      4  C   UNL     1       2.916   7.005  17.948  0.00  0.00    +0.000 A 
ATOM      5  N   UNL     1       3.239   5.628  17.933  0.00  0.00    +0.000 N 
ENDROOT
BRANCH   4   6
ATOM      6  C   UNL     1       2.051   7.730  18.897  0.00  0.00    +0.000 A 
ATOM      7  C   UNL     1       1.916   7.444  20.268  0.00  0.00    +0.000 A 
ATOM      8  C   UNL     1       1.486   8.453  21.146  0.00  0.00    +0.000 A 
ATOM      9  C   UNL     1       1.147   9.712  20.651  0.00  0.00    +0.000 A 
ATOM     10  C   UNL     1       1.058   9.898  19.275  0.00  0.00    +0.000 A 
ATOM     11  C   UNL     1       1.469   8.901  18.402  0.00  0.00    +0.000 A 
ATOM     12  O   UNL     1       0.700  11.091  18.712  0.00  0.00    +0.000 OA
ATOM     13  C   UNL     1       1.278  12.130  19.497  0.00  0.00    +0.000 C 
ATOM     14  C   UNL     1       0.812  12.027  20.944  0.00  0.00    +0.000 C 
ATOM     15  O   UNL     1       1.008  10.736  21.548  0.00  0.00    +0.000 OA
ENDBRANCH   4   6
BRANCH   5  16
ATOM     16  C   UNL     1       2.570   4.543  18.600  0.00  0.00    +0.000 A 
ATOM     17  C   UNL     1       3.063   4.026  19.805  0.00  0.00    +0.000 A 
ATOM     18  C   UNL     1       2.497   2.885  20.385  0.00  0.00    +0.000 A 
ATOM     19  C   UNL     1       1.471   2.206  19.740  0.00  0.00    +0.000 A 
ATOM     20  C   UNL     1       0.945   2.724  18.565  0.00  0.00    +0.000 A 
ATOM     21  C   UNL     1       1.450   3.917  18.040  0.00  0.00    +0.000 A 
ENDBRANCH   5  16
BRANCH   1  22
ATOM     22  S   UNL     1       5.384   4.175  16.880  0.00  0.00    +0.000 S 
BRANCH  22  23
ATOM     23  C   UNL     1       6.950   4.846  16.252  0.00  0.00    +0.000 C 
BRANCH  23  28
ATOM     24  C   UNL     1       6.234   3.731  12.645  0.00  0.00    +0.000 A 
ATOM     25  C   UNL     1       7.154   4.501  11.920  0.00  0.00    +0.000 A 
ATOM     26  C   UNL     1       8.004   5.365  12.604  0.00  0.00    +0.000 A 
ATOM     27  C   UNL     1       7.940   5.462  14.000  0.00  0.00    +0.000 A 
ATOM     28  C   UNL     1       7.025   4.693  14.740  0.00  0.00    +0.000 A 
ATOM     29  C   UNL     1       6.163   3.823  14.048  0.00  0.00    +0.000 A 
BRANCH  24  31
ATOM     30  O   UNL     1       5.766   1.727  11.565  0.00  0.00    +0.000 OA
ATOM     31  N   UNL     1       5.326   2.832  11.919  0.00  0.00    +0.000 N 
ATOM     32  O   UNL     1       4.173   3.233  11.703  0.00  0.00    +0.000 OA
ENDBRANCH  24  31
ENDBRANCH  23  28
ENDBRANCH  22  23
ENDBRANCH   1  22
TORSDOF 6
ENDMDL
MODEL 3
REMARK VINA RESULT:      -9.1      1.742      3.248
REMARK  Name = 
REMARK  6 active torsions:
REMARK  status: ('A' for Active; 'I' for Inactive)
REMARK    1  A    between atoms: N_2  and  C_4
REMARK    2  A    between atoms: C_8  and  C_9
REMARK    3  A    between atoms: C_9  and  S_10
REMARK    4  A    between atoms: S_10  and  C_11
REMARK    5  A    between atoms: C_14  and  C_15
REMARK    6  A    between atoms: N_25  and  C_26
REMARK                            x       y       z     vdW  Elec       q    Type
REMARK                         _______ _______ _______ _____ _____    ______ ____
ROOT
ATOM      1  C   UNL     1       3.839   4.184  17.328  0.00  0.00    +0.000 A 
ATOM      2  N   UNL     1       2.549   3.952  17.360  0.00  0.00    +0.000 NA
ATOM      3  N   UNL     1       1.945   5.014  17.969  0.00  0.00    +0.000 NA
ATOM      4  C   UNL     1       2.863   5.915  18.288  0.00  0.00    +0.000 A 
ATOM      5  N   UNL     1       4.138   5.392  17.968  0.00  0.00    +0.000 N 
ENDROOT
BRANCH   4   6
ATOM      6  C   UNL     1       2.509   7.298  18.655  0.00  0.00    +0.000 A 
ATOM      7  C   UNL     1       2.265   8.350  17.753  0.00  0.00    +0.000 A 
ATOM      8  C   UNL     1       1.477   9.440  18.158  0.00  0.00    +0.000 A 
ATOM      9  C   UNL     1       0.987   9.501  19.462  0.00  0.00    +0.000 A 
ATOM     10  C   UNL     1       1.438   8.577  20.400  0.00  0.00    +0.000 A 
ATOM     11  C   UNL     1       2.227   7.505  20.009  0.00  0.00    +0.000 A 
ATOM     12  O   UNL     1       1.031   8.591  21.705  0.00  0.00    +0.000 OA
ATOM     13  C   UNL     1      -0.346   8.954  21.725  0.00  0.00    +0.000 C 
ATOM     14  C   UNL     1      -0.550  10.308  21.058  0.00  0.00    +0.000 C 
ATOM     15  O   UNL     1       0.007  10.416  19.735  0.00  0.00    +0.000 OA
ENDBRANCH   4   6
BRANCH   5  16
ATOM     16  C   UNL     1       5.433   5.960  18.236  0.00  0.00    +0.000 A 
ATOM     17  C   UNL     1       5.935   7.007  17.452  0.00  0.00    +0.000 A 
ATOM     18  C   UNL     1       7.245   7.469  17.620  0.00  0.00    +0.000 A 
ATOM     19  C   UNL     1       8.095   6.852  18.530  0.00  0.00    +0.000 A 
ATOM     20  C   UNL     1       7.604   5.839  19.340  0.00  0.00    +0.000 A 
ATOM     21  C   UNL     1       6.267   5.446  19.235  0.00  0.00    +0.000 A 
ENDBRANCH   5  16
BRANCH   1  22
ATOM     22  S   UNL     1       4.983   3.177  16.485  0.00  0.00    +0.000 S 
BRANCH  22  23
ATOM     23  C   UNL     1       6.319   4.308  16.003  0.00  0.00    +0.000 C 
BRANCH  23  28
ATOM     24  C   UNL     1       6.043   3.351  12.292  0.00  0.00    +0.000 A 
ATOM     25  C   UNL     1       6.983   4.208  11.705  0.00  0.00    +0.000 A 
ATOM     26  C   UNL     1       7.705   5.080  12.515  0.00  0.00    +0.000 A 
ATOM     27  C   UNL     1       7.495   5.097  13.899  0.00  0.00    +0.000 A 
ATOM     28  C   UNL     1       6.557   4.241  14.502  0.00  0.00    +0.000 A 
ATOM     29  C   UNL     1       5.823   3.363  13.682  0.00  0.00    +0.000 A 
BRANCH  24  31
ATOM     30  O   UNL     1       5.777   1.350  11.140  0.00  0.00    +0.000 OA
ATOM     31  N   UNL     1       5.269   2.444  11.433  0.00  0.00    +0.000 N 
ATOM     32  O   UNL     1       4.154   2.827  11.051  0.00  0.00    +0.000 OA
ENDBRANCH  24  31
ENDBRANCH  23  28
ENDBRANCH  22  23
ENDBRANCH   1  22
TORSDOF 6
ENDMDL
MODEL 4
REMARK VINA RESULT:      -9.0      1.703      2.180
REMARK  Name = 
REMARK  6 active torsions:
REMARK  status: ('A' for Active; 'I' for Inactive)
REMARK    1  A    between atoms: N_2  and  C_4
REMARK    2  A    between atoms: C_8  and  C_9
REMARK    3  A    between atoms: C_9  and  S_10
REMARK    4  A    between atoms: S_10  and  C_11
REMARK    5  A    between atoms: C_14  and  C_15
REMARK    6  A    between atoms: N_25  and  C_26
REMARK                            x       y       z     vdW  Elec       q    Type
REMARK                         _______ _______ _______ _____ _____    ______ ____
ROOT
ATOM      1  C   UNL     1       4.335   5.628  18.375  0.00  0.00    +0.000 A 
ATOM      2  N   UNL     1       4.651   6.719  17.720  0.00  0.00    +0.000 NA
ATOM      3  N   UNL     1       3.686   7.652  17.966  0.00  0.00    +0.000 NA
ATOM      4  C   UNL     1       2.787   7.143  18.797  0.00  0.00    +0.000 A 
ATOM      5  N   UNL     1       3.112   5.788  19.038  0.00  0.00    +0.000 N 
ENDROOT
BRANCH   4   6
ATOM      6  C   UNL     1       1.810   7.989  19.508  0.00  0.00    +0.000 A 
ATOM      7  C   UNL     1       1.396   7.820  20.842  0.00  0.00    +0.000 A 
ATOM      8  C   UNL     1       0.880   8.918  21.551  0.00  0.00    +0.000 A 
ATOM      9  C   UNL     1       0.731  10.151  20.916  0.00  0.00    +0.000 A 
ATOM     10  C   UNL     1       0.920  10.232  19.539  0.00  0.00    +0.000 A 
ATOM     11  C   UNL     1       1.418   9.148  18.832  0.00  0.00    +0.000 A 
ATOM     12  O   UNL     1       0.761  11.396  18.839  0.00  0.00    +0.000 OA
ATOM     13  C   UNL     1       1.252  12.459  19.652  0.00  0.00    +0.000 C 
ATOM     14  C   UNL     1       0.512  12.497  20.983  0.00  0.00    +0.000 C 
ATOM     15  O   UNL     1       0.497  11.249  21.698  0.00  0.00    +0.000 OA
ENDBRANCH   4   6
BRANCH   5  16
ATOM     16  C   UNL     1       2.369   4.806  19.782  0.00  0.00    +0.000 A 
ATOM     17  C   UNL     1       2.696   4.514  21.113  0.00  0.00    +0.000 A 
ATOM     18  C   UNL     1       2.067   3.466  21.796  0.00  0.00    +0.000 A 
ATOM     19  C   UNL     1       1.148   2.655  21.142  0.00  0.00    +0.000 A 
ATOM     20  C   UNL     1       0.785   2.952  19.836  0.00  0.00    +0.000 A 
ATOM     21  C   UNL     1       1.345   4.058  19.190  0.00  0.00    +0.000 A 
ENDBRANCH   5  16
BRANCH   1  22
ATOM     22  S   UNL     1       5.374   4.235  18.494  0.00  0.00    +0.000 S 
BRANCH  22  23
ATOM     23  C   UNL     1       6.859   4.691  17.554  0.00  0.00    +0.000 C 
BRANCH  23  28
ATOM     24  C   UNL     1       7.230   4.884  13.734  0.00  0.00    +0.000 A 
ATOM     25  C   UNL     1       6.200   4.037  13.304  0.00  0.00    +0.000 A 
ATOM     26  C   UNL     1       5.388   3.421  14.252  0.00  0.00    +0.000 A 
ATOM     27  C   UNL     1       5.598   3.646  15.617  0.00  0.00    +0.000 A 
ATOM     28  C   UNL     1       6.626   4.495  16.064  0.00  0.00    +0.000 A 
ATOM     29  C   UNL     1       7.450   5.114  15.106  0.00  0.00    +0.000 A 
BRANCH  24  31
ATOM     30  O   UNL     1       9.117   6.101  13.136  0.00  0.00    +0.000 OA
ATOM     31  N   UNL     1       8.097   5.520  12.733  0.00  0.00    +0.000 N 
ATOM     32  O   UNL     1       7.757   5.439  11.544  0.00  0.00    +0.000 OA
ENDBRANCH  24  31
ENDBRANCH  23  28
ENDBRANCH  22  23
ENDBRANCH   1  22
TORSDOF 6
ENDMDL
MODEL 5
REMARK VINA RESULT:      -8.9      1.050      1.611
REMARK  Name = 
REMARK  6 active torsions:
REMARK  status: ('A' for Active; 'I' for Inactive)
REMARK    1  A    between atoms: N_2  and  C_4
REMARK    2  A    between atoms: C_8  and  C_9
REMARK    3  A    between atoms: C_9  and  S_10
REMARK    4  A    between atoms: S_10  and  C_11
REMARK    5  A    between atoms: C_14  and  C_15
REMARK    6  A    between atoms: N_25  and  C_26
REMARK                            x       y       z     vdW  Elec       q    Type
REMARK                         _______ _______ _______ _____ _____    ______ ____
ROOT
ATOM      1  C   UNL     1       4.125   6.030  18.251  0.00  0.00    +0.000 A 
ATOM      2  N   UNL     1       4.347   7.173  17.648  0.00  0.00    +0.000 NA
ATOM      3  N   UNL     1       3.352   8.036  18.005  0.00  0.00    +0.000 NA
ATOM      4  C   UNL     1       2.530   7.432  18.850  0.00  0.00    +0.000 A 
ATOM      5  N   UNL     1       2.937   6.084  18.988  0.00  0.00    +0.000 N 
ENDROOT
BRANCH   4   6
ATOM      6  C   UNL     1       1.555   8.180  19.666  0.00  0.00    +0.000 A 
ATOM      7  C   UNL     1       1.247   7.927  21.015  0.00  0.00    +0.000 A 
ATOM      8  C   UNL     1       0.714   8.956  21.808  0.00  0.00    +0.000 A 
ATOM      9  C   UNL     1       0.444  10.203  21.245  0.00  0.00    +0.000 A 
ATOM     10  C   UNL     1       0.529  10.356  19.864  0.00  0.00    +0.000 A 
ATOM     11  C   UNL     1       1.043   9.338  19.074  0.00  0.00    +0.000 A 
ATOM     12  O   UNL     1       0.249  11.536  19.232  0.00  0.00    +0.000 OA
ATOM     13  C   UNL     1       0.727  12.593  20.059  0.00  0.00    +0.000 C 
ATOM     14  C   UNL     1       0.083  12.525  21.438  0.00  0.00    +0.000 C 
ATOM     15  O   UNL     1       0.197  11.248  22.092  0.00  0.00    +0.000 OA
ENDBRANCH   4   6
BRANCH   5  16
ATOM     16  C   UNL     1       2.289   5.021  19.710  0.00  0.00    +0.000 A 
ATOM     17  C   UNL     1       2.634   4.739  21.038  0.00  0.00    +0.000 A 
ATOM     18  C   UNL     1       2.106   3.623  21.698  0.00  0.00    +0.000 A 
ATOM     19  C   UNL     1       1.277   2.736  21.023  0.00  0.00    +0.000 A 
ATOM     20  C   UNL     1       0.895   3.020  19.720  0.00  0.00    +0.000 A 
ATOM     21  C   UNL     1       1.347   4.187  19.097  0.00  0.00    +0.000 A 
ENDBRANCH   5  16
BRANCH   1  22
ATOM     22  S   UNL     1       5.238   4.690  18.225  0.00  0.00    +0.000 S 
BRANCH  22  23
ATOM     23  C   UNL     1       4.701   3.678  16.816  0.00  0.00    +0.000 C 
BRANCH  23  28
ATOM     24  C   UNL     1       6.074   3.695  13.227  0.00  0.00    +0.000 A 
ATOM     25  C   UNL     1       7.109   4.635  13.321  0.00  0.00    +0.000 A 
ATOM     26  C   UNL     1       7.361   5.247  14.546  0.00  0.00    +0.000 A 
ATOM     27  C   UNL     1       6.589   4.925  15.669  0.00  0.00    +0.000 A 
ATOM     28  C   UNL     1       5.550   3.981  15.590  0.00  0.00    +0.000 A 
ATOM     29  C   UNL     1       5.292   3.367  14.351  0.00  0.00    +0.000 A 
BRANCH  24  31
ATOM     30  O   UNL     1       6.679   2.340  11.438  0.00  0.00    +0.000 OA
ATOM     31  N   UNL     1       5.798   3.064  11.929  0.00  0.00    +0.000 N 
ATOM     32  O   UNL     1       4.700   3.293  11.400  0.00  0.00    +0.000 OA
ENDBRANCH  24  31
ENDBRANCH  23  28
ENDBRANCH  22  23
ENDBRANCH   1  22
TORSDOF 6
ENDMDL
MODEL 6
REMARK VINA RESULT:      -8.6      3.924      4.503
REMARK  Name = 
REMARK  6 active torsions:
REMARK  status: ('A' for Active; 'I' for Inactive)
REMARK    1  A    between atoms: N_2  and  C_4
REMARK    2  A    between atoms: C_8  and  C_9
REMARK    3  A    between atoms: C_9  and  S_10
REMARK    4  A    between atoms: S_10  and  C_11
REMARK    5  A    between atoms: C_14  and  C_15
REMARK    6  A    between atoms: N_25  and  C_26
REMARK                            x       y       z     vdW  Elec       q    Type
REMARK                         _______ _______ _______ _____ _____    ______ ____
ROOT
ATOM      1  C   UNL     1       3.323   7.611  17.502  0.00  0.00    +0.000 A 
ATOM      2  N   UNL     1       3.305   8.904  17.282  0.00  0.00    +0.000 NA
ATOM      3  N   UNL     1       2.363   9.457  18.099  0.00  0.00    +0.000 NA
ATOM      4  C   UNL     1       1.818   8.506  18.845  0.00  0.00    +0.000 A 
ATOM      5  N   UNL     1       2.347   7.259  18.441  0.00  0.00    +0.000 N 
ENDROOT
BRANCH   4   6
ATOM      6  C   UNL     1       1.014   8.814  20.043  0.00  0.00    +0.000 A 
ATOM      7  C   UNL     1       1.330   8.440  21.361  0.00  0.00    +0.000 A 
ATOM      8  C   UNL     1       0.803   9.176  22.435  0.00  0.00    +0.000 A 
ATOM      9  C   UNL     1      -0.070  10.236  22.193  0.00  0.00    +0.000 A 
ATOM     10  C   UNL     1      -0.555  10.434  20.903  0.00  0.00    +0.000 A 
ATOM     11  C   UNL     1      -0.047   9.701  19.840  0.00  0.00    +0.000 A 
ATOM     12  O   UNL     1      -1.438  11.430  20.590  0.00  0.00    +0.000 OA
ATOM     13  C   UNL     1      -1.089  12.575  21.363  0.00  0.00    +0.000 C 
ATOM     14  C   UNL     1      -1.118  12.243  22.850  0.00  0.00    +0.000 C 
ATOM     15  O   UNL     1      -0.336  11.095  23.224  0.00  0.00    +0.000 OA
ENDBRANCH   4   6
BRANCH   5  16
ATOM     16  C   UNL     1       1.974   5.941  18.885  0.00  0.00    +0.000 A 
ATOM     17  C   UNL     1       1.470   4.995  17.983  0.00  0.00    +0.000 A 
ATOM     18  C   UNL     1       0.980   3.762  18.431  0.00  0.00    +0.000 A 
ATOM     19  C   UNL     1       0.928   3.481  19.791  0.00  0.00    +0.000 A 
ATOM     20  C   UNL     1       1.457   4.390  20.695  0.00  0.00    +0.000 A 
ATOM     21  C   UNL     1       2.033   5.578  20.235  0.00  0.00    +0.000 A 
ENDBRANCH   5  16
BRANCH   1  22
ATOM     22  S   UNL     1       4.495   6.527  16.807  0.00  0.00    +0.000 S 
BRANCH  22  23
ATOM     23  C   UNL     1       5.347   5.799  18.235  0.00  0.00    +0.000 C 
BRANCH  23  28
ATOM     24  C   UNL     1       4.499   2.415  19.848  0.00  0.00    +0.000 A 
ATOM     25  C   UNL     1       4.045   1.679  18.746  0.00  0.00    +0.000 A 
ATOM     26  C   UNL     1       4.028   2.279  17.490  0.00  0.00    +0.000 A 
ATOM     27  C   UNL     1       4.460   3.601  17.331  0.00  0.00    +0.000 A 
ATOM     28  C   UNL     1       4.920   4.351  18.427  0.00  0.00    +0.000 A 
ATOM     29  C   UNL     1       4.933   3.746  19.698  0.00  0.00    +0.000 A 
BRANCH  24  31
ATOM     30  O   UNL     1       5.531   1.200  21.538  0.00  0.00    +0.000 OA
ATOM     31  N   UNL     1       4.500   1.786  21.176  0.00  0.00    +0.000 N 
ATOM     32  O   UNL     1       3.467   1.878  21.856  0.00  0.00    +0.000 OA
ENDBRANCH  24  31
ENDBRANCH  23  28
ENDBRANCH  22  23
ENDBRANCH   1  22
TORSDOF 6
ENDMDL
MODEL 7
REMARK VINA RESULT:      -8.6      1.768      1.978
REMARK  Name = 
REMARK  6 active torsions:
REMARK  status: ('A' for Active; 'I' for Inactive)
REMARK    1  A    between atoms: N_2  and  C_4
REMARK    2  A    between atoms: C_8  and  C_9
REMARK    3  A    between atoms: C_9  and  S_10
REMARK    4  A    between atoms: S_10  and  C_11
REMARK    5  A    between atoms: C_14  and  C_15
REMARK    6  A    between atoms: N_25  and  C_26
REMARK                            x       y       z     vdW  Elec       q    Type
REMARK                         _______ _______ _______ _____ _____    ______ ____
ROOT
ATOM      1  C   UNL     1       5.009   5.910  17.196  0.00  0.00    +0.000 A 
ATOM      2  N   UNL     1       5.189   7.142  16.782  0.00  0.00    +0.000 NA
ATOM      3  N   UNL     1       4.133   7.890  17.215  0.00  0.00    +0.000 NA
ATOM      4  C   UNL     1       3.314   7.124  17.921  0.00  0.00    +0.000 A 
ATOM      5  N   UNL     1       3.791   5.793  17.875  0.00  0.00    +0.000 N 
ENDROOT
BRANCH   4   6
ATOM      6  C   UNL     1       2.266   7.690  18.791  0.00  0.00    +0.000 A 
ATOM      7  C   UNL     1       1.980   7.278  20.105  0.00  0.00    +0.000 A 
ATOM      8  C   UNL     1       1.345   8.168  20.986  0.00  0.00    +0.000 A 
ATOM      9  C   UNL     1       0.955   9.431  20.542  0.00  0.00    +0.000 A 
ATOM     10  C   UNL     1       1.031   9.726  19.183  0.00  0.00    +0.000 A 
ATOM     11  C   UNL     1       1.645   8.845  18.306  0.00  0.00    +0.000 A 
ATOM     12  O   UNL     1       0.637  10.928  18.665  0.00  0.00    +0.000 OA
ATOM     13  C   UNL     1       1.006  11.942  19.596  0.00  0.00    +0.000 C 
ATOM     14  C   UNL     1       0.365  11.677  20.953  0.00  0.00    +0.000 C 
ATOM     15  O   UNL     1       0.602  10.360  21.483  0.00  0.00    +0.000 OA
ENDBRANCH   4   6
BRANCH   5  16
ATOM     16  C   UNL     1       3.176   4.601  18.399  0.00  0.00    +0.000 A 
ATOM     17  C   UNL     1       2.025   4.067  17.805  0.00  0.00    +0.000 A 
ATOM     18  C   UNL     1       1.347   2.991  18.390  0.00  0.00    +0.000 A 
ATOM     19  C   UNL     1       1.770   2.474  19.608  0.00  0.00    +0.000 A 
ATOM     20  C   UNL     1       2.929   2.966  20.191  0.00  0.00    +0.000 A 
ATOM     21  C   UNL     1       3.657   3.976  19.554  0.00  0.00    +0.000 A 
ENDBRANCH   5  16
BRANCH   1  22
ATOM     22  S   UNL     1       6.196   4.648  17.024  0.00  0.00    +0.000 S 
BRANCH  22  23
ATOM     23  C   UNL     1       5.460   3.488  15.836  0.00  0.00    +0.000 C 
BRANCH  23  28
ATOM     24  C   UNL     1       7.422   4.971  12.883  0.00  0.00    +0.000 A 
ATOM     25  C   UNL     1       6.938   4.212  11.809  0.00  0.00    +0.000 A 
ATOM     26  C   UNL     1       5.974   3.236  12.047  0.00  0.00    +0.000 A 
ATOM     27  C   UNL     1       5.495   3.017  13.344  0.00  0.00    +0.000 A 
ATOM     28  C   UNL     1       5.969   3.773  14.431  0.00  0.00    +0.000 A 
ATOM     29  C   UNL     1       6.947   4.756  14.191  0.00  0.00    +0.000 A 
BRANCH  24  31
ATOM     30  O   UNL     1       8.292   6.747  11.663  0.00  0.00    +0.000 OA
ATOM     31  N   UNL     1       8.451   5.989  12.632  0.00  0.00    +0.000 N 
ATOM     32  O   UNL     1       9.420   6.028  13.405  0.00  0.00    +0.000 OA
ENDBRANCH  24  31
ENDBRANCH  23  28
ENDBRANCH  22  23
ENDBRANCH   1  22
TORSDOF 6
ENDMDL
MODEL 8
REMARK VINA RESULT:      -8.4      4.231      9.831
REMARK  Name = 
REMARK  6 active torsions:
REMARK  status: ('A' for Active; 'I' for Inactive)
REMARK    1  A    between atoms: N_2  and  C_4
REMARK    2  A    between atoms: C_8  and  C_9
REMARK    3  A    between atoms: C_9  and  S_10
REMARK    4  A    between atoms: S_10  and  C_11
REMARK    5  A    between atoms: C_14  and  C_15
REMARK    6  A    between atoms: N_25  and  C_26
REMARK                            x       y       z     vdW  Elec       q    Type
REMARK                         _______ _______ _______ _____ _____    ______ ____
ROOT
ATOM      1  C   UNL     1       1.159   9.619  18.484  0.00  0.00    +0.000 A 
ATOM      2  N   UNL     1       1.870   9.251  17.445  0.00  0.00    +0.000 NA
ATOM      3  N   UNL     1       2.557   8.122  17.784  0.00  0.00    +0.000 NA
ATOM      4  C   UNL     1       2.249   7.778  19.026  0.00  0.00    +0.000 A 
ATOM      5  N   UNL     1       1.399   8.768  19.570  0.00  0.00    +0.000 N 
ENDROOT
BRANCH   4   6
ATOM      6  C   UNL     1       2.564   6.444  19.570  0.00  0.00    +0.000 A 
ATOM      7  C   UNL     1       1.819   5.761  20.549  0.00  0.00    +0.000 A 
ATOM      8  C   UNL     1       1.900   4.360  20.629  0.00  0.00    +0.000 A 
ATOM      9  C   UNL     1       2.754   3.661  19.776  0.00  0.00    +0.000 A 
ATOM     10  C   UNL     1       3.653   4.371  18.985  0.00  0.00    +0.000 A 
ATOM     11  C   UNL     1       3.586   5.755  18.913  0.00  0.00    +0.000 A 
ATOM     12  O   UNL     1       4.544   3.759  18.148  0.00  0.00    +0.000 OA
ATOM     13  C   UNL     1       3.894   2.626  17.579  0.00  0.00    +0.000 C 
ATOM     14  C   UNL     1       3.411   1.683  18.674  0.00  0.00    +0.000 C 
ATOM     15  O   UNL     1       2.600   2.305  19.687  0.00  0.00    +0.000 OA
ENDBRANCH   4   6
BRANCH   5  16
ATOM     16  C   UNL     1       0.898   8.881  20.915  0.00  0.00    +0.000 A 
ATOM     17  C   UNL     1      -0.474   8.789  21.181  0.00  0.00    +0.000 A 
ATOM     18  C   UNL     1      -0.977   9.034  22.464  0.00  0.00    +0.000 A 
ATOM     19  C   UNL     1      -0.125   9.434  23.486  0.00  0.00    +0.000 A 
ATOM     20  C   UNL     1       1.241   9.493  23.250  0.00  0.00    +0.000 A 
ATOM     21  C   UNL     1       1.748   9.155  21.992  0.00  0.00    +0.000 A 
ENDBRANCH   5  16
BRANCH   1  22
ATOM     22  S   UNL     1      -0.009  10.910  18.450  0.00  0.00    +0.000 S 
BRANCH  22  23
ATOM     23  C   UNL     1       0.603  12.111  19.667  0.00  0.00    +0.000 C 
BRANCH  23  28
ATOM     24  C   UNL     1      -2.824  12.635  21.324  0.00  0.00    +0.000 A 
ATOM     25  C   UNL     1      -2.459  12.979  22.632  0.00  0.00    +0.000 A 
ATOM     26  C   UNL     1      -1.109  13.049  22.964  0.00  0.00    +0.000 A 
ATOM     27  C   UNL     1      -0.129  12.780  22.001  0.00  0.00    +0.000 A 
ATOM     28  C   UNL     1      -0.480  12.437  20.684  0.00  0.00    +0.000 A 
ATOM     29  C   UNL     1      -1.845  12.361  20.349  0.00  0.00    +0.000 A 
BRANCH  24  31
ATOM     30  O   UNL     1      -5.053  12.315  21.897  0.00  0.00    +0.000 OA
ATOM     31  N   UNL     1      -4.250  12.545  20.980  0.00  0.00    +0.000 N 
ATOM     32  O   UNL     1      -4.565  12.702  19.791  0.00  0.00    +0.000 OA
ENDBRANCH  24  31
ENDBRANCH  23  28
ENDBRANCH  22  23
ENDBRANCH   1  22
TORSDOF 6
ENDMDL
MODEL 9
REMARK VINA RESULT:      -8.2      4.508      9.602
REMARK  Name = 
REMARK  6 active torsions:
REMARK  status: ('A' for Active; 'I' for Inactive)
REMARK    1  A    between atoms: N_2  and  C_4
REMARK    2  A    between atoms: C_8  and  C_9
REMARK    3  A    between atoms: C_9  and  S_10
REMARK    4  A    between atoms: S_10  and  C_11
REMARK    5  A    between atoms: C_14  and  C_15
REMARK    6  A    between atoms: N_25  and  C_26
REMARK                            x       y       z     vdW  Elec       q    Type
REMARK                         _______ _______ _______ _____ _____    ______ ____
ROOT
ATOM      1  C   UNL     1       1.396   9.632  18.534  0.00  0.00    +0.000 A 
ATOM      2  N   UNL     1       2.099   9.221  17.505  0.00  0.00    +0.000 NA
ATOM      3  N   UNL     1       2.680   8.033  17.840  0.00  0.00    +0.000 NA
ATOM      4  C   UNL     1       2.314   7.697  19.069  0.00  0.00    +0.000 A 
ATOM      5  N   UNL     1       1.537   8.748  19.610  0.00  0.00    +0.000 N 
ENDROOT
BRANCH   4   6
ATOM      6  C   UNL     1       2.501   6.333  19.598  0.00  0.00    +0.000 A 
ATOM      7  C   UNL     1       1.621   5.662  20.466  0.00  0.00    +0.000 A 
ATOM      8  C   UNL     1       1.624   4.258  20.505  0.00  0.00    +0.000 A 
ATOM      9  C   UNL     1       2.531   3.540  19.726  0.00  0.00    +0.000 A 
ATOM     10  C   UNL     1       3.545   4.224  19.062  0.00  0.00    +0.000 A 
ATOM     11  C   UNL     1       3.554   5.611  19.031  0.00  0.00    +0.000 A 
ATOM     12  O   UNL     1       4.492   3.590  18.306  0.00  0.00    +0.000 OA
ATOM     13  C   UNL     1       3.853   2.510  17.631  0.00  0.00    +0.000 C 
ATOM     14  C   UNL     1       3.207   1.563  18.634  0.00  0.00    +0.000 C 
ATOM     15  O   UNL     1       2.321   2.196  19.575  0.00  0.00    +0.000 OA
ENDBRANCH   4   6
BRANCH   5  16
ATOM     16  C   UNL     1       1.015   8.882  20.945  0.00  0.00    +0.000 A 
ATOM     17  C   UNL     1      -0.366   8.938  21.174  0.00  0.00    +0.000 A 
ATOM     18  C   UNL     1      -0.873   9.205  22.451  0.00  0.00    +0.000 A 
ATOM     19  C   UNL     1      -0.011   9.483  23.505  0.00  0.00    +0.000 A 
ATOM     20  C   UNL     1       1.359   9.395  23.304  0.00  0.00    +0.000 A 
ATOM     21  C   UNL     1       1.860   9.033  22.050  0.00  0.00    +0.000 A 
ENDBRANCH   5  16
BRANCH   1  22
ATOM     22  S   UNL     1       0.343  11.018  18.495  0.00  0.00    +0.000 S 
BRANCH  22  23
ATOM     23  C   UNL     1      -1.233  10.377  17.860  0.00  0.00    +0.000 C 
BRANCH  23  28
ATOM     24  C   UNL     1      -4.744  11.822  18.451  0.00  0.00    +0.000 A 
ATOM     25  C   UNL     1      -4.557  12.553  19.632  0.00  0.00    +0.000 A 
ATOM     26  C   UNL     1      -3.295  12.581  20.220  0.00  0.00    +0.000 A 
ATOM     27  C   UNL     1      -2.228  11.888  19.637  0.00  0.00    +0.000 A 
ATOM     28  C   UNL     1      -2.400  11.153  18.451  0.00  0.00    +0.000 A 
ATOM     29  C   UNL     1      -3.676  11.121  17.859  0.00  0.00    +0.000 A 
BRANCH  24  31
ATOM     30  O   UNL     1      -6.893  10.954  18.285  0.00  0.00    +0.000 OA
ATOM     31  N   UNL     1      -6.080  11.779  17.841  0.00  0.00    +0.000 N 
ATOM     32  O   UNL     1      -6.315  12.571  16.917  0.00  0.00    +0.000 OA
ENDBRANCH  24  31
ENDBRANCH  23  28
ENDBRANCH  22  23
ENDBRANCH   1  22
TORSDOF 6
ENDMDL
