MODEL 1
REMARK VINA RESULT:      -7.7      0.000      0.000
REMARK  Name = 
REMARK  6 active torsions:
REMARK  status: ('A' for Active; 'I' for Inactive)
REMARK    1  A    between atoms: C_1  and  O_2
REMARK    2  A    between atoms: O_2  and  C_3
REMARK    3  A    between atoms: C_8  and  O_9
REMARK    4  A    between atoms: O_9  and  C_10
REMARK    5  A    between atoms: N_19  and  C_20
REMARK    6  A    between atoms: N_19  and  C_21
REMARK                            x       y       z     vdW  Elec       q    Type
REMARK                         _______ _______ _______ _____ _____    ______ ____
ROOT
ATOM      1  C   UNL     1       1.801   7.318  20.236  0.00  0.00    +0.000 A 
ATOM      2  C   UNL     1       1.656   6.172  21.019  0.00  0.00    +0.000 A 
ATOM      3  C   UNL     1       2.307   5.004  20.665  0.00  0.00    +0.000 A 
ATOM      4  C   UNL     1       3.156   4.963  19.537  0.00  0.00    +0.000 A 
ATOM      5  C   UNL     1       3.336   6.089  18.699  0.00  0.00    +0.000 A 
ATOM      6  C   UNL     1       2.621   7.282  19.075  0.00  0.00    +0.000 A 
ATOM      7  C   UNL     1       4.207   5.927  17.469  0.00  0.00    +0.000 A 
ATOM      8  C   UNL     1       4.445   6.940  16.515  0.00  0.00    +0.000 A 
ATOM      9  C   UNL     1       5.251   6.758  15.379  0.00  0.00    +0.000 A 
ATOM     10  C   UNL     1       5.863   5.542  15.145  0.00  0.00    +0.000 A 
ATOM     11  C   UNL     1       5.666   4.518  16.054  0.00  0.00    +0.000 A 
ATOM     12  C   UNL     1       4.848   4.698  17.196  0.00  0.00    +0.000 A 
ATOM     13  C   UNL     1       4.774   3.520  18.124  0.00  0.00    +0.000 C 
ATOM     14  C   UNL     1       3.757   3.601  19.266  0.00  0.00    +0.000 C 
ATOM     15  N   UNL     1       2.615   2.513  19.177  0.00  0.00    +0.000 N 
ATOM     16  C   UNL     1       1.775   2.750  17.915  0.00  0.00    +0.000 C 
ATOM     17  C   UNL     1       3.184   1.098  19.146  0.00  0.00    +0.000 C 
ATOM     18  C   UNL     1       1.670   2.618  20.429  0.00  0.00    +0.000 C 
ATOM     19  C   UNL     1       2.068   3.721  21.414  0.00  0.00    +0.000 C 
ENDROOT
BRANCH   1  21
ATOM     20  C   UNL     1       1.222   9.004  21.842  0.00  0.00    +0.000 C 
ATOM     21  O   UNL     1       1.101   8.457  20.532  0.00  0.00    +0.000 OA
ENDBRANCH   1  21
BRANCH   6  22
ATOM     22  O   UNL     1       2.797   8.357  18.241  0.00  0.00    +0.000 OA
ATOM     23  C   UNL     1       1.710   9.070  17.671  0.00  0.00    +0.000 C 
ENDBRANCH   6  22
TORSDOF 2
ENDMDL
MODEL 2
REMARK VINA RESULT:      -7.5      1.614      4.589
REMARK  Name = 
REMARK  6 active torsions:
REMARK  status: ('A' for Active; 'I' for Inactive)
REMARK    1  A    between atoms: C_1  and  O_2
REMARK    2  A    between atoms: O_2  and  C_3
REMARK    3  A    between atoms: C_8  and  O_9
REMARK    4  A    between atoms: O_9  and  C_10
REMARK    5  A    between atoms: N_19  and  C_20
REMARK    6  A    between atoms: N_19  and  C_21
REMARK                            x       y       z     vdW  Elec       q    Type
REMARK                         _______ _______ _______ _____ _____    ______ ____
ROOT
ATOM      1  C   UNL     1       2.246   8.306  18.646  0.00  0.00    +0.000 A 
ATOM      2  C   UNL     1       3.131   8.299  17.567  0.00  0.00    +0.000 A 
ATOM      3  C   UNL     1       3.882   7.170  17.294  0.00  0.00    +0.000 A 
ATOM      4  C   UNL     1       3.737   6.000  18.071  0.00  0.00    +0.000 A 
ATOM      5  C   UNL     1       2.863   5.949  19.184  0.00  0.00    +0.000 A 
ATOM      6  C   UNL     1       2.118   7.149  19.463  0.00  0.00    +0.000 A 
ATOM      7  C   UNL     1       2.832   4.674  20.004  0.00  0.00    +0.000 A 
ATOM      8  C   UNL     1       2.051   4.485  21.164  0.00  0.00    +0.000 A 
ATOM      9  C   UNL     1       2.048   3.294  21.909  0.00  0.00    +0.000 A 
ATOM     10  C   UNL     1       2.834   2.227  21.521  0.00  0.00    +0.000 A 
ATOM     11  C   UNL     1       3.614   2.359  20.386  0.00  0.00    +0.000 A 
ATOM     12  C   UNL     1       3.623   3.562  19.637  0.00  0.00    +0.000 A 
ATOM     13  C   UNL     1       4.470   3.540  18.399  0.00  0.00    +0.000 C 
ATOM     14  C   UNL     1       4.659   4.872  17.666  0.00  0.00    +0.000 C 
ATOM     15  N   UNL     1       6.156   5.377  17.645  0.00  0.00    +0.000 N 
ATOM     16  C   UNL     1       6.620   5.673  19.078  0.00  0.00    +0.000 C 
ATOM     17  C   UNL     1       7.090   4.349  17.014  0.00  0.00    +0.000 C 
ATOM     18  C   UNL     1       6.268   6.700  16.804  0.00  0.00    +0.000 C 
ATOM     19  C   UNL     1       4.935   7.177  16.219  0.00  0.00    +0.000 C 
ENDROOT
BRANCH   1  21
ATOM     20  C   UNL     1       0.468   9.837  18.142  0.00  0.00    +0.000 C 
ATOM     21  O   UNL     1       1.556   9.443  18.974  0.00  0.00    +0.000 OA
ENDBRANCH   1  21
BRANCH   6  22
ATOM     22  O   UNL     1       1.290   7.084  20.554  0.00  0.00    +0.000 OA
ATOM     23  C   UNL     1       1.196   8.130  21.509  0.00  0.00    +0.000 C 
ENDBRANCH   6  22
TORSDOF 2
ENDMDL
MODEL 3
REMARK VINA RESULT:      -6.3      6.735     10.117
REMARK  Name = 
REMARK  6 active torsions:
REMARK  status: ('A' for Active; 'I' for Inactive)
REMARK    1  A    between atoms: C_1  and  O_2
REMARK    2  A    between atoms: O_2  and  C_3
REMARK    3  A    between atoms: C_8  and  O_9
REMARK    4  A    between atoms: O_9  and  C_10
REMARK    5  A    between atoms: N_19  and  C_20
REMARK    6  A    between atoms: N_19  and  C_21
REMARK                            x       y       z     vdW  Elec       q    Type
REMARK                         _______ _______ _______ _____ _____    ______ ____
ROOT
ATOM      1  C   UNL     1      -3.268  10.638  16.804  0.00  0.00    +0.000 A 
ATOM      2  C   UNL     1      -1.975  10.143  16.982  0.00  0.00    +0.000 A 
ATOM      3  C   UNL     1      -1.264  10.456  18.126  0.00  0.00    +0.000 A 
ATOM      4  C   UNL     1      -1.844  11.243  19.145  0.00  0.00    +0.000 A 
ATOM      5  C   UNL     1      -3.147  11.783  19.018  0.00  0.00    +0.000 A 
ATOM      6  C   UNL     1      -3.851  11.466  17.803  0.00  0.00    +0.000 A 
ATOM      7  C   UNL     1      -3.655  12.679  20.130  0.00  0.00    +0.000 A 
ATOM      8  C   UNL     1      -4.909  13.327  20.130  0.00  0.00    +0.000 A 
ATOM      9  C   UNL     1      -5.351  14.158  21.172  0.00  0.00    +0.000 A 
ATOM     10  C   UNL     1      -4.549  14.381  22.274  0.00  0.00    +0.000 A 
ATOM     11  C   UNL     1      -3.312  13.764  22.327  0.00  0.00    +0.000 A 
ATOM     12  C   UNL     1      -2.862  12.930  21.273  0.00  0.00    +0.000 A 
ATOM     13  C   UNL     1      -1.527  12.282  21.494  0.00  0.00    +0.000 C 
ATOM     14  C   UNL     1      -0.919  11.528  20.307  0.00  0.00    +0.000 C 
ATOM     15  N   UNL     1       0.433  12.155  19.783  0.00  0.00    +0.000 N 
ATOM     16  C   UNL     1       0.168  13.563  19.232  0.00  0.00    +0.000 C 
ATOM     17  C   UNL     1       1.484  12.234  20.886  0.00  0.00    +0.000 C 
ATOM     18  C   UNL     1       1.025  11.272  18.625  0.00  0.00    +0.000 C 
ATOM     19  C   UNL     1       0.174  10.044  18.286  0.00  0.00    +0.000 C 
ENDROOT
BRANCH   1  21
ATOM     20  C   UNL     1      -3.203  10.142  14.458  0.00  0.00    +0.000 C 
ATOM     21  O   UNL     1      -3.952  10.400  15.642  0.00  0.00    +0.000 OA
ENDBRANCH   1  21
BRANCH   6  22
ATOM     22  O   UNL     1      -5.105  12.011  17.693  0.00  0.00    +0.000 OA
ATOM     23  C   UNL     1      -6.289  11.263  17.928  0.00  0.00    +0.000 C 
ENDBRANCH   6  22
TORSDOF 2
ENDMDL
MODEL 4
REMARK VINA RESULT:      -5.9      6.572      9.666
REMARK  Name = 
REMARK  6 active torsions:
REMARK  status: ('A' for Active; 'I' for Inactive)
REMARK    1  A    between atoms: C_1  and  O_2
REMARK    2  A    between atoms: O_2  and  C_3
REMARK    3  A    between atoms: C_8  and  O_9
REMARK    4  A    between atoms: O_9  and  C_10
REMARK    5  A    between atoms: N_19  and  C_20
REMARK    6  A    between atoms: N_19  and  C_21
REMARK                            x       y       z     vdW  Elec       q    Type
REMARK                         _______ _______ _______ _____ _____    ______ ____
ROOT
ATOM      1  C   UNL     1      -5.121  12.016  18.818  0.00  0.00    +0.000 A 
ATOM      2  C   UNL     1      -5.253  13.003  19.796  0.00  0.00    +0.000 A 
ATOM      3  C   UNL     1      -4.142  13.436  20.497  0.00  0.00    +0.000 A 
ATOM      4  C   UNL     1      -2.859  12.922  20.209  0.00  0.00    +0.000 A 
ATOM      5  C   UNL     1      -2.663  11.912  19.236  0.00  0.00    +0.000 A 
ATOM      6  C   UNL     1      -3.842  11.458  18.544  0.00  0.00    +0.000 A 
ATOM      7  C   UNL     1      -1.260  11.367  19.050  0.00  0.00    +0.000 A 
ATOM      8  C   UNL     1      -0.913  10.332  18.157  0.00  0.00    +0.000 A 
ATOM      9  C   UNL     1       0.395   9.842  18.012  0.00  0.00    +0.000 A 
ATOM     10  C   UNL     1       1.426  10.373  18.763  0.00  0.00    +0.000 A 
ATOM     11  C   UNL     1       1.139  11.394  19.650  0.00  0.00    +0.000 A 
ATOM     12  C   UNL     1      -0.181  11.885  19.802  0.00  0.00    +0.000 A 
ATOM     13  C   UNL     1      -0.332  13.034  20.756  0.00  0.00    +0.000 C 
ATOM     14  C   UNL     1      -1.761  13.470  21.093  0.00  0.00    +0.000 C 
ATOM     15  N   UNL     1      -2.142  13.274  22.614  0.00  0.00    +0.000 N 
ATOM     16  C   UNL     1      -2.118  11.779  22.962  0.00  0.00    +0.000 C 
ATOM     17  C   UNL     1      -1.185  14.022  23.537  0.00  0.00    +0.000 C 
ATOM     18  C   UNL     1      -3.590  13.823  22.885  0.00  0.00    +0.000 C 
ATOM     19  C   UNL     1      -4.273  14.403  21.642  0.00  0.00    +0.000 C 
ENDROOT
BRANCH   1  21
ATOM     20  C   UNL     1      -6.936  10.448  18.778  0.00  0.00    +0.000 C 
ATOM     21  O   UNL     1      -6.224  11.522  18.172  0.00  0.00    +0.000 OA
ENDBRANCH   1  21
BRANCH   6  22
ATOM     22  O   UNL     1      -3.632  10.469  17.617  0.00  0.00    +0.000 OA
ATOM     23  C   UNL     1      -3.729  10.697  16.219  0.00  0.00    +0.000 C 
ENDBRANCH   6  22
TORSDOF 2
ENDMDL
MODEL 5
REMARK VINA RESULT:      -5.9      7.657     11.258
REMARK  Name = 
REMARK  6 active torsions:
REMARK  status: ('A' for Active; 'I' for Inactive)
REMARK    1  A    between atoms: C_1  and  O_2
REMARK    2  A    between atoms: O_2  and  C_3
REMARK    3  A    between atoms: C_8  and  O_9
REMARK    4  A    between atoms: O_9  and  C_10
REMARK    5  A    between atoms: N_19  and  C_20
REMARK    6  A    between atoms: N_19  and  C_21
REMARK                            x       y       z     vdW  Elec       q    Type
REMARK                         _______ _______ _______ _____ _____    ______ ____
ROOT
ATOM      1  C   UNL     1      -3.373  10.816  17.205  0.00  0.00    +0.000 A 
ATOM      2  C   UNL     1      -4.604  11.368  16.850  0.00  0.00    +0.000 A 
ATOM      3  C   UNL     1      -5.250  12.235  17.713  0.00  0.00    +0.000 A 
ATOM      4  C   UNL     1      -4.661  12.605  18.941  0.00  0.00    +0.000 A 
ATOM      5  C   UNL     1      -3.419  12.070  19.362  0.00  0.00    +0.000 A 
ATOM      6  C   UNL     1      -2.785  11.147  18.457  0.00  0.00    +0.000 A 
ATOM      7  C   UNL     1      -2.902  12.467  20.731  0.00  0.00    +0.000 A 
ATOM      8  C   UNL     1      -1.708  11.986  21.309  0.00  0.00    +0.000 A 
ATOM      9  C   UNL     1      -1.258  12.365  22.584  0.00  0.00    +0.000 A 
ATOM     10  C   UNL     1      -1.989  13.256  23.345  0.00  0.00    +0.000 A 
ATOM     11  C   UNL     1      -3.165  13.763  22.821  0.00  0.00    +0.000 A 
ATOM     12  C   UNL     1      -3.624  13.375  21.538  0.00  0.00    +0.000 A 
ATOM     13  C   UNL     1      -4.882  14.050  21.076  0.00  0.00    +0.000 C 
ATOM     14  C   UNL     1      -5.515  13.525  19.784  0.00  0.00    +0.000 C 
ATOM     15  N   UNL     1      -6.949  12.895  19.991  0.00  0.00    +0.000 N 
ATOM     16  C   UNL     1      -6.841  11.651  20.883  0.00  0.00    +0.000 C 
ATOM     17  C   UNL     1      -7.917  13.889  20.626  0.00  0.00    +0.000 C 
ATOM     18  C   UNL     1      -7.554  12.461  18.606  0.00  0.00    +0.000 C 
ATOM     19  C   UNL     1      -6.635  12.743  17.414  0.00  0.00    +0.000 C 
ENDROOT
BRANCH   1  21
ATOM     20  C   UNL     1      -2.884  10.052  14.984  0.00  0.00    +0.000 C 
ATOM     21  O   UNL     1      -2.761   9.896  16.395  0.00  0.00    +0.000 OA
ENDBRANCH   1  21
BRANCH   6  22
ATOM     22  O   UNL     1      -1.591  10.628  18.890  0.00  0.00    +0.000 OA
ATOM     23  C   UNL     1      -0.342  11.019  18.341  0.00  0.00    +0.000 C 
ENDBRANCH   6  22
TORSDOF 2
ENDMDL
MODEL 6
REMARK VINA RESULT:      -5.9      8.409     11.262
REMARK  Name = 
REMARK  6 active torsions:
REMARK  status: ('A' for Active; 'I' for Inactive)
REMARK    1  A    between atoms: C_1  and  O_2
REMARK    2  A    between atoms: O_2  and  C_3
REMARK    3  A    between atoms: C_8  and  O_9
REMARK    4  A    between atoms: O_9  and  C_10
REMARK    5  A    between atoms: N_19  and  C_20
REMARK    6  A    between atoms: N_19  and  C_21
REMARK                            x       y       z     vdW  Elec       q    Type
REMARK                         _______ _______ _______ _____ _____    ______ ____
ROOT
ATOM      1  C   UNL     1      -3.649  11.501  17.508  0.00  0.00    +0.000 A 
ATOM      2  C   UNL     1      -2.263  11.557  17.654  0.00  0.00    +0.000 A 
ATOM      3  C   UNL     1      -1.708  11.925  18.867  0.00  0.00    +0.000 A 
ATOM      4  C   UNL     1      -2.528  12.209  19.981  0.00  0.00    +0.000 A 
ATOM      5  C   UNL     1      -3.941  12.180  19.892  0.00  0.00    +0.000 A 
ATOM      6  C   UNL     1      -4.490  11.823  18.609  0.00  0.00    +0.000 A 
ATOM      7  C   UNL     1      -4.738  12.573  21.120  0.00  0.00    +0.000 A 
ATOM      8  C   UNL     1      -6.147  12.638  21.176  0.00  0.00    +0.000 A 
ATOM      9  C   UNL     1      -6.859  13.014  22.326  0.00  0.00    +0.000 A 
ATOM     10  C   UNL     1      -6.185  13.345  23.486  0.00  0.00    +0.000 A 
ATOM     11  C   UNL     1      -4.803  13.292  23.485  0.00  0.00    +0.000 A 
ATOM     12  C   UNL     1      -4.083  12.919  22.324  0.00  0.00    +0.000 A 
ATOM     13  C   UNL     1      -2.593  12.848  22.488  0.00  0.00    +0.000 C 
ATOM     14  C   UNL     1      -1.766  12.635  21.216  0.00  0.00    +0.000 C 
ATOM     15  N   UNL     1      -0.810  13.845  20.872  0.00  0.00    +0.000 N 
ATOM     16  C   UNL     1      -1.648  15.094  20.565  0.00  0.00    +0.000 C 
ATOM     17  C   UNL     1       0.149  14.150  22.018  0.00  0.00    +0.000 C 
ATOM     18  C   UNL     1       0.057  13.506  19.605  0.00  0.00    +0.000 C 
ATOM     19  C   UNL     1      -0.223  12.118  19.017  0.00  0.00    +0.000 C 
ENDROOT
BRANCH   1  21
ATOM     20  C   UNL     1      -3.352  10.810  15.230  0.00  0.00    +0.000 C 
ATOM     21  O   UNL     1      -4.211  11.214  16.292  0.00  0.00    +0.000 OA
ENDBRANCH   1  21
BRANCH   6  22
ATOM     22  O   UNL     1      -5.860  11.815  18.540  0.00  0.00    +0.000 OA
ATOM     23  C   UNL     1      -6.617  10.616  18.477  0.00  0.00    +0.000 C 
ENDBRANCH   6  22
TORSDOF 2
ENDMDL
MODEL 7
REMARK VINA RESULT:      -5.8      7.751      9.856
REMARK  Name = 
REMARK  6 active torsions:
REMARK  status: ('A' for Active; 'I' for Inactive)
REMARK    1  A    between atoms: C_1  and  O_2
REMARK    2  A    between atoms: O_2  and  C_3
REMARK    3  A    between atoms: C_8  and  O_9
REMARK    4  A    between atoms: O_9  and  C_10
REMARK    5  A    between atoms: N_19  and  C_20
REMARK    6  A    between atoms: N_19  and  C_21
REMARK                            x       y       z     vdW  Elec       q    Type
REMARK                         _______ _______ _______ _____ _____    ______ ____
ROOT
ATOM      1  C   UNL     1      -5.194  12.909  21.835  0.00  0.00    +0.000 A 
ATOM      2  C   UNL     1      -4.039  13.307  22.509  0.00  0.00    +0.000 A 
ATOM      3  C   UNL     1      -2.807  13.217  21.885  0.00  0.00    +0.000 A 
ATOM      4  C   UNL     1      -2.703  12.763  20.552  0.00  0.00    +0.000 A 
ATOM      5  C   UNL     1      -3.838  12.335  19.820  0.00  0.00    +0.000 A 
ATOM      6  C   UNL     1      -5.102  12.411  20.506  0.00  0.00    +0.000 A 
ATOM      7  C   UNL     1      -3.617  11.793  18.422  0.00  0.00    +0.000 A 
ATOM      8  C   UNL     1      -4.637  11.287  17.587  0.00  0.00    +0.000 A 
ATOM      9  C   UNL     1      -4.402  10.782  16.298  0.00  0.00    +0.000 A 
ATOM     10  C   UNL     1      -3.122  10.762  15.780  0.00  0.00    +0.000 A 
ATOM     11  C   UNL     1      -2.087  11.252  16.556  0.00  0.00    +0.000 A 
ATOM     12  C   UNL     1      -2.321  11.755  17.859  0.00  0.00    +0.000 A 
ATOM     13  C   UNL     1      -1.115  12.308  18.560  0.00  0.00    +0.000 C 
ATOM     14  C   UNL     1      -1.284  12.686  20.035  0.00  0.00    +0.000 C 
ATOM     15  N   UNL     1      -0.396  11.823  21.017  0.00  0.00    +0.000 N 
ATOM     16  C   UNL     1      -0.840  10.355  20.957  0.00  0.00    +0.000 C 
ATOM     17  C   UNL     1       1.086  11.917  20.668  0.00  0.00    +0.000 C 
ATOM     18  C   UNL     1      -0.569  12.334  22.493  0.00  0.00    +0.000 C 
ATOM     19  C   UNL     1      -1.534  13.517  22.629  0.00  0.00    +0.000 C 
ENDROOT
BRANCH   1  21
ATOM     20  C   UNL     1      -6.432  12.782  23.886  0.00  0.00    +0.000 C 
ATOM     21  O   UNL     1      -6.409  12.919  22.468  0.00  0.00    +0.000 OA
ENDBRANCH   1  21
BRANCH   6  22
ATOM     22  O   UNL     1      -6.186  11.978  19.786  0.00  0.00    +0.000 OA
ATOM     23  C   UNL     1      -6.977  10.869  20.184  0.00  0.00    +0.000 C 
ENDBRANCH   6  22
TORSDOF 2
ENDMDL
MODEL 8
REMARK VINA RESULT:      -5.7      7.038     11.058
REMARK  Name = 
REMARK  6 active torsions:
REMARK  status: ('A' for Active; 'I' for Inactive)
REMARK    1  A    between atoms: C_1  and  O_2
REMARK    2  A    between atoms: O_2  and  C_3
REMARK    3  A    between atoms: C_8  and  O_9
REMARK    4  A    between atoms: O_9  and  C_10
REMARK    5  A    between atoms: N_19  and  C_20
REMARK    6  A    between atoms: N_19  and  C_21
REMARK                            x       y       z     vdW  Elec       q    Type
REMARK                         _______ _______ _______ _____ _____    ______ ____
ROOT
ATOM      1  C   UNL     1      -0.920  11.644  19.399  0.00  0.00    +0.000 A 
ATOM      2  C   UNL     1      -0.672  11.942  20.740  0.00  0.00    +0.000 A 
ATOM      3  C   UNL     1      -1.708  12.346  21.563  0.00  0.00    +0.000 A 
ATOM      4  C   UNL     1      -3.031  12.424  21.075  0.00  0.00    +0.000 A 
ATOM      5  C   UNL     1      -3.344  12.146  19.723  0.00  0.00    +0.000 A 
ATOM      6  C   UNL     1      -2.240  11.758  18.882  0.00  0.00    +0.000 A 
ATOM      7  C   UNL     1      -4.779  12.331  19.273  0.00  0.00    +0.000 A 
ATOM      8  C   UNL     1      -5.238  12.138  17.952  0.00  0.00    +0.000 A 
ATOM      9  C   UNL     1      -6.574  12.325  17.563  0.00  0.00    +0.000 A 
ATOM     10  C   UNL     1      -7.522  12.716  18.488  0.00  0.00    +0.000 A 
ATOM     11  C   UNL     1      -7.125  12.913  19.798  0.00  0.00    +0.000 A 
ATOM     12  C   UNL     1      -5.776  12.731  20.191  0.00  0.00    +0.000 A 
ATOM     13  C   UNL     1      -5.504  12.922  21.655  0.00  0.00    +0.000 C 
ATOM     14  C   UNL     1      -4.035  12.922  22.091  0.00  0.00    +0.000 C 
ATOM     15  N   UNL     1      -3.554  14.299  22.699  0.00  0.00    +0.000 N 
ATOM     16  C   UNL     1      -3.621  15.389  21.621  0.00  0.00    +0.000 C 
ATOM     17  C   UNL     1      -4.406  14.717  23.893  0.00  0.00    +0.000 C 
ATOM     18  C   UNL     1      -2.067  14.181  23.194  0.00  0.00    +0.000 C 
ATOM     19  C   UNL     1      -1.450  12.796  22.976  0.00  0.00    +0.000 C 
ENDROOT
BRANCH   1  21
ATOM     20  C   UNL     1       0.854  10.135  18.824  0.00  0.00    +0.000 C 
ATOM     21  O   UNL     1       0.109  11.320  18.556  0.00  0.00    +0.000 OA
ENDBRANCH   1  21
BRANCH   6  22
ATOM     22  O   UNL     1      -2.561  11.507  17.573  0.00  0.00    +0.000 OA
ATOM     23  C   UNL     1      -2.482  10.211  16.999  0.00  0.00    +0.000 C 
ENDBRANCH   6  22
TORSDOF 2
ENDMDL
MODEL 9
REMARK VINA RESULT:      -5.7     10.148     11.757
REMARK  Name = 
REMARK  6 active torsions:
REMARK  status: ('A' for Active; 'I' for Inactive)
REMARK    1  A    between atoms: C_1  and  O_2
REMARK    2  A    between atoms: O_2  and  C_3
REMARK    3  A    between atoms: C_8  and  O_9
REMARK    4  A    between atoms: O_9  and  C_10
REMARK    5  A    between atoms: N_19  and  C_20
REMARK    6  A    between atoms: N_19  and  C_21
REMARK                            x       y       z     vdW  Elec       q    Type
REMARK                         _______ _______ _______ _____ _____    ______ ____
ROOT
ATOM      1  C   UNL     1       8.215  12.516  22.609  0.00  0.00    +0.000 A 
ATOM      2  C   UNL     1       8.583  11.516  21.708  0.00  0.00    +0.000 A 
ATOM      3  C   UNL     1       9.557  11.764  20.757  0.00  0.00    +0.000 A 
ATOM      4  C   UNL     1      10.220  13.010  20.709  0.00  0.00    +0.000 A 
ATOM      5  C   UNL     1       9.884  14.067  21.590  0.00  0.00    +0.000 A 
ATOM      6  C   UNL     1       8.845  13.790  22.548  0.00  0.00    +0.000 A 
ATOM      7  C   UNL     1      10.597  15.392  21.413  0.00  0.00    +0.000 A 
ATOM      8  C   UNL     1      10.342  16.550  22.178  0.00  0.00    +0.000 A 
ATOM      9  C   UNL     1      11.013  17.768  21.986  0.00  0.00    +0.000 A 
ATOM     10  C   UNL     1      11.982  17.884  21.008  0.00  0.00    +0.000 A 
ATOM     11  C   UNL     1      12.275  16.776  20.234  0.00  0.00    +0.000 A 
ATOM     12  C   UNL     1      11.594  15.548  20.423  0.00  0.00    +0.000 A 
ATOM     13  C   UNL     1      12.057  14.417  19.551  0.00  0.00    +0.000 C 
ATOM     14  C   UNL     1      11.226  13.131  19.587  0.00  0.00    +0.000 C 
ATOM     15  N   UNL     1      10.542  12.779  18.206  0.00  0.00    +0.000 N 
ATOM     16  C   UNL     1       9.524  13.869  17.844  0.00  0.00    +0.000 C 
ATOM     17  C   UNL     1      11.568  12.654  17.084  0.00  0.00    +0.000 C 
ATOM     18  C   UNL     1       9.783  11.407  18.312  0.00  0.00    +0.000 C 
ATOM     19  C   UNL     1       9.882  10.751  19.693  0.00  0.00    +0.000 C 
ENDROOT
BRANCH   1  21
ATOM     20  C   UNL     1       7.461  11.510  24.652  0.00  0.00    +0.000 C 
ATOM     21  O   UNL     1       7.198  12.309  23.503  0.00  0.00    +0.000 OA
ENDBRANCH   1  21
BRANCH   6  22
ATOM     22  O   UNL     1       8.523  14.831  23.381  0.00  0.00    +0.000 OA
ATOM     23  C   UNL     1       8.954  14.893  24.732  0.00  0.00    +0.000 C 
ENDBRANCH   6  22
TORSDOF 2
ENDMDL
