MODEL 1
REMARK VINA RESULT:      -5.7      0.000      0.000
REMARK  Name = 
REMARK  7 active torsions:
REMARK  status: ('A' for Active; 'I' for Inactive)
REMARK    1  A    between atoms: N_1  and  C_2
REMARK    2  A    between atoms: C_2  and  C_3
REMARK    3  A    between atoms: C_2  and  C_11
REMARK    4  A    between atoms: C_3  and  S_4
REMARK    5  A    between atoms: S_4  and  C_5
REMARK    6  A    between atoms: C_5  and  C_8
REMARK    7  A    between atoms: C_11  and  O_13
REMARK                            x       y       z     vdW  Elec       q    Type
REMARK                         _______ _______ _______ _____ _____    ______ ____
ROOT
ATOM      1  C   UNK     1       5.945   4.773  17.624  0.00  0.00    +0.000 C 
ENDROOT
BRANCH   1   2
ATOM      2  N   UNK     1       5.858   3.877  18.804  0.00  0.00    +0.000 NA
ATOM      3  H   UNK     1       5.412   4.319  19.603  0.00  0.00    +0.000 HD
ATOM      4  H   UNK     1       6.817   3.678  19.110  0.00  0.00    +0.000 HD
ENDBRANCH   1   2
BRANCH   1   5
ATOM      5  C   UNK     1       7.287   4.571  16.894  0.00  0.00    +0.000 C 
ATOM      6  O   UNK     1       7.529   4.855  15.738  0.00  0.00    +0.000 OA
BRANCH   5   7
ATOM      7  O   UNK     1       8.244   4.043  17.715  0.00  0.00    +0.000 OA
ATOM      8  H   UNK     1       7.879   3.551  18.473  0.00  0.00    +0.000 HD
ENDBRANCH   5   7
ENDBRANCH   1   5
BRANCH   1   9
ATOM      9  C   UNK     1       4.704   4.622  16.706  0.00  0.00    +0.000 C 
BRANCH   9  10
ATOM     10  S   UNK     1       3.441   3.487  17.389  0.00  0.00    +0.000 S 
BRANCH  10  11
ATOM     11  C   UNK     1       2.231   4.699  18.035  0.00  0.00    +0.000 C 
ATOM     12  F   UNK     1       2.665   5.956  17.759  0.00  0.00    +0.000 F 
ATOM     13  F   UNK     1       1.048   4.549  17.382  0.00  0.00    +0.000 F 
BRANCH  11  14
ATOM     14  C   UNK     1       2.040   4.492  19.549  0.00  0.00    +0.000 C 
ATOM     15  F   UNK     1       1.670   5.657  20.155  0.00  0.00    +0.000 F 
ATOM     16 CL   UNK     1       0.807   3.258  19.937  0.00  0.00    +0.000 Cl
ENDBRANCH  11  14
ENDBRANCH  10  11
ENDBRANCH   9  10
ENDBRANCH   1   9
TORSDOF 7
ENDMDL
MODEL 2
REMARK VINA RESULT:      -5.5      1.139      1.183
REMARK  Name = 
REMARK  7 active torsions:
REMARK  status: ('A' for Active; 'I' for Inactive)
REMARK    1  A    between atoms: N_1  and  C_2
REMARK    2  A    between atoms: C_2  and  C_3
REMARK    3  A    between atoms: C_2  and  C_11
REMARK    4  A    between atoms: C_3  and  S_4
REMARK    5  A    between atoms: S_4  and  C_5
REMARK    6  A    between atoms: C_5  and  C_8
REMARK    7  A    between atoms: C_11  and  O_13
REMARK                            x       y       z     vdW  Elec       q    Type
REMARK                         _______ _______ _______ _____ _____    ______ ____
ROOT
ATOM      1  C   UNK     1       5.991   4.839  17.954  0.00  0.00    +0.000 C 
ENDROOT
BRANCH   1   2
ATOM      2  N   UNK     1       5.867   3.737  18.940  0.00  0.00    +0.000 NA
ATOM      3  H   UNK     1       6.480   2.953  18.734  0.00  0.00    +0.000 HD
ATOM      4  H   UNK     1       4.916   3.359  18.863  0.00  0.00    +0.000 HD
ENDBRANCH   1   2
BRANCH   1   5
ATOM      5  C   UNK     1       7.231   4.626  17.065  0.00  0.00    +0.000 C 
ATOM      6  O   UNK     1       7.344   4.941  15.897  0.00  0.00    +0.000 OA
BRANCH   5   7
ATOM      7  O   UNK     1       8.262   4.046  17.751  0.00  0.00    +0.000 OA
ATOM      8  H   UNK     1       8.630   3.259  17.308  0.00  0.00    +0.000 HD
ENDBRANCH   5   7
ENDBRANCH   1   5
BRANCH   1   9
ATOM      9  C   UNK     1       4.675   5.035  17.157  0.00  0.00    +0.000 C 
BRANCH   9  10
ATOM     10  S   UNK     1       3.579   3.570  17.210  0.00  0.00    +0.000 S 
BRANCH  10  11
ATOM     11  C   UNK     1       2.156   4.263  18.131  0.00  0.00    +0.000 C 
ATOM     12  F   UNK     1       2.551   5.382  18.790  0.00  0.00    +0.000 F 
ATOM     13  F   UNK     1       1.195   4.653  17.251  0.00  0.00    +0.000 F 
BRANCH  11  14
ATOM     14  C   UNK     1       1.598   3.207  19.103  0.00  0.00    +0.000 C 
ATOM     15  F   UNK     1       2.543   2.266  19.392  0.00  0.00    +0.000 F 
ATOM     16 CL   UNK     1       1.032   3.905  20.646  0.00  0.00    +0.000 Cl
ENDBRANCH  11  14
ENDBRANCH  10  11
ENDBRANCH   9  10
ENDBRANCH   1   9
TORSDOF 7
ENDMDL
MODEL 3
REMARK VINA RESULT:      -5.4      1.324      1.794
REMARK  Name = 
REMARK  7 active torsions:
REMARK  status: ('A' for Active; 'I' for Inactive)
REMARK    1  A    between atoms: N_1  and  C_2
REMARK    2  A    between atoms: C_2  and  C_3
REMARK    3  A    between atoms: C_2  and  C_11
REMARK    4  A    between atoms: C_3  and  S_4
REMARK    5  A    between atoms: S_4  and  C_5
REMARK    6  A    between atoms: C_5  and  C_8
REMARK    7  A    between atoms: C_11  and  O_13
REMARK                            x       y       z     vdW  Elec       q    Type
REMARK                         _______ _______ _______ _____ _____    ______ ____
ROOT
ATOM      1  C   UNK     1       6.380   5.343  18.545  0.00  0.00    +0.000 C 
ENDROOT
BRANCH   1   2
ATOM      2  N   UNK     1       7.172   5.385  19.799  0.00  0.00    +0.000 NA
ATOM      3  H   UNK     1       7.949   6.039  19.753  0.00  0.00    +0.000 HD
ATOM      4  H   UNK     1       7.607   4.464  19.920  0.00  0.00    +0.000 HD
ENDBRANCH   1   2
BRANCH   1   5
ATOM      5  C   UNK     1       7.315   5.265  17.323  0.00  0.00    +0.000 C 
ATOM      6  O   UNK     1       7.426   6.098  16.446  0.00  0.00    +0.000 OA
BRANCH   5   7
ATOM      7  O   UNK     1       8.073   4.127  17.326  0.00  0.00    +0.000 OA
ATOM      8  H   UNK     1       8.921   4.225  17.796  0.00  0.00    +0.000 HD
ENDBRANCH   5   7
ENDBRANCH   1   5
BRANCH   1   9
ATOM      9  C   UNK     1       5.312   4.220  18.588  0.00  0.00    +0.000 C 
BRANCH   9  10
ATOM     10  S   UNK     1       4.053   4.377  17.268  0.00  0.00    +0.000 S 
BRANCH  10  11
ATOM     11  C   UNK     1       2.574   4.767  18.274  0.00  0.00    +0.000 C 
ATOM     12  F   UNK     1       2.948   4.953  19.567  0.00  0.00    +0.000 F 
ATOM     13  F   UNK     1       2.041   5.946  17.855  0.00  0.00    +0.000 F 
BRANCH  11  14
ATOM     14  C   UNK     1       1.541   3.633  18.147  0.00  0.00    +0.000 C 
ATOM     15  F   UNK     1       2.102   2.528  17.576  0.00  0.00    +0.000 F 
ATOM     16 CL   UNK     1       0.841   3.143  19.715  0.00  0.00    +0.000 Cl
ENDBRANCH  11  14
ENDBRANCH  10  11
ENDBRANCH   9  10
ENDBRANCH   1   9
TORSDOF 7
ENDMDL
MODEL 4
REMARK VINA RESULT:      -5.4      1.571      1.771
REMARK  Name = 
REMARK  7 active torsions:
REMARK  status: ('A' for Active; 'I' for Inactive)
REMARK    1  A    between atoms: N_1  and  C_2
REMARK    2  A    between atoms: C_2  and  C_3
REMARK    3  A    between atoms: C_2  and  C_11
REMARK    4  A    between atoms: C_3  and  S_4
REMARK    5  A    between atoms: S_4  and  C_5
REMARK    6  A    between atoms: C_5  and  C_8
REMARK    7  A    between atoms: C_11  and  O_13
REMARK                            x       y       z     vdW  Elec       q    Type
REMARK                         _______ _______ _______ _____ _____    ______ ____
ROOT
ATOM      1  C   UNK     1       5.949   4.723  18.412  0.00  0.00    +0.000 C 
ENDROOT
BRANCH   1   2
ATOM      2  N   UNK     1       5.640   3.427  19.066  0.00  0.00    +0.000 NA
ATOM      3  H   UNK     1       5.559   3.504  20.076  0.00  0.00    +0.000 HD
ATOM      4  H   UNK     1       6.440   2.804  18.910  0.00  0.00    +0.000 HD
ENDBRANCH   1   2
BRANCH   1   5
ATOM      5  C   UNK     1       6.913   4.511  17.230  0.00  0.00    +0.000 C 
ATOM      6  O   UNK     1       6.672   4.713  16.057  0.00  0.00    +0.000 OA
BRANCH   5   7
ATOM      7  O   UNK     1       8.144   4.078  17.640  0.00  0.00    +0.000 OA
ATOM      8  H   UNK     1       8.117   3.547  18.458  0.00  0.00    +0.000 HD
ENDBRANCH   5   7
ENDBRANCH   1   5
BRANCH   1   9
ATOM      9  C   UNK     1       4.655   5.490  18.035  0.00  0.00    +0.000 C 
BRANCH   9  10
ATOM     10  S   UNK     1       3.214   5.009  19.056  0.00  0.00    +0.000 S 
BRANCH  10  11
ATOM     11  C   UNK     1       2.288   3.989  17.850  0.00  0.00    +0.000 C 
ATOM     12  F   UNK     1       1.286   4.731  17.311  0.00  0.00    +0.000 F 
ATOM     13  F   UNK     1       3.109   3.647  16.821  0.00  0.00    +0.000 F 
BRANCH  11  14
ATOM     14  C   UNK     1       1.741   2.728  18.543  0.00  0.00    +0.000 C 
ATOM     15  F   UNK     1       2.752   1.866  18.852  0.00  0.00    +0.000 F 
ATOM     16 CL   UNK     1       0.850   3.087  20.049  0.00  0.00    +0.000 Cl
ENDBRANCH  11  14
ENDBRANCH  10  11
ENDBRANCH   9  10
ENDBRANCH   1   9
TORSDOF 7
ENDMDL
MODEL 5
REMARK VINA RESULT:      -5.4      2.243      2.577
REMARK  Name = 
REMARK  7 active torsions:
REMARK  status: ('A' for Active; 'I' for Inactive)
REMARK    1  A    between atoms: N_1  and  C_2
REMARK    2  A    between atoms: C_2  and  C_3
REMARK    3  A    between atoms: C_2  and  C_11
REMARK    4  A    between atoms: C_3  and  S_4
REMARK    5  A    between atoms: S_4  and  C_5
REMARK    6  A    between atoms: C_5  and  C_8
REMARK    7  A    between atoms: C_11  and  O_13
REMARK                            x       y       z     vdW  Elec       q    Type
REMARK                         _______ _______ _______ _____ _____    ______ ____
ROOT
ATOM      1  C   UNK     1       7.025   4.844  18.208  0.00  0.00    +0.000 C 
ENDROOT
BRANCH   1   2
ATOM      2  N   UNK     1       7.947   4.221  17.225  0.00  0.00    +0.000 NA
ATOM      3  H   UNK     1       8.918   4.480  17.376  0.00  0.00    +0.000 HD
ATOM      4  H   UNK     1       7.712   4.599  16.300  0.00  0.00    +0.000 HD
ENDBRANCH   1   2
BRANCH   1   5
ATOM      5  C   UNK     1       7.778   5.875  19.070  0.00  0.00    +0.000 C 
ATOM      6  O   UNK     1       8.195   6.955  18.703  0.00  0.00    +0.000 OA
BRANCH   5   7
ATOM      7  O   UNK     1       7.918   5.458  20.365  0.00  0.00    +0.000 OA
ATOM      8  H   UNK     1       8.261   4.549  20.447  0.00  0.00    +0.000 HD
ENDBRANCH   5   7
ENDBRANCH   1   5
BRANCH   1   9
ATOM      9  C   UNK     1       5.759   5.411  17.516  0.00  0.00    +0.000 C 
BRANCH   9  10
ATOM     10  S   UNK     1       4.906   4.182  16.463  0.00  0.00    +0.000 S 
BRANCH  10  11
ATOM     11  C   UNK     1       3.483   3.766  17.537  0.00  0.00    +0.000 C 
ATOM     12  F   UNK     1       2.621   2.971  16.852  0.00  0.00    +0.000 F 
ATOM     13  F   UNK     1       3.917   3.036  18.600  0.00  0.00    +0.000 F 
BRANCH  11  14
ATOM     14  C   UNK     1       2.794   5.057  18.016  0.00  0.00    +0.000 C 
ATOM     15  F   UNK     1       1.494   5.094  17.606  0.00  0.00    +0.000 F 
ATOM     16 CL   UNK     1       2.814   5.244  19.793  0.00  0.00    +0.000 Cl
ENDBRANCH  11  14
ENDBRANCH  10  11
ENDBRANCH   9  10
ENDBRANCH   1   9
TORSDOF 7
ENDMDL
MODEL 6
REMARK VINA RESULT:      -5.3      1.561      1.856
REMARK  Name = 
REMARK  7 active torsions:
REMARK  status: ('A' for Active; 'I' for Inactive)
REMARK    1  A    between atoms: N_1  and  C_2
REMARK    2  A    between atoms: C_2  and  C_3
REMARK    3  A    between atoms: C_2  and  C_11
REMARK    4  A    between atoms: C_3  and  S_4
REMARK    5  A    between atoms: S_4  and  C_5
REMARK    6  A    between atoms: C_5  and  C_8
REMARK    7  A    between atoms: C_11  and  O_13
REMARK                            x       y       z     vdW  Elec       q    Type
REMARK                         _______ _______ _______ _____ _____    ______ ____
ROOT
ATOM      1  C   UNK     1       5.809   5.062  17.659  0.00  0.00    +0.000 C 
ENDROOT
BRANCH   1   2
ATOM      2  N   UNK     1       5.999   3.960  18.635  0.00  0.00    +0.000 NA
ATOM      3  H   UNK     1       6.082   3.050  18.191  0.00  0.00    +0.000 HD
ATOM      4  H   UNK     1       5.147   3.902  19.204  0.00  0.00    +0.000 HD
ENDBRANCH   1   2
BRANCH   1   5
ATOM      5  C   UNK     1       6.544   4.744  16.342  0.00  0.00    +0.000 C 
ATOM      6  O   UNK     1       7.367   5.444  15.789  0.00  0.00    +0.000 OA
BRANCH   5   7
ATOM      7  O   UNK     1       6.190   3.523  15.838  0.00  0.00    +0.000 OA
ATOM      8  H   UNK     1       5.577   3.577  15.081  0.00  0.00    +0.000 HD
ENDBRANCH   5   7
ENDBRANCH   1   5
BRANCH   1   9
ATOM      9  C   UNK     1       4.308   5.400  17.473  0.00  0.00    +0.000 C 
BRANCH   9  10
ATOM     10  S   UNK     1       3.260   4.791  18.844  0.00  0.00    +0.000 S 
BRANCH  10  11
ATOM     11  C   UNK     1       2.023   3.824  17.901  0.00  0.00    +0.000 C 
ATOM     12  F   UNK     1       1.171   4.677  17.275  0.00  0.00    +0.000 F 
ATOM     13  F   UNK     1       2.650   3.119  16.922  0.00  0.00    +0.000 F 
BRANCH  11  14
ATOM     14  C   UNK     1       1.269   2.874  18.850  0.00  0.00    +0.000 C 
ATOM     15  F   UNK     1       2.017   1.765  19.121  0.00  0.00    +0.000 F 
ATOM     16 CL   UNK     1       0.835   3.636  20.406  0.00  0.00    +0.000 Cl
ENDBRANCH  11  14
ENDBRANCH  10  11
ENDBRANCH   9  10
ENDBRANCH   1   9
TORSDOF 7
ENDMDL
MODEL 7
REMARK VINA RESULT:      -5.3      1.455      1.823
REMARK  Name = 
REMARK  7 active torsions:
REMARK  status: ('A' for Active; 'I' for Inactive)
REMARK    1  A    between atoms: N_1  and  C_2
REMARK    2  A    between atoms: C_2  and  C_3
REMARK    3  A    between atoms: C_2  and  C_11
REMARK    4  A    between atoms: C_3  and  S_4
REMARK    5  A    between atoms: S_4  and  C_5
REMARK    6  A    between atoms: C_5  and  C_8
REMARK    7  A    between atoms: C_11  and  O_13
REMARK                            x       y       z     vdW  Elec       q    Type
REMARK                         _______ _______ _______ _____ _____    ______ ____
ROOT
ATOM      1  C   UNK     1       5.011   4.196  18.572  0.00  0.00    +0.000 C 
ENDROOT
BRANCH   1   2
ATOM      2  N   UNK     1       5.306   3.059  19.479  0.00  0.00    +0.000 NA
ATOM      3  H   UNK     1       5.148   2.155  19.042  0.00  0.00    +0.000 HD
ATOM      4  H   UNK     1       4.635   3.100  20.254  0.00  0.00    +0.000 HD
ENDBRANCH   1   2
BRANCH   1   5
ATOM      5  C   UNK     1       6.312   4.736  17.948  0.00  0.00    +0.000 C 
ATOM      6  O   UNK     1       7.430   4.292  18.115  0.00  0.00    +0.000 OA
BRANCH   5   7
ATOM      7  O   UNK     1       6.083   5.801  17.121  0.00  0.00    +0.000 OA
ATOM      8  H   UNK     1       5.567   5.572  16.326  0.00  0.00    +0.000 HD
ENDBRANCH   5   7
ENDBRANCH   1   5
BRANCH   1   9
ATOM      9  C   UNK     1       3.926   3.821  17.530  0.00  0.00    +0.000 C 
BRANCH   9  10
ATOM     10  S   UNK     1       2.900   2.395  18.044  0.00  0.00    +0.000 S 
BRANCH  10  11
ATOM     11  C   UNK     1       1.423   3.270  18.681  0.00  0.00    +0.000 C 
ATOM     12  F   UNK     1       1.095   4.274  17.828  0.00  0.00    +0.000 F 
ATOM     13  F   UNK     1       0.364   2.417  18.697  0.00  0.00    +0.000 F 
BRANCH  11  14
ATOM     14  C   UNK     1       1.704   3.806  20.097  0.00  0.00    +0.000 C 
ATOM     15  F   UNK     1       1.021   4.966  20.320  0.00  0.00    +0.000 F 
ATOM     16 CL   UNK     1       1.256   2.652  21.385  0.00  0.00    +0.000 Cl
ENDBRANCH  11  14
ENDBRANCH  10  11
ENDBRANCH   9  10
ENDBRANCH   1   9
TORSDOF 7
ENDMDL
MODEL 8
REMARK VINA RESULT:      -5.3      0.936      1.133
REMARK  Name = 
REMARK  7 active torsions:
REMARK  status: ('A' for Active; 'I' for Inactive)
REMARK    1  A    between atoms: N_1  and  C_2
REMARK    2  A    between atoms: C_2  and  C_3
REMARK    3  A    between atoms: C_2  and  C_11
REMARK    4  A    between atoms: C_3  and  S_4
REMARK    5  A    between atoms: S_4  and  C_5
REMARK    6  A    between atoms: C_5  and  C_8
REMARK    7  A    between atoms: C_11  and  O_13
REMARK                            x       y       z     vdW  Elec       q    Type
REMARK                         _______ _______ _______ _____ _____    ______ ____
ROOT
ATOM      1  C   UNK     1       6.178   5.372  18.240  0.00  0.00    +0.000 C 
ENDROOT
BRANCH   1   2
ATOM      2  N   UNK     1       6.061   4.078  18.957  0.00  0.00    +0.000 NA
ATOM      3  H   UNK     1       6.781   3.952  19.663  0.00  0.00    +0.000 HD
ATOM      4  H   UNK     1       6.224   3.331  18.274  0.00  0.00    +0.000 HD
ENDBRANCH   1   2
BRANCH   1   5
ATOM      5  C   UNK     1       7.319   5.311  17.207  0.00  0.00    +0.000 C 
ATOM      6  O   UNK     1       7.960   4.326  16.898  0.00  0.00    +0.000 OA
BRANCH   5   7
ATOM      7  O   UNK     1       7.542   6.523  16.613  0.00  0.00    +0.000 OA
ATOM      8  H   UNK     1       8.022   7.152  17.182  0.00  0.00    +0.000 HD
ENDBRANCH   5   7
ENDBRANCH   1   5
BRANCH   1   9
ATOM      9  C   UNK     1       4.817   5.814  17.643  0.00  0.00    +0.000 C 
BRANCH   9  10
ATOM     10  S   UNK     1       3.723   4.405  17.233  0.00  0.00    +0.000 S 
BRANCH  10  11
ATOM     11  C   UNK     1       2.191   4.922  18.092  0.00  0.00    +0.000 C 
ATOM     12  F   UNK     1       1.991   6.251  17.890  0.00  0.00    +0.000 F 
ATOM     13  F   UNK     1       1.125   4.285  17.539  0.00  0.00    +0.000 F 
BRANCH  11  14
ATOM     14  C   UNK     1       2.296   4.592  19.592  0.00  0.00    +0.000 C 
ATOM     15  F   UNK     1       2.604   5.708  20.314  0.00  0.00    +0.000 F 
ATOM     16 CL   UNK     1       0.792   3.903  20.265  0.00  0.00    +0.000 Cl
ENDBRANCH  11  14
ENDBRANCH  10  11
ENDBRANCH   9  10
ENDBRANCH   1   9
TORSDOF 7
ENDMDL
MODEL 9
REMARK VINA RESULT:      -5.3      2.228      2.294
REMARK  Name = 
REMARK  7 active torsions:
REMARK  status: ('A' for Active; 'I' for Inactive)
REMARK    1  A    between atoms: N_1  and  C_2
REMARK    2  A    between atoms: C_2  and  C_3
REMARK    3  A    between atoms: C_2  and  C_11
REMARK    4  A    between atoms: C_3  and  S_4
REMARK    5  A    between atoms: S_4  and  C_5
REMARK    6  A    between atoms: C_5  and  C_8
REMARK    7  A    between atoms: C_11  and  O_13
REMARK                            x       y       z     vdW  Elec       q    Type
REMARK                         _______ _______ _______ _____ _____    ______ ____
ROOT
ATOM      1  C   UNK     1       6.136   5.341  18.190  0.00  0.00    +0.000 C 
ENDROOT
BRANCH   1   2
ATOM      2  N   UNK     1       6.673   5.089  19.551  0.00  0.00    +0.000 NA
ATOM      3  H   UNK     1       6.727   4.100  19.776  0.00  0.00    +0.000 HD
ATOM      4  H   UNK     1       6.003   5.478  20.223  0.00  0.00    +0.000 HD
ENDBRANCH   1   2
BRANCH   1   5
ATOM      5  C   UNK     1       7.263   5.249  17.144  0.00  0.00    +0.000 C 
ATOM      6  O   UNK     1       7.476   6.034  16.242  0.00  0.00    +0.000 OA
BRANCH   5   7
ATOM      7  O   UNK     1       8.068   4.162  17.348  0.00  0.00    +0.000 OA
ATOM      8  H   UNK     1       8.182   3.933  18.289  0.00  0.00    +0.000 HD
ENDBRANCH   5   7
ENDBRANCH   1   5
BRANCH   1   9
ATOM      9  C   UNK     1       4.921   4.429  17.884  0.00  0.00    +0.000 C 
BRANCH   9  10
ATOM     10  S   UNK     1       4.479   3.330  19.279  0.00  0.00    +0.000 S 
BRANCH  10  11
ATOM     11  C   UNK     1       3.172   2.316  18.493  0.00  0.00    +0.000 C 
ATOM     12  F   UNK     1       2.983   2.742  17.217  0.00  0.00    +0.000 F 
ATOM     13  F   UNK     1       3.591   1.025  18.409  0.00  0.00    +0.000 F 
BRANCH  11  14
ATOM     14  C   UNK     1       1.873   2.409  19.314  0.00  0.00    +0.000 C 
ATOM     15  F   UNK     1       2.086   2.023  20.605  0.00  0.00    +0.000 F 
ATOM     16 CL   UNK     1       1.178   4.054  19.342  0.00  0.00    +0.000 Cl
ENDBRANCH  11  14
ENDBRANCH  10  11
ENDBRANCH   9  10
ENDBRANCH   1   9
TORSDOF 7
ENDMDL
