MODEL 1
REMARK VINA RESULT:      -7.4      0.000      0.000
REMARK  Name = 
REMARK  7 active torsions:
REMARK  status: ('A' for Active; 'I' for Inactive)
REMARK    1  A    between atoms: C_2  and  O_3
REMARK    2  A    between atoms: C_2  and  C_4
REMARK    3  A    between atoms: C_4  and  C_5
REMARK    4  A    between atoms: C_5  and  N_6
REMARK    5  A    between atoms: N_6  and  C_7
REMARK    6  A    between atoms: C_11  and  C_12
REMARK    7  A    between atoms: C_19  and  O_20
REMARK                            x       y       z     vdW  Elec       q    Type
REMARK                         _______ _______ _______ _____ _____    ______ ____
ROOT
ATOM      1  C   UNL     1       5.628   4.096  15.500  0.00  0.00    +0.000 A 
ATOM      2  C   UNL     1       4.582   3.373  16.060  0.00  0.00    +0.000 A 
ATOM      3  C   UNL     1       3.767   3.911  17.070  0.00  0.00    +0.000 A 
ATOM      4 CL   UNL     1       2.362   2.947  17.427  0.00  0.00    +0.000 Cl
ATOM      5  C   UNL     1       4.061   5.145  17.695  0.00  0.00    +0.000 A 
ATOM      6  C   UNL     1       5.248   5.771  17.241  0.00  0.00    +0.000 A 
ATOM      7 CL   UNL     1       5.968   7.137  18.036  0.00  0.00    +0.000 Cl
ATOM      8  C   UNL     1       5.972   5.287  16.132  0.00  0.00    +0.000 A 
ENDROOT
BRANCH   5   9
ATOM      9  C   UNL     1       3.200   5.700  18.801  0.00  0.00    +0.000 A 
ATOM     10  C   UNL     1       3.060   4.925  19.973  0.00  0.00    +0.000 A 
ATOM     11  C   UNL     1       2.249   5.317  21.025  0.00  0.00    +0.000 A 
ATOM     12  C   UNL     1       1.659   6.570  21.001  0.00  0.00    +0.000 A 
ATOM     13  C   UNL     1       1.829   7.450  19.912  0.00  0.00    +0.000 A 
ATOM     14  C   UNL     1       1.335   8.785  19.932  0.00  0.00    +0.000 A 
ATOM     15 BR   UNL     1       0.480   9.534  21.474  0.00  0.00    +0.000 Br
ATOM     16  C   UNL     1       1.493   9.623  18.826  0.00  0.00    +0.000 A 
ATOM     17  C   UNL     1       2.060   9.140  17.664  0.00  0.00    +0.000 A 
ATOM     18  C   UNL     1       2.530   7.827  17.623  0.00  0.00    +0.000 A 
ATOM     19  C   UNL     1       2.529   6.976  18.758  0.00  0.00    +0.000 A 
BRANCH  16  20
ATOM     20  O   UNL     1       1.105  10.934  18.828  0.00  0.00    +0.000 OA
ATOM     21  H   UNL     1       0.979  11.200  17.897  0.00  0.00    +0.000 HD
ENDBRANCH  16  20
ENDBRANCH   5   9
BRANCH   1  22
ATOM     22  N   UNL     1       6.382   3.632  14.427  0.00  0.00    +0.000 N 
ATOM     23  H   UNL     1       6.896   2.775  14.622  0.00  0.00    +0.000 HD
BRANCH  22  24
ATOM     24  C   UNL     1       7.121   4.573  13.574  0.00  0.00    +0.000 C 
BRANCH  24  25
ATOM     25  C   UNL     1       6.882   4.285  12.096  0.00  0.00    +0.000 C 
BRANCH  25  27
ATOM     26  O   UNL     1       4.647   3.392  11.826  0.00  0.00    +0.000 OA
ATOM     27  C   UNL     1       5.853   3.208  11.908  0.00  0.00    +0.000 C 
BRANCH  27  28
ATOM     28  O   UNL     1       6.406   1.974  11.844  0.00  0.00    +0.000 OA
ATOM     29  H   UNL     1       5.789   1.264  11.582  0.00  0.00    +0.000 HD
ENDBRANCH  27  28
ENDBRANCH  25  27
ENDBRANCH  24  25
ENDBRANCH  22  24
ENDBRANCH   1  22
TORSDOF 7
ENDMDL
MODEL 2
REMARK VINA RESULT:      -7.3      0.214      1.814
REMARK  Name = 
REMARK  7 active torsions:
REMARK  status: ('A' for Active; 'I' for Inactive)
REMARK    1  A    between atoms: C_2  and  O_3
REMARK    2  A    between atoms: C_2  and  C_4
REMARK    3  A    between atoms: C_4  and  C_5
REMARK    4  A    between atoms: C_5  and  N_6
REMARK    5  A    between atoms: N_6  and  C_7
REMARK    6  A    between atoms: C_11  and  C_12
REMARK    7  A    between atoms: C_19  and  O_20
REMARK                            x       y       z     vdW  Elec       q    Type
REMARK                         _______ _______ _______ _____ _____    ______ ____
ROOT
ATOM      1  C   UNL     1       5.785   4.305  15.464  0.00  0.00    +0.000 A 
ATOM      2  C   UNL     1       5.976   5.559  16.030  0.00  0.00    +0.000 A 
ATOM      3  C   UNL     1       5.208   6.007  17.116  0.00  0.00    +0.000 A 
ATOM      4 CL   UNL     1       5.796   7.479  17.834  0.00  0.00    +0.000 Cl
ATOM      5  C   UNL     1       4.086   5.287  17.589  0.00  0.00    +0.000 A 
ATOM      6  C   UNL     1       3.792   4.105  16.866  0.00  0.00    +0.000 A 
ATOM      7 CL   UNL     1       2.319   3.205  17.070  0.00  0.00    +0.000 Cl
ATOM      8  C   UNL     1       4.656   3.601  15.874  0.00  0.00    +0.000 A 
ENDROOT
BRANCH   5   9
ATOM      9  C   UNL     1       3.245   5.791  18.735  0.00  0.00    +0.000 A 
ATOM     10  C   UNL     1       3.179   4.994  19.898  0.00  0.00    +0.000 A 
ATOM     11  C   UNL     1       2.393   5.337  20.986  0.00  0.00    +0.000 A 
ATOM     12  C   UNL     1       1.754   6.566  21.004  0.00  0.00    +0.000 A 
ATOM     13  C   UNL     1       1.848   7.468  19.924  0.00  0.00    +0.000 A 
ATOM     14  C   UNL     1       1.302   8.781  19.983  0.00  0.00    +0.000 A 
ATOM     15 BR   UNL     1       0.476   9.472  21.567  0.00  0.00    +0.000 Br
ATOM     16  C   UNL     1       1.386   9.641  18.886  0.00  0.00    +0.000 A 
ATOM     17  C   UNL     1       1.927   9.199  17.697  0.00  0.00    +0.000 A 
ATOM     18  C   UNL     1       2.447   7.906  17.617  0.00  0.00    +0.000 A 
ATOM     19  C   UNL     1       2.523   7.039  18.738  0.00  0.00    +0.000 A 
BRANCH  16  20
ATOM     20  O   UNL     1       0.946  10.936  18.923  0.00  0.00    +0.000 OA
ATOM     21  H   UNL     1       1.639  11.464  19.362  0.00  0.00    +0.000 HD
ENDBRANCH  16  20
ENDBRANCH   5   9
BRANCH   1  22
ATOM     22  N   UNL     1       6.600   3.792  14.460  0.00  0.00    +0.000 N 
ATOM     23  H   UNL     1       7.205   3.032  14.765  0.00  0.00    +0.000 HD
BRANCH  22  24
ATOM     24  C   UNL     1       7.239   4.689  13.487  0.00  0.00    +0.000 C 
BRANCH  24  25
ATOM     25  C   UNL     1       6.962   4.242  12.056  0.00  0.00    +0.000 C 
BRANCH  25  27
ATOM     26  O   UNL     1       4.687   3.411  12.080  0.00  0.00    +0.000 OA
ATOM     27  C   UNL     1       5.889   3.194  12.009  0.00  0.00    +0.000 C 
BRANCH  27  28
ATOM     28  O   UNL     1       6.395   1.945  11.884  0.00  0.00    +0.000 OA
ATOM     29  H   UNL     1       7.232   1.794  12.364  0.00  0.00    +0.000 HD
ENDBRANCH  27  28
ENDBRANCH  25  27
ENDBRANCH  24  25
ENDBRANCH  22  24
ENDBRANCH   1  22
TORSDOF 7
ENDMDL
MODEL 3
REMARK VINA RESULT:      -7.0      4.019      8.456
REMARK  Name = 
REMARK  7 active torsions:
REMARK  status: ('A' for Active; 'I' for Inactive)
REMARK    1  A    between atoms: C_2  and  O_3
REMARK    2  A    between atoms: C_2  and  C_4
REMARK    3  A    between atoms: C_4  and  C_5
REMARK    4  A    between atoms: C_5  and  N_6
REMARK    5  A    between atoms: N_6  and  C_7
REMARK    6  A    between atoms: C_11  and  C_12
REMARK    7  A    between atoms: C_19  and  O_20
REMARK                            x       y       z     vdW  Elec       q    Type
REMARK                         _______ _______ _______ _____ _____    ______ ____
ROOT
ATOM      1  C   UNL     1       1.213   8.728  21.137  0.00  0.00    +0.000 A 
ATOM      2  C   UNL     1       1.243   7.379  21.467  0.00  0.00    +0.000 A 
ATOM      3  C   UNL     1       1.794   6.417  20.606  0.00  0.00    +0.000 A 
ATOM      4 CL   UNL     1       1.974   4.844  21.330  0.00  0.00    +0.000 Cl
ATOM      5  C   UNL     1       2.196   6.733  19.287  0.00  0.00    +0.000 A 
ATOM      6  C   UNL     1       1.972   8.079  18.906  0.00  0.00    +0.000 A 
ATOM      7 CL   UNL     1       2.118   8.642  17.268  0.00  0.00    +0.000 Cl
ATOM      8  C   UNL     1       1.552   9.058  19.828  0.00  0.00    +0.000 A 
ENDROOT
BRANCH   5   9
ATOM      9  C   UNL     1       2.757   5.688  18.356  0.00  0.00    +0.000 A 
ATOM     10  C   UNL     1       1.911   4.620  17.986  0.00  0.00    +0.000 A 
ATOM     11  C   UNL     1       2.344   3.580  17.179  0.00  0.00    +0.000 A 
ATOM     12  C   UNL     1       3.600   3.645  16.599  0.00  0.00    +0.000 A 
ATOM     13  C   UNL     1       4.472   4.728  16.835  0.00  0.00    +0.000 A 
ATOM     14  C   UNL     1       5.710   4.869  16.146  0.00  0.00    +0.000 A 
ATOM     15 BR   UNL     1       6.256   3.653  14.770  0.00  0.00    +0.000 Br
ATOM     16  C   UNL     1       6.566   5.936  16.423  0.00  0.00    +0.000 A 
ATOM     17  C   UNL     1       6.261   6.827  17.432  0.00  0.00    +0.000 A 
ATOM     18  C   UNL     1       5.061   6.689  18.131  0.00  0.00    +0.000 A 
ATOM     19  C   UNL     1       4.086   5.714  17.797  0.00  0.00    +0.000 A 
BRANCH  16  20
ATOM     20  O   UNL     1       7.726   6.155  15.733  0.00  0.00    +0.000 OA
ATOM     21  H   UNL     1       7.491   6.633  14.915  0.00  0.00    +0.000 HD
ENDBRANCH  16  20
ENDBRANCH   5   9
BRANCH   1  22
ATOM     22  N   UNL     1       0.773   9.715  22.014  0.00  0.00    +0.000 N 
ATOM     23  H   UNL     1       1.523  10.212  22.488  0.00  0.00    +0.000 HD
BRANCH  22  24
ATOM     24  C   UNL     1      -0.402   9.485  22.865  0.00  0.00    +0.000 C 
BRANCH  24  25
ATOM     25  C   UNL     1      -1.176  10.777  23.103  0.00  0.00    +0.000 C 
BRANCH  25  27
ATOM     26  O   UNL     1      -1.558  11.724  20.907  0.00  0.00    +0.000 OA
ATOM     27  C   UNL     1      -0.971  11.751  21.979  0.00  0.00    +0.000 C 
BRANCH  27  28
ATOM     28  O   UNL     1      -0.039  12.687  22.273  0.00  0.00    +0.000 OA
ATOM     29  H   UNL     1      -0.328  13.610  22.135  0.00  0.00    +0.000 HD
ENDBRANCH  27  28
ENDBRANCH  25  27
ENDBRANCH  24  25
ENDBRANCH  22  24
ENDBRANCH   1  22
TORSDOF 7
ENDMDL
MODEL 4
REMARK VINA RESULT:      -6.9      3.101      4.631
REMARK  Name = 
REMARK  7 active torsions:
REMARK  status: ('A' for Active; 'I' for Inactive)
REMARK    1  A    between atoms: C_2  and  O_3
REMARK    2  A    between atoms: C_2  and  C_4
REMARK    3  A    between atoms: C_4  and  C_5
REMARK    4  A    between atoms: C_5  and  N_6
REMARK    5  A    between atoms: N_6  and  C_7
REMARK    6  A    between atoms: C_11  and  C_12
REMARK    7  A    between atoms: C_19  and  O_20
REMARK                            x       y       z     vdW  Elec       q    Type
REMARK                         _______ _______ _______ _____ _____    ______ ____
ROOT
ATOM      1  C   UNL     1       3.673   6.676  17.653  0.00  0.00    +0.000 A 
ATOM      2  C   UNL     1       3.277   7.983  17.403  0.00  0.00    +0.000 A 
ATOM      3  C   UNL     1       2.509   8.713  18.324  0.00  0.00    +0.000 A 
ATOM      4 CL   UNL     1       2.361  10.404  17.934  0.00  0.00    +0.000 Cl
ATOM      5  C   UNL     1       1.949   8.115  19.477  0.00  0.00    +0.000 A 
ATOM      6  C   UNL     1       2.205   6.728  19.607  0.00  0.00    +0.000 A 
ATOM      7 CL   UNL     1       1.404   5.717  20.772  0.00  0.00    +0.000 Cl
ATOM      8  C   UNL     1       3.094   6.047  18.751  0.00  0.00    +0.000 A 
ENDROOT
BRANCH   5   9
ATOM      9  C   UNL     1       1.097   8.897  20.444  0.00  0.00    +0.000 A 
ATOM     10  C   UNL     1       1.418   8.811  21.816  0.00  0.00    +0.000 A 
ATOM     11  C   UNL     1       0.667   9.446  22.792  0.00  0.00    +0.000 A 
ATOM     12  C   UNL     1      -0.351  10.307  22.416  0.00  0.00    +0.000 A 
ATOM     13  C   UNL     1      -0.674  10.528  21.061  0.00  0.00    +0.000 A 
ATOM     14  C   UNL     1      -1.630  11.503  20.658  0.00  0.00    +0.000 A 
ATOM     15 BR   UNL     1      -2.492  12.666  21.914  0.00  0.00    +0.000 Br
ATOM     16  C   UNL     1      -1.949  11.679  19.310  0.00  0.00    +0.000 A 
ATOM     17  C   UNL     1      -1.402  10.849  18.353  0.00  0.00    +0.000 A 
ATOM     18  C   UNL     1      -0.480   9.874  18.735  0.00  0.00    +0.000 A 
ATOM     19  C   UNL     1      -0.006   9.745  20.067  0.00  0.00    +0.000 A 
BRANCH  16  20
ATOM     20  O   UNL     1      -2.802  12.654  18.871  0.00  0.00    +0.000 OA
ATOM     21  H   UNL     1      -2.545  13.484  19.316  0.00  0.00    +0.000 HD
ENDBRANCH  16  20
ENDBRANCH   5   9
BRANCH   1  22
ATOM     22  N   UNL     1       4.523   5.966  16.811  0.00  0.00    +0.000 N 
ATOM     23  H   UNL     1       4.466   6.244  15.833  0.00  0.00    +0.000 HD
BRANCH  22  24
ATOM     24  C   UNL     1       4.717   4.520  16.993  0.00  0.00    +0.000 C 
BRANCH  24  25
ATOM     25  C   UNL     1       5.834   3.994  16.098  0.00  0.00    +0.000 C 
BRANCH  25  27
ATOM     26  O   UNL     1       7.971   4.342  17.184  0.00  0.00    +0.000 OA
ATOM     27  C   UNL     1       7.130   4.699  16.371  0.00  0.00    +0.000 C 
BRANCH  27  28
ATOM     28  O   UNL     1       7.281   5.809  15.611  0.00  0.00    +0.000 OA
ATOM     29  H   UNL     1       7.080   5.686  14.663  0.00  0.00    +0.000 HD
ENDBRANCH  27  28
ENDBRANCH  25  27
ENDBRANCH  24  25
ENDBRANCH  22  24
ENDBRANCH   1  22
TORSDOF 7
ENDMDL
MODEL 5
REMARK VINA RESULT:      -6.8      1.328      2.335
REMARK  Name = 
REMARK  7 active torsions:
REMARK  status: ('A' for Active; 'I' for Inactive)
REMARK    1  A    between atoms: C_2  and  O_3
REMARK    2  A    between atoms: C_2  and  C_4
REMARK    3  A    between atoms: C_4  and  C_5
REMARK    4  A    between atoms: C_5  and  N_6
REMARK    5  A    between atoms: N_6  and  C_7
REMARK    6  A    between atoms: C_11  and  C_12
REMARK    7  A    between atoms: C_19  and  O_20
REMARK                            x       y       z     vdW  Elec       q    Type
REMARK                         _______ _______ _______ _____ _____    ______ ____
ROOT
ATOM      1  C   UNL     1       5.644   4.147  15.476  0.00  0.00    +0.000 A 
ATOM      2  C   UNL     1       5.827   5.426  15.985  0.00  0.00    +0.000 A 
ATOM      3  C   UNL     1       5.084   5.901  17.078  0.00  0.00    +0.000 A 
ATOM      4 CL   UNL     1       5.663   7.414  17.717  0.00  0.00    +0.000 Cl
ATOM      5  C   UNL     1       3.994   5.178  17.616  0.00  0.00    +0.000 A 
ATOM      6  C   UNL     1       3.703   3.963  16.951  0.00  0.00    +0.000 A 
ATOM      7 CL   UNL     1       2.258   3.041  17.239  0.00  0.00    +0.000 Cl
ATOM      8  C   UNL     1       4.545   3.437  15.951  0.00  0.00    +0.000 A 
ENDROOT
BRANCH   5   9
ATOM      9  C   UNL     1       3.181   5.710  18.769  0.00  0.00    +0.000 A 
ATOM     10  C   UNL     1       3.114   4.926  19.940  0.00  0.00    +0.000 A 
ATOM     11  C   UNL     1       2.351   5.296  21.036  0.00  0.00    +0.000 A 
ATOM     12  C   UNL     1       1.738   6.538  21.051  0.00  0.00    +0.000 A 
ATOM     13  C   UNL     1       1.837   7.428  19.961  0.00  0.00    +0.000 A 
ATOM     14  C   UNL     1       1.320   8.753  20.016  0.00  0.00    +0.000 A 
ATOM     15 BR   UNL     1       0.531   9.476  21.605  0.00  0.00    +0.000 Br
ATOM     16  C   UNL     1       1.407   9.602  18.910  0.00  0.00    +0.000 A 
ATOM     17  C   UNL     1       1.922   9.137  17.717  0.00  0.00    +0.000 A 
ATOM     18  C   UNL     1       2.413   7.832  17.642  0.00  0.00    +0.000 A 
ATOM     19  C   UNL     1       2.486   6.974  18.770  0.00  0.00    +0.000 A 
BRANCH  16  20
ATOM     20  O   UNL     1       0.995  10.905  18.941  0.00  0.00    +0.000 OA
ATOM     21  H   UNL     1       1.547  11.367  19.600  0.00  0.00    +0.000 HD
ENDBRANCH  16  20
ENDBRANCH   5   9
BRANCH   1  22
ATOM     22  N   UNL     1       6.437   3.611  14.466  0.00  0.00    +0.000 N 
ATOM     23  H   UNL     1       7.437   3.685  14.641  0.00  0.00    +0.000 HD
BRANCH  22  24
ATOM     24  C   UNL     1       6.078   3.803  13.054  0.00  0.00    +0.000 C 
BRANCH  24  25
ATOM     25  C   UNL     1       7.300   4.161  12.215  0.00  0.00    +0.000 C 
BRANCH  25  27
ATOM     26  O   UNL     1       8.381   5.628  13.811  0.00  0.00    +0.000 OA
ATOM     27  C   UNL     1       7.934   5.437  12.689  0.00  0.00    +0.000 C 
BRANCH  27  28
ATOM     28  O   UNL     1       7.956   6.388  11.726  0.00  0.00    +0.000 OA
ATOM     29  H   UNL     1       7.474   6.154  10.909  0.00  0.00    +0.000 HD
ENDBRANCH  27  28
ENDBRANCH  25  27
ENDBRANCH  24  25
ENDBRANCH  22  24
ENDBRANCH   1  22
TORSDOF 7
ENDMDL
MODEL 6
REMARK VINA RESULT:      -6.7      3.389      4.866
REMARK  Name = 
REMARK  7 active torsions:
REMARK  status: ('A' for Active; 'I' for Inactive)
REMARK    1  A    between atoms: C_2  and  O_3
REMARK    2  A    between atoms: C_2  and  C_4
REMARK    3  A    between atoms: C_4  and  C_5
REMARK    4  A    between atoms: C_5  and  N_6
REMARK    5  A    between atoms: N_6  and  C_7
REMARK    6  A    between atoms: C_11  and  C_12
REMARK    7  A    between atoms: C_19  and  O_20
REMARK                            x       y       z     vdW  Elec       q    Type
REMARK                         _______ _______ _______ _____ _____    ______ ____
ROOT
ATOM      1  C   UNL     1       3.548   6.768  17.810  0.00  0.00    +0.000 A 
ATOM      2  C   UNL     1       2.950   6.380  19.003  0.00  0.00    +0.000 A 
ATOM      3  C   UNL     1       2.019   7.197  19.665  0.00  0.00    +0.000 A 
ATOM      4 CL   UNL     1       1.198   6.405  20.980  0.00  0.00    +0.000 Cl
ATOM      5  C   UNL     1       1.761   8.526  19.255  0.00  0.00    +0.000 A 
ATOM      6  C   UNL     1       2.531   8.966  18.151  0.00  0.00    +0.000 A 
ATOM      7 CL   UNL     1       2.603  10.625  17.640  0.00  0.00    +0.000 Cl
ATOM      8  C   UNL     1       3.353   8.088  17.415  0.00  0.00    +0.000 A 
ENDROOT
BRANCH   5   9
ATOM      9  C   UNL     1       0.784   9.408  19.991  0.00  0.00    +0.000 A 
ATOM     10  C   UNL     1       1.053   9.694  21.347  0.00  0.00    +0.000 A 
ATOM     11  C   UNL     1       0.193  10.448  22.128  0.00  0.00    +0.000 A 
ATOM     12  C   UNL     1      -0.899  11.063  21.540  0.00  0.00    +0.000 A 
ATOM     13  C   UNL     1      -1.187  10.912  20.167  0.00  0.00    +0.000 A 
ATOM     14  C   UNL     1      -2.229  11.639  19.526  0.00  0.00    +0.000 A 
ATOM     15 BR   UNL     1      -3.272  12.955  20.449  0.00  0.00    +0.000 Br
ATOM     16  C   UNL     1      -2.509  11.446  18.172  0.00  0.00    +0.000 A 
ATOM     17  C   UNL     1      -1.830  10.484  17.453  0.00  0.00    +0.000 A 
ATOM     18  C   UNL     1      -0.819   9.748  18.073  0.00  0.00    +0.000 A 
ATOM     19  C   UNL     1      -0.392  10.000  19.403  0.00  0.00    +0.000 A 
BRANCH  16  20
ATOM     20  O   UNL     1      -3.448  12.176  17.497  0.00  0.00    +0.000 OA
ATOM     21  H   UNL     1      -3.684  11.673  16.695  0.00  0.00    +0.000 HD
ENDBRANCH  16  20
ENDBRANCH   5   9
BRANCH   1  22
ATOM     22  N   UNL     1       4.389   5.938  17.078  0.00  0.00    +0.000 N 
ATOM     23  H   UNL     1       4.191   5.923  16.079  0.00  0.00    +0.000 HD
BRANCH  22  24
ATOM     24  C   UNL     1       4.793   4.629  17.610  0.00  0.00    +0.000 C 
BRANCH  24  25
ATOM     25  C   UNL     1       6.150   4.707  18.302  0.00  0.00    +0.000 C 
BRANCH  25  27
ATOM     26  O   UNL     1       7.248   5.331  16.235  0.00  0.00    +0.000 OA
ATOM     27  C   UNL     1       7.271   4.737  17.303  0.00  0.00    +0.000 C 
BRANCH  27  28
ATOM     28  O   UNL     1       8.341   4.014  17.709  0.00  0.00    +0.000 OA
ATOM     29  H   UNL     1       8.718   4.290  18.567  0.00  0.00    +0.000 HD
ENDBRANCH  27  28
ENDBRANCH  25  27
ENDBRANCH  24  25
ENDBRANCH  22  24
ENDBRANCH   1  22
TORSDOF 7
ENDMDL
MODEL 7
REMARK VINA RESULT:      -6.7      3.637      5.148
REMARK  Name = 
REMARK  7 active torsions:
REMARK  status: ('A' for Active; 'I' for Inactive)
REMARK    1  A    between atoms: C_2  and  O_3
REMARK    2  A    between atoms: C_2  and  C_4
REMARK    3  A    between atoms: C_4  and  C_5
REMARK    4  A    between atoms: C_5  and  N_6
REMARK    5  A    between atoms: N_6  and  C_7
REMARK    6  A    between atoms: C_11  and  C_12
REMARK    7  A    between atoms: C_19  and  O_20
REMARK                            x       y       z     vdW  Elec       q    Type
REMARK                         _______ _______ _______ _____ _____    ______ ____
ROOT
ATOM      1  C   UNL     1       3.467   6.737  17.981  0.00  0.00    +0.000 A 
ATOM      2  C   UNL     1       2.882   6.417  19.201  0.00  0.00    +0.000 A 
ATOM      3  C   UNL     1       1.957   7.269  19.825  0.00  0.00    +0.000 A 
ATOM      4 CL   UNL     1       1.152   6.553  21.191  0.00  0.00    +0.000 Cl
ATOM      5  C   UNL     1       1.692   8.573  19.342  0.00  0.00    +0.000 A 
ATOM      6  C   UNL     1       2.451   8.950  18.207  0.00  0.00    +0.000 A 
ATOM      7 CL   UNL     1       2.514  10.577  17.602  0.00  0.00    +0.000 Cl
ATOM      8  C   UNL     1       3.266   8.033  17.514  0.00  0.00    +0.000 A 
ENDROOT
BRANCH   5   9
ATOM      9  C   UNL     1       0.722   9.494  20.037  0.00  0.00    +0.000 A 
ATOM     10  C   UNL     1       1.002   9.853  21.373  0.00  0.00    +0.000 A 
ATOM     11  C   UNL     1       0.149  10.649  22.120  0.00  0.00    +0.000 A 
ATOM     12  C   UNL     1      -0.948  11.233  21.507  0.00  0.00    +0.000 A 
ATOM     13  C   UNL     1      -1.246  11.008  20.147  0.00  0.00    +0.000 A 
ATOM     14  C   UNL     1      -2.293  11.701  19.476  0.00  0.00    +0.000 A 
ATOM     15 BR   UNL     1      -3.327  13.066  20.335  0.00  0.00    +0.000 Br
ATOM     16  C   UNL     1      -2.583  11.435  18.136  0.00  0.00    +0.000 A 
ATOM     17  C   UNL     1      -1.910  10.435  17.465  0.00  0.00    +0.000 A 
ATOM     18  C   UNL     1      -0.896   9.732  18.116  0.00  0.00    +0.000 A 
ATOM     19  C   UNL     1      -0.458  10.056  19.427  0.00  0.00    +0.000 A 
BRANCH  16  20
ATOM     20  O   UNL     1      -3.527  12.129  17.430  0.00  0.00    +0.000 OA
ATOM     21  H   UNL     1      -3.209  12.194  16.510  0.00  0.00    +0.000 HD
ENDBRANCH  16  20
ENDBRANCH   5   9
BRANCH   1  22
ATOM     22  N   UNL     1       4.302   5.867  17.288  0.00  0.00    +0.000 N 
ATOM     23  H   UNL     1       4.395   4.950  17.720  0.00  0.00    +0.000 HD
BRANCH  22  24
ATOM     24  C   UNL     1       5.549   6.354  16.683  0.00  0.00    +0.000 C 
BRANCH  24  25
ATOM     25  C   UNL     1       6.647   6.515  17.728  0.00  0.00    +0.000 C 
BRANCH  25  27
ATOM     26  O   UNL     1       6.761   5.336  19.841  0.00  0.00    +0.000 OA
ATOM     27  C   UNL     1       6.734   5.309  18.619  0.00  0.00    +0.000 C 
BRANCH  27  28
ATOM     28  O   UNL     1       6.790   4.154  17.916  0.00  0.00    +0.000 OA
ATOM     29  H   UNL     1       7.328   3.451  18.328  0.00  0.00    +0.000 HD
ENDBRANCH  27  28
ENDBRANCH  25  27
ENDBRANCH  24  25
ENDBRANCH  22  24
ENDBRANCH   1  22
TORSDOF 7
ENDMDL
MODEL 8
REMARK VINA RESULT:      -6.7      3.655      5.363
REMARK  Name = 
REMARK  7 active torsions:
REMARK  status: ('A' for Active; 'I' for Inactive)
REMARK    1  A    between atoms: C_2  and  O_3
REMARK    2  A    between atoms: C_2  and  C_4
REMARK    3  A    between atoms: C_4  and  C_5
REMARK    4  A    between atoms: C_5  and  N_6
REMARK    5  A    between atoms: N_6  and  C_7
REMARK    6  A    between atoms: C_11  and  C_12
REMARK    7  A    between atoms: C_19  and  O_20
REMARK                            x       y       z     vdW  Elec       q    Type
REMARK                         _______ _______ _______ _____ _____    ______ ____
ROOT
ATOM      1  C   UNL     1       3.693   6.944  18.078  0.00  0.00    +0.000 A 
ATOM      2  C   UNL     1       3.336   8.187  17.572  0.00  0.00    +0.000 A 
ATOM      3  C   UNL     1       2.441   9.033  18.249  0.00  0.00    +0.000 A 
ATOM      4 CL   UNL     1       2.351  10.639  17.582  0.00  0.00    +0.000 Cl
ATOM      5  C   UNL     1       1.721   8.606  19.389  0.00  0.00    +0.000 A 
ATOM      6  C   UNL     1       1.957   7.262  19.769  0.00  0.00    +0.000 A 
ATOM      7 CL   UNL     1       0.996   6.425  20.951  0.00  0.00    +0.000 Cl
ATOM      8  C   UNL     1       2.961   6.479  19.166  0.00  0.00    +0.000 A 
ENDROOT
BRANCH   5   9
ATOM      9  C   UNL     1       0.738   9.508  20.090  0.00  0.00    +0.000 A 
ATOM     10  C   UNL     1       1.004   9.847  21.434  0.00  0.00    +0.000 A 
ATOM     11  C   UNL     1       0.138  10.624  22.186  0.00  0.00    +0.000 A 
ATOM     12  C   UNL     1      -0.959  11.208  21.575  0.00  0.00    +0.000 A 
ATOM     13  C   UNL     1      -1.244  11.003  20.209  0.00  0.00    +0.000 A 
ATOM     14  C   UNL     1      -2.292  11.697  19.540  0.00  0.00    +0.000 A 
ATOM     15 BR   UNL     1      -3.345  13.040  20.412  0.00  0.00    +0.000 Br
ATOM     16  C   UNL     1      -2.569  11.451  18.194  0.00  0.00    +0.000 A 
ATOM     17  C   UNL     1      -1.882  10.467  17.513  0.00  0.00    +0.000 A 
ATOM     18  C   UNL     1      -0.867   9.763  18.161  0.00  0.00    +0.000 A 
ATOM     19  C   UNL     1      -0.442  10.069  19.480  0.00  0.00    +0.000 A 
BRANCH  16  20
ATOM     20  O   UNL     1      -3.513  12.148  17.492  0.00  0.00    +0.000 OA
ATOM     21  H   UNL     1      -3.949  12.757  18.118  0.00  0.00    +0.000 HD
ENDBRANCH  16  20
ENDBRANCH   5   9
BRANCH   1  22
ATOM     22  N   UNL     1       4.656   6.132  17.487  0.00  0.00    +0.000 N 
ATOM     23  H   UNL     1       4.862   5.284  18.011  0.00  0.00    +0.000 HD
BRANCH  22  24
ATOM     24  C   UNL     1       5.840   6.724  16.850  0.00  0.00    +0.000 C 
BRANCH  24  25
ATOM     25  C   UNL     1       7.091   6.508  17.695  0.00  0.00    +0.000 C 
BRANCH  25  27
ATOM     26  O   UNL     1       6.749   5.367  19.804  0.00  0.00    +0.000 OA
ATOM     27  C   UNL     1       6.941   5.318  18.598  0.00  0.00    +0.000 C 
BRANCH  27  28
ATOM     28  O   UNL     1       7.051   4.147  17.927  0.00  0.00    +0.000 OA
ATOM     29  H   UNL     1       6.217   3.646  17.840  0.00  0.00    +0.000 HD
ENDBRANCH  27  28
ENDBRANCH  25  27
ENDBRANCH  24  25
ENDBRANCH  22  24
ENDBRANCH   1  22
TORSDOF 7
ENDMDL
MODEL 9
REMARK VINA RESULT:      -6.6      3.036      4.265
REMARK  Name = 
REMARK  7 active torsions:
REMARK  status: ('A' for Active; 'I' for Inactive)
REMARK    1  A    between atoms: C_2  and  O_3
REMARK    2  A    between atoms: C_2  and  C_4
REMARK    3  A    between atoms: C_4  and  C_5
REMARK    4  A    between atoms: C_5  and  N_6
REMARK    5  A    between atoms: N_6  and  C_7
REMARK    6  A    between atoms: C_11  and  C_12
REMARK    7  A    between atoms: C_19  and  O_20
REMARK                            x       y       z     vdW  Elec       q    Type
REMARK                         _______ _______ _______ _____ _____    ______ ____
ROOT
ATOM      1  C   UNL     1       3.493   6.480  17.743  0.00  0.00    +0.000 A 
ATOM      2  C   UNL     1       3.026   5.987  18.954  0.00  0.00    +0.000 A 
ATOM      3  C   UNL     1       2.185   6.742  19.787  0.00  0.00    +0.000 A 
ATOM      4 CL   UNL     1       1.505   5.836  21.109  0.00  0.00    +0.000 Cl
ATOM      5  C   UNL     1       1.901   8.104  19.531  0.00  0.00    +0.000 A 
ATOM      6  C   UNL     1       2.551   8.641  18.392  0.00  0.00    +0.000 A 
ATOM      7 CL   UNL     1       2.588  10.340  18.029  0.00  0.00    +0.000 Cl
ATOM      8  C   UNL     1       3.274   7.832  17.493  0.00  0.00    +0.000 A 
ENDROOT
BRANCH   5   9
ATOM      9  C   UNL     1       1.025   8.918  20.448  0.00  0.00    +0.000 A 
ATOM     10  C   UNL     1       1.315   8.888  21.829  0.00  0.00    +0.000 A 
ATOM     11  C   UNL     1       0.539   9.556  22.763  0.00  0.00    +0.000 A 
ATOM     12  C   UNL     1      -0.474  10.395  22.331  0.00  0.00    +0.000 A 
ATOM     13  C   UNL     1      -0.767  10.563  20.962  0.00  0.00    +0.000 A 
ATOM     14  C   UNL     1      -1.718  11.516  20.501  0.00  0.00    +0.000 A 
ATOM     15 BR   UNL     1      -2.613  12.722  21.691  0.00  0.00    +0.000 Br
ATOM     16  C   UNL     1      -2.009  11.638  19.141  0.00  0.00    +0.000 A 
ATOM     17  C   UNL     1      -1.436  10.775  18.229  0.00  0.00    +0.000 A 
ATOM     18  C   UNL     1      -0.518   9.821  18.668  0.00  0.00    +0.000 A 
ATOM     19  C   UNL     1      -0.074   9.745  20.014  0.00  0.00    +0.000 A 
BRANCH  16  20
ATOM     20  O   UNL     1      -2.856  12.591  18.646  0.00  0.00    +0.000 OA
ATOM     21  H   UNL     1      -3.454  12.852  19.371  0.00  0.00    +0.000 HD
ENDBRANCH  16  20
ENDBRANCH   5   9
BRANCH   1  22
ATOM     22  N   UNL     1       4.237   5.717  16.848  0.00  0.00    +0.000 N 
ATOM     23  H   UNL     1       4.571   4.836  17.233  0.00  0.00    +0.000 HD
BRANCH  22  24
ATOM     24  C   UNL     1       5.200   6.358  15.942  0.00  0.00    +0.000 C 
BRANCH  24  25
ATOM     25  C   UNL     1       5.931   5.327  15.090  0.00  0.00    +0.000 C 
BRANCH  25  27
ATOM     26  O   UNL     1       7.789   4.477  16.391  0.00  0.00    +0.000 OA
ATOM     27  C   UNL     1       6.660   4.330  15.944  0.00  0.00    +0.000 C 
BRANCH  27  28
ATOM     28  O   UNL     1       5.927   3.216  16.173  0.00  0.00    +0.000 OA
ATOM     29  H   UNL     1       5.086   3.171  15.677  0.00  0.00    +0.000 HD
ENDBRANCH  27  28
ENDBRANCH  25  27
ENDBRANCH  24  25
ENDBRANCH  22  24
ENDBRANCH   1  22
TORSDOF 7
ENDMDL
