MODEL 1
REMARK VINA RESULT:      -5.2      0.000      0.000
REMARK  Name = 
REMARK  16 active torsions:
REMARK  status: ('A' for Active; 'I' for Inactive)
REMARK    1  A    between atoms: C_1  and  C_2
REMARK    2  A    between atoms: C_2  and  C_3
REMARK    3  A    between atoms: C_6  and  C_7
REMARK    4  A    between atoms: N_9  and  S_10
REMARK    5  A    between atoms: N_9  and  N_15
REMARK    6  A    between atoms: S_10  and  O_11
REMARK    7  A    between atoms: O_11  and  C_12
REMARK    8  A    between atoms: C_12  and  C_13
REMARK    9  A    between atoms: C_12  and  C_14
REMARK   10  A    between atoms: N_15  and  C_26
REMARK   11  A    between atoms: C_16  and  C_18
REMARK   12  A    between atoms: C_20  and  C_21
REMARK   13  A    between atoms: C_23  and  C_24
REMARK   14  A    between atoms: C_26  and  C_27
REMARK   15  A    between atoms: C_26  and  C_28
REMARK   16  A    between atoms: C_26  and  C_29
REMARK                            x       y       z     vdW  Elec       q    Type
REMARK                         _______ _______ _______ _____ _____    ______ ____
ROOT
ATOM      1  C   UNL     1      -0.548  11.300  22.556  0.00  0.00    +0.000 C 
ATOM      2  O   UNL     1      -0.088  10.652  23.499  0.00  0.00    +0.000 OA
ATOM      3  N   UNL     1      -0.087  11.223  21.215  0.00  0.00    +0.000 N 
ENDROOT
BRANCH   1   7
ATOM      4  C   UNL     1      -3.580  14.145  23.541  0.00  0.00    +0.000 A 
ATOM      5  C   UNL     1      -3.944  12.883  23.049  0.00  0.00    +0.000 A 
ATOM      6  C   UNL     1      -2.966  11.939  22.733  0.00  0.00    +0.000 A 
ATOM      7  C   UNL     1      -1.624  12.241  22.935  0.00  0.00    +0.000 A 
ATOM      8  C   UNL     1      -1.250  13.518  23.386  0.00  0.00    +0.000 A 
ATOM      9  C   UNL     1      -2.224  14.462  23.690  0.00  0.00    +0.000 A 
BRANCH   4  11
ATOM     10  C   UNL     1      -3.981  16.205  24.858  0.00  0.00    +0.000 C 
ATOM     11  C   UNL     1      -4.625  15.133  23.990  0.00  0.00    +0.000 C 
ENDBRANCH   4  11
ENDBRANCH   1   7
BRANCH   3  12
ATOM     12  N   UNL     1      -0.934  11.650  20.084  0.00  0.00    +0.000 N 
ATOM     13  C   UNL     1      -1.774  10.645  19.498  0.00  0.00    +0.000 C 
ATOM     14  O   UNL     1      -1.749   9.485  19.924  0.00  0.00    +0.000 OA
BRANCH  13  15
ATOM     15  C   UNL     1      -2.737  10.870  18.325  0.00  0.00    +0.000 A 
ATOM     16  C   UNL     1      -3.938  11.572  18.393  0.00  0.00    +0.000 A 
ATOM     17  C   UNL     1      -4.764  11.887  17.315  0.00  0.00    +0.000 A 
ATOM     18  C   UNL     1      -5.976  12.732  17.574  0.00  0.00    +0.000 C 
ATOM     19  C   UNL     1      -4.400  11.424  16.066  0.00  0.00    +0.000 A 
ATOM     20  C   UNL     1      -3.232  10.659  15.924  0.00  0.00    +0.000 A 
ATOM     21  C   UNL     1      -2.879  10.109  14.569  0.00  0.00    +0.000 C 
ATOM     22  C   UNL     1      -2.410  10.384  17.047  0.00  0.00    +0.000 A 
ENDBRANCH  13  15
BRANCH  12  23
ATOM     23  C   UNL     1      -0.669  13.062  19.621  0.00  0.00    +0.000 C 
ATOM     24  C   UNL     1       0.482  13.860  20.284  0.00  0.00    +0.000 C 
ATOM     25  C   UNL     1      -0.220  13.023  18.126  0.00  0.00    +0.000 C 
ATOM     26  C   UNL     1      -1.889  13.965  19.990  0.00  0.00    +0.000 C 
ENDBRANCH  12  23
ENDBRANCH   3  12
BRANCH   3  27
ATOM     27  S   UNL     1       1.039   9.921  20.932  0.00  0.00    +0.000 S 
BRANCH  27  28
ATOM     28  O   UNL     1       1.556  10.267  19.378  0.00  0.00    +0.000 OA
BRANCH  28  29
ATOM     29  C   UNL     1       1.966   9.203  18.508  0.00  0.00    +0.000 C 
ATOM     30  C   UNL     1       2.163   7.867  19.214  0.00  0.00    +0.000 C 
ATOM     31  C   UNL     1       0.855   9.036  17.460  0.00  0.00    +0.000 C 
ENDBRANCH  28  29
ENDBRANCH  27  28
ENDBRANCH   3  27
TORSDOF 8
ENDMDL
MODEL 2
REMARK VINA RESULT:      -5.2      0.482      1.889
REMARK  Name = 
REMARK  16 active torsions:
REMARK  status: ('A' for Active; 'I' for Inactive)
REMARK    1  A    between atoms: C_1  and  C_2
REMARK    2  A    between atoms: C_2  and  C_3
REMARK    3  A    between atoms: C_6  and  C_7
REMARK    4  A    between atoms: N_9  and  S_10
REMARK    5  A    between atoms: N_9  and  N_15
REMARK    6  A    between atoms: S_10  and  O_11
REMARK    7  A    between atoms: O_11  and  C_12
REMARK    8  A    between atoms: C_12  and  C_13
REMARK    9  A    between atoms: C_12  and  C_14
REMARK   10  A    between atoms: N_15  and  C_26
REMARK   11  A    between atoms: C_16  and  C_18
REMARK   12  A    between atoms: C_20  and  C_21
REMARK   13  A    between atoms: C_23  and  C_24
REMARK   14  A    between atoms: C_26  and  C_27
REMARK   15  A    between atoms: C_26  and  C_28
REMARK   16  A    between atoms: C_26  and  C_29
REMARK                            x       y       z     vdW  Elec       q    Type
REMARK                         _______ _______ _______ _____ _____    ______ ____
ROOT
ATOM      1  C   UNL     1      -0.532  11.191  22.615  0.00  0.00    +0.000 C 
ATOM      2  O   UNL     1      -0.164  10.516  23.579  0.00  0.00    +0.000 OA
ATOM      3  N   UNL     1      -0.001  11.088  21.302  0.00  0.00    +0.000 N 
ENDROOT
BRANCH   1   7
ATOM      4  C   UNL     1      -3.445  14.207  23.434  0.00  0.00    +0.000 A 
ATOM      5  C   UNL     1      -3.858  12.948  22.974  0.00  0.00    +0.000 A 
ATOM      6  C   UNL     1      -2.919  11.949  22.712  0.00  0.00    +0.000 A 
ATOM      7  C   UNL     1      -1.569  12.194  22.936  0.00  0.00    +0.000 A 
ATOM      8  C   UNL     1      -1.144  13.466  23.355  0.00  0.00    +0.000 A 
ATOM      9  C   UNL     1      -2.079  14.465  23.604  0.00  0.00    +0.000 A 
BRANCH   4  11
ATOM     10  C   UNL     1      -4.641  16.243  22.680  0.00  0.00    +0.000 C 
ATOM     11  C   UNL     1      -4.451  15.258  23.825  0.00  0.00    +0.000 C 
ENDBRANCH   4  11
ENDBRANCH   1   7
BRANCH   3  12
ATOM     12  N   UNL     1      -0.757  11.565  20.126  0.00  0.00    +0.000 N 
ATOM     13  C   UNL     1      -1.657  10.627  19.519  0.00  0.00    +0.000 C 
ATOM     14  O   UNL     1      -1.754   9.478  19.965  0.00  0.00    +0.000 OA
BRANCH  13  15
ATOM     15  C   UNL     1      -2.544  10.912  18.300  0.00  0.00    +0.000 A 
ATOM     16  C   UNL     1      -2.297  10.466  17.004  0.00  0.00    +0.000 A 
ATOM     17  C   UNL     1      -3.152  10.613  15.912  0.00  0.00    +0.000 A 
ATOM     18  C   UNL     1      -2.751   9.984  14.610  0.00  0.00    +0.000 C 
ATOM     19  C   UNL     1      -4.330  11.307  16.103  0.00  0.00    +0.000 A 
ATOM     20  C   UNL     1      -4.624  11.839  17.368  0.00  0.00    +0.000 A 
ATOM     21  C   UNL     1      -5.881  12.644  17.548  0.00  0.00    +0.000 C 
ATOM     22  C   UNL     1      -3.735  11.642  18.456  0.00  0.00    +0.000 A 
ENDBRANCH  13  15
BRANCH  12  23
ATOM     23  C   UNL     1      -0.347  12.938  19.654  0.00  0.00    +0.000 C 
ATOM     24  C   UNL     1      -1.324  14.122  19.867  0.00  0.00    +0.000 C 
ATOM     25  C   UNL     1       0.903  13.396  20.470  0.00  0.00    +0.000 C 
ATOM     26  C   UNL     1      -0.238  12.939  18.095  0.00  0.00    +0.000 C 
ENDBRANCH  12  23
ENDBRANCH   3  12
BRANCH   3  27
ATOM     27  S   UNL     1       1.060   9.722  21.076  0.00  0.00    +0.000 S 
BRANCH  27  28
ATOM     28  O   UNL     1       1.332   9.786  19.426  0.00  0.00    +0.000 OA
BRANCH  28  29
ATOM     29  C   UNL     1       1.598   8.579  18.698  0.00  0.00    +0.000 C 
ATOM     30  C   UNL     1       2.662   8.729  17.618  0.00  0.00    +0.000 C 
ATOM     31  C   UNL     1       2.091   7.545  19.722  0.00  0.00    +0.000 C 
ENDBRANCH  28  29
ENDBRANCH  27  28
ENDBRANCH   3  27
TORSDOF 8
ENDMDL
MODEL 3
REMARK VINA RESULT:      -5.2      0.618      2.026
REMARK  Name = 
REMARK  16 active torsions:
REMARK  status: ('A' for Active; 'I' for Inactive)
REMARK    1  A    between atoms: C_1  and  C_2
REMARK    2  A    between atoms: C_2  and  C_3
REMARK    3  A    between atoms: C_6  and  C_7
REMARK    4  A    between atoms: N_9  and  S_10
REMARK    5  A    between atoms: N_9  and  N_15
REMARK    6  A    between atoms: S_10  and  O_11
REMARK    7  A    between atoms: O_11  and  C_12
REMARK    8  A    between atoms: C_12  and  C_13
REMARK    9  A    between atoms: C_12  and  C_14
REMARK   10  A    between atoms: N_15  and  C_26
REMARK   11  A    between atoms: C_16  and  C_18
REMARK   12  A    between atoms: C_20  and  C_21
REMARK   13  A    between atoms: C_23  and  C_24
REMARK   14  A    between atoms: C_26  and  C_27
REMARK   15  A    between atoms: C_26  and  C_28
REMARK   16  A    between atoms: C_26  and  C_29
REMARK                            x       y       z     vdW  Elec       q    Type
REMARK                         _______ _______ _______ _____ _____    ______ ____
ROOT
ATOM      1  C   UNL     1      -0.391  10.917  22.646  0.00  0.00    +0.000 C 
ATOM      2  O   UNL     1      -0.081  10.232  23.623  0.00  0.00    +0.000 OA
ATOM      3  N   UNL     1       0.123  10.738  21.334  0.00  0.00    +0.000 N 
ENDROOT
BRANCH   1   7
ATOM      4  C   UNL     1      -3.170  13.999  23.662  0.00  0.00    +0.000 A 
ATOM      5  C   UNL     1      -1.811  14.310  23.511  0.00  0.00    +0.000 A 
ATOM      6  C   UNL     1      -0.892  13.317  23.168  0.00  0.00    +0.000 A 
ATOM      7  C   UNL     1      -1.332  12.016  22.948  0.00  0.00    +0.000 A 
ATOM      8  C   UNL     1      -2.684  11.688  23.139  0.00  0.00    +0.000 A 
ATOM      9  C   UNL     1      -3.597  12.676  23.492  0.00  0.00    +0.000 A 
BRANCH   4  11
ATOM     10  C   UNL     1      -3.576  16.167  24.791  0.00  0.00    +0.000 C 
ATOM     11  C   UNL     1      -4.189  15.078  23.922  0.00  0.00    +0.000 C 
ENDBRANCH   4  11
ENDBRANCH   1   7
BRANCH   3  12
ATOM     12  N   UNL     1      -0.592  11.256  20.150  0.00  0.00    +0.000 N 
ATOM     13  C   UNL     1      -1.592  10.400  19.580  0.00  0.00    +0.000 C 
ATOM     14  O   UNL     1      -1.804   9.282  20.063  0.00  0.00    +0.000 OA
BRANCH  13  15
ATOM     15  C   UNL     1      -2.459  10.739  18.360  0.00  0.00    +0.000 A 
ATOM     16  C   UNL     1      -2.206  10.325  17.054  0.00  0.00    +0.000 A 
ATOM     17  C   UNL     1      -3.044  10.522  15.958  0.00  0.00    +0.000 A 
ATOM     18  C   UNL     1      -2.642   9.923  14.642  0.00  0.00    +0.000 C 
ATOM     19  C   UNL     1      -4.209  11.236  16.155  0.00  0.00    +0.000 A 
ATOM     20  C   UNL     1      -4.507  11.737  17.432  0.00  0.00    +0.000 A 
ATOM     21  C   UNL     1      -5.749  12.565  17.620  0.00  0.00    +0.000 C 
ATOM     22  C   UNL     1      -3.636  11.490  18.524  0.00  0.00    +0.000 A 
ENDBRANCH  13  15
BRANCH  12  23
ATOM     23  C   UNL     1      -0.046  12.563  19.630  0.00  0.00    +0.000 C 
ATOM     24  C   UNL     1       0.358  12.662  18.138  0.00  0.00    +0.000 C 
ATOM     25  C   UNL     1      -1.163  13.650  19.738  0.00  0.00    +0.000 C 
ATOM     26  C   UNL     1       1.326  12.861  20.316  0.00  0.00    +0.000 C 
ENDBRANCH  12  23
ENDBRANCH   3  12
BRANCH   3  27
ATOM     27  S   UNL     1       1.056   9.277  21.136  0.00  0.00    +0.000 S 
BRANCH  27  28
ATOM     28  O   UNL     1       1.263   9.243  19.475  0.00  0.00    +0.000 OA
BRANCH  28  29
ATOM     29  C   UNL     1       2.315   8.454  18.903  0.00  0.00    +0.000 C 
ATOM     30  C   UNL     1       2.336   7.008  19.382  0.00  0.00    +0.000 C 
ATOM     31  C   UNL     1       2.092   8.456  17.382  0.00  0.00    +0.000 C 
ENDBRANCH  28  29
ENDBRANCH  27  28
ENDBRANCH   3  27
TORSDOF 8
ENDMDL
MODEL 4
REMARK VINA RESULT:      -5.2      2.484      6.297
REMARK  Name = 
REMARK  16 active torsions:
REMARK  status: ('A' for Active; 'I' for Inactive)
REMARK    1  A    between atoms: C_1  and  C_2
REMARK    2  A    between atoms: C_2  and  C_3
REMARK    3  A    between atoms: C_6  and  C_7
REMARK    4  A    between atoms: N_9  and  S_10
REMARK    5  A    between atoms: N_9  and  N_15
REMARK    6  A    between atoms: S_10  and  O_11
REMARK    7  A    between atoms: O_11  and  C_12
REMARK    8  A    between atoms: C_12  and  C_13
REMARK    9  A    between atoms: C_12  and  C_14
REMARK   10  A    between atoms: N_15  and  C_26
REMARK   11  A    between atoms: C_16  and  C_18
REMARK   12  A    between atoms: C_20  and  C_21
REMARK   13  A    between atoms: C_23  and  C_24
REMARK   14  A    between atoms: C_26  and  C_27
REMARK   15  A    between atoms: C_26  and  C_28
REMARK   16  A    between atoms: C_26  and  C_29
REMARK                            x       y       z     vdW  Elec       q    Type
REMARK                         _______ _______ _______ _____ _____    ______ ____
ROOT
ATOM      1  C   UNL     1       1.494  12.449  19.225  0.00  0.00    +0.000 C 
ATOM      2  O   UNL     1       2.406  12.236  18.423  0.00  0.00    +0.000 OA
ATOM      3  N   UNL     1       1.632  13.178  20.436  0.00  0.00    +0.000 N 
ENDROOT
BRANCH   1   7
ATOM      4  C   UNL     1      -2.197  10.688  17.989  0.00  0.00    +0.000 A 
ATOM      5  C   UNL     1      -1.299   9.946  18.769  0.00  0.00    +0.000 A 
ATOM      6  C   UNL     1      -0.094  10.510  19.189  0.00  0.00    +0.000 A 
ATOM      7  C   UNL     1       0.205  11.827  18.858  0.00  0.00    +0.000 A 
ATOM      8  C   UNL     1      -0.670  12.563  18.041  0.00  0.00    +0.000 A 
ATOM      9  C   UNL     1      -1.865  11.996  17.612  0.00  0.00    +0.000 A 
BRANCH   4  11
ATOM     10  C   UNL     1      -4.290  11.126  16.736  0.00  0.00    +0.000 C 
ATOM     11  C   UNL     1      -3.548  10.133  17.620  0.00  0.00    +0.000 C 
ENDBRANCH   4  11
ENDBRANCH   1   7
BRANCH   3  12
ATOM     12  N   UNL     1       0.464  13.781  21.109  0.00  0.00    +0.000 N 
ATOM     13  C   UNL     1      -0.225  12.957  22.059  0.00  0.00    +0.000 C 
ATOM     14  O   UNL     1       0.150  11.796  22.264  0.00  0.00    +0.000 OA
BRANCH  13  15
ATOM     15  C   UNL     1      -1.451  13.382  22.877  0.00  0.00    +0.000 A 
ATOM     16  C   UNL     1      -1.431  14.254  23.963  0.00  0.00    +0.000 A 
ATOM     17  C   UNL     1      -2.548  14.743  24.639  0.00  0.00    +0.000 A 
ATOM     18  C   UNL     1      -2.329  15.749  25.732  0.00  0.00    +0.000 C 
ATOM     19  C   UNL     1      -3.791  14.293  24.244  0.00  0.00    +0.000 A 
ATOM     20  C   UNL     1      -3.891  13.367  23.194  0.00  0.00    +0.000 A 
ATOM     21  C   UNL     1      -5.247  12.838  22.813  0.00  0.00    +0.000 C 
ATOM     22  C   UNL     1      -2.728  12.916  22.518  0.00  0.00    +0.000 A 
ENDBRANCH  13  15
BRANCH  12  23
ATOM     23  C   UNL     1       0.086  15.140  20.573  0.00  0.00    +0.000 C 
ATOM     24  C   UNL     1       0.806  15.670  19.307  0.00  0.00    +0.000 C 
ATOM     25  C   UNL     1      -1.404  15.097  20.105  0.00  0.00    +0.000 C 
ATOM     26  C   UNL     1       0.490  16.237  21.609  0.00  0.00    +0.000 C 
ENDBRANCH  12  23
ENDBRANCH   3  12
BRANCH   3  27
ATOM     27  S   UNL     1       3.164  13.998  20.594  0.00  0.00    +0.000 S 
BRANCH  27  28
ATOM     28  O   UNL     1       3.217  14.279  22.244  0.00  0.00    +0.000 OA
BRANCH  28  29
ATOM     29  C   UNL     1       4.046  15.327  22.763  0.00  0.00    +0.000 C 
ATOM     30  C   UNL     1       5.349  14.837  23.382  0.00  0.00    +0.000 C 
ATOM     31  C   UNL     1       4.389  16.247  21.580  0.00  0.00    +0.000 C 
ENDBRANCH  28  29
ENDBRANCH  27  28
ENDBRANCH   3  27
TORSDOF 8
ENDMDL
MODEL 5
REMARK VINA RESULT:      -5.2      2.658      6.391
REMARK  Name = 
REMARK  16 active torsions:
REMARK  status: ('A' for Active; 'I' for Inactive)
REMARK    1  A    between atoms: C_1  and  C_2
REMARK    2  A    between atoms: C_2  and  C_3
REMARK    3  A    between atoms: C_6  and  C_7
REMARK    4  A    between atoms: N_9  and  S_10
REMARK    5  A    between atoms: N_9  and  N_15
REMARK    6  A    between atoms: S_10  and  O_11
REMARK    7  A    between atoms: O_11  and  C_12
REMARK    8  A    between atoms: C_12  and  C_13
REMARK    9  A    between atoms: C_12  and  C_14
REMARK   10  A    between atoms: N_15  and  C_26
REMARK   11  A    between atoms: C_16  and  C_18
REMARK   12  A    between atoms: C_20  and  C_21
REMARK   13  A    between atoms: C_23  and  C_24
REMARK   14  A    between atoms: C_26  and  C_27
REMARK   15  A    between atoms: C_26  and  C_28
REMARK   16  A    between atoms: C_26  and  C_29
REMARK                            x       y       z     vdW  Elec       q    Type
REMARK                         _______ _______ _______ _____ _____    ______ ____
ROOT
ATOM      1  C   UNL     1       1.812  12.729  19.165  0.00  0.00    +0.000 C 
ATOM      2  O   UNL     1       2.761  12.587  18.390  0.00  0.00    +0.000 OA
ATOM      3  N   UNL     1       1.873  13.420  20.404  0.00  0.00    +0.000 N 
ENDROOT
BRANCH   1   7
ATOM      4  C   UNL     1      -1.809  10.741  18.072  0.00  0.00    +0.000 A 
ATOM      5  C   UNL     1      -1.670  12.116  17.832  0.00  0.00    +0.000 A 
ATOM      6  C   UNL     1      -0.489  12.777  18.173  0.00  0.00    +0.000 A 
ATOM      7  C   UNL     1       0.567  12.063  18.729  0.00  0.00    +0.000 A 
ATOM      8  C   UNL     1       0.419  10.695  19.013  0.00  0.00    +0.000 A 
ATOM      9  C   UNL     1      -0.762  10.039  18.683  0.00  0.00    +0.000 A 
BRANCH   4  11
ATOM     10  C   UNL     1      -3.003   9.844  16.095  0.00  0.00    +0.000 C 
ATOM     11  C   UNL     1      -3.031   9.992  17.610  0.00  0.00    +0.000 C 
ENDBRANCH   4  11
ENDBRANCH   1   7
BRANCH   3  12
ATOM     12  N   UNL     1       0.655  13.945  21.053  0.00  0.00    +0.000 N 
ATOM     13  C   UNL     1      -0.064  13.035  21.898  0.00  0.00    +0.000 C 
ATOM     14  O   UNL     1       0.328  11.870  22.036  0.00  0.00    +0.000 OA
BRANCH  13  15
ATOM     15  C   UNL     1      -1.344  13.370  22.675  0.00  0.00    +0.000 A 
ATOM     16  C   UNL     1      -1.403  14.144  23.832  0.00  0.00    +0.000 A 
ATOM     17  C   UNL     1      -2.566  14.557  24.481  0.00  0.00    +0.000 A 
ATOM     18  C   UNL     1      -2.430  15.466  25.667  0.00  0.00    +0.000 C 
ATOM     19  C   UNL     1      -3.776  14.126  23.975  0.00  0.00    +0.000 A 
ATOM     20  C   UNL     1      -3.798  13.295  22.843  0.00  0.00    +0.000 A 
ATOM     21  C   UNL     1      -5.118  12.783  22.338  0.00  0.00    +0.000 C 
ATOM     22  C   UNL     1      -2.589  12.921  22.202  0.00  0.00    +0.000 A 
ENDBRANCH  13  15
BRANCH  12  23
ATOM     23  C   UNL     1       0.272  15.333  20.602  0.00  0.00    +0.000 C 
ATOM     24  C   UNL     1       1.004  15.948  19.382  0.00  0.00    +0.000 C 
ATOM     25  C   UNL     1      -1.211  15.309  20.113  0.00  0.00    +0.000 C 
ATOM     26  C   UNL     1       0.656  16.363  21.712  0.00  0.00    +0.000 C 
ENDBRANCH  12  23
ENDBRANCH   3  12
BRANCH   3  27
ATOM     27  S   UNL     1       3.358  14.301  20.647  0.00  0.00    +0.000 S 
BRANCH  27  28
ATOM     28  O   UNL     1       3.462  14.316  22.318  0.00  0.00    +0.000 OA
BRANCH  28  29
ATOM     29  C   UNL     1       4.221  15.339  22.978  0.00  0.00    +0.000 C 
ATOM     30  C   UNL     1       5.292  14.804  23.919  0.00  0.00    +0.000 C 
ATOM     31  C   UNL     1       4.911  16.157  21.875  0.00  0.00    +0.000 C 
ENDBRANCH  28  29
ENDBRANCH  27  28
ENDBRANCH   3  27
TORSDOF 8
ENDMDL
MODEL 6
REMARK VINA RESULT:      -5.2      0.997      2.185
REMARK  Name = 
REMARK  16 active torsions:
REMARK  status: ('A' for Active; 'I' for Inactive)
REMARK    1  A    between atoms: C_1  and  C_2
REMARK    2  A    between atoms: C_2  and  C_3
REMARK    3  A    between atoms: C_6  and  C_7
REMARK    4  A    between atoms: N_9  and  S_10
REMARK    5  A    between atoms: N_9  and  N_15
REMARK    6  A    between atoms: S_10  and  O_11
REMARK    7  A    between atoms: O_11  and  C_12
REMARK    8  A    between atoms: C_12  and  C_13
REMARK    9  A    between atoms: C_12  and  C_14
REMARK   10  A    between atoms: N_15  and  C_26
REMARK   11  A    between atoms: C_16  and  C_18
REMARK   12  A    between atoms: C_20  and  C_21
REMARK   13  A    between atoms: C_23  and  C_24
REMARK   14  A    between atoms: C_26  and  C_27
REMARK   15  A    between atoms: C_26  and  C_28
REMARK   16  A    between atoms: C_26  and  C_29
REMARK                            x       y       z     vdW  Elec       q    Type
REMARK                         _______ _______ _______ _____ _____    ______ ____
ROOT
ATOM      1  C   UNL     1      -0.015  10.696  22.294  0.00  0.00    +0.000 C 
ATOM      2  O   UNL     1       0.284  10.029  23.287  0.00  0.00    +0.000 OA
ATOM      3  N   UNL     1       0.449  10.442  20.976  0.00  0.00    +0.000 N 
ENDROOT
BRANCH   1   7
ATOM      4  C   UNL     1      -2.560  13.981  23.286  0.00  0.00    +0.000 A 
ATOM      5  C   UNL     1      -1.236  14.222  22.889  0.00  0.00    +0.000 A 
ATOM      6  C   UNL     1      -0.396  13.160  22.551  0.00  0.00    +0.000 A 
ATOM      7  C   UNL     1      -0.882  11.858  22.581  0.00  0.00    +0.000 A 
ATOM      8  C   UNL     1      -2.193  11.606  23.020  0.00  0.00    +0.000 A 
ATOM      9  C   UNL     1      -3.026  12.663  23.367  0.00  0.00    +0.000 A 
BRANCH   4  11
ATOM     10  C   UNL     1      -4.898  14.762  23.030  0.00  0.00    +0.000 C 
ATOM     11  C   UNL     1      -3.511  15.120  23.546  0.00  0.00    +0.000 C 
ENDBRANCH   4  11
ENDBRANCH   1   7
BRANCH   3  12
ATOM     12  N   UNL     1      -0.268  10.959  19.794  0.00  0.00    +0.000 N 
ATOM     13  C   UNL     1      -1.443  10.240  19.393  0.00  0.00    +0.000 C 
ATOM     14  O   UNL     1      -1.797   9.229  20.010  0.00  0.00    +0.000 OA
BRANCH  13  15
ATOM     15  C   UNL     1      -2.343  10.606  18.205  0.00  0.00    +0.000 A 
ATOM     16  C   UNL     1      -2.126  10.221  16.884  0.00  0.00    +0.000 A 
ATOM     17  C   UNL     1      -2.994  10.442  15.815  0.00  0.00    +0.000 A 
ATOM     18  C   UNL     1      -2.628   9.872  14.476  0.00  0.00    +0.000 C 
ATOM     19  C   UNL     1      -4.154  11.150  16.060  0.00  0.00    +0.000 A 
ATOM     20  C   UNL     1      -4.417  11.622  17.356  0.00  0.00    +0.000 A 
ATOM     21  C   UNL     1      -5.653  12.443  17.597  0.00  0.00    +0.000 C 
ATOM     22  C   UNL     1      -3.516  11.351  18.417  0.00  0.00    +0.000 A 
ENDBRANCH  13  15
BRANCH  12  23
ATOM     23  C   UNL     1       0.442  12.093  19.096  0.00  0.00    +0.000 C 
ATOM     24  C   UNL     1       1.652  12.760  19.798  0.00  0.00    +0.000 C 
ATOM     25  C   UNL     1       1.088  11.547  17.783  0.00  0.00    +0.000 C 
ATOM     26  C   UNL     1      -0.525  13.315  18.977  0.00  0.00    +0.000 C 
ENDBRANCH  12  23
ENDBRANCH   3  12
BRANCH   3  27
ATOM     27  S   UNL     1       1.291   8.924  20.806  0.00  0.00    +0.000 S 
BRANCH  27  28
ATOM     28  O   UNL     1       1.752   8.981  19.198  0.00  0.00    +0.000 OA
BRANCH  28  29
ATOM     29  C   UNL     1       2.102   7.772  18.511  0.00  0.00    +0.000 C 
ATOM     30  C   UNL     1       3.275   7.922  17.551  0.00  0.00    +0.000 C 
ATOM     31  C   UNL     1       2.487   6.747  19.589  0.00  0.00    +0.000 C 
ENDBRANCH  28  29
ENDBRANCH  27  28
ENDBRANCH   3  27
TORSDOF 8
ENDMDL
MODEL 7
REMARK VINA RESULT:      -5.1      2.112      4.442
REMARK  Name = 
REMARK  16 active torsions:
REMARK  status: ('A' for Active; 'I' for Inactive)
REMARK    1  A    between atoms: C_1  and  C_2
REMARK    2  A    between atoms: C_2  and  C_3
REMARK    3  A    between atoms: C_6  and  C_7
REMARK    4  A    between atoms: N_9  and  S_10
REMARK    5  A    between atoms: N_9  and  N_15
REMARK    6  A    between atoms: S_10  and  O_11
REMARK    7  A    between atoms: O_11  and  C_12
REMARK    8  A    between atoms: C_12  and  C_13
REMARK    9  A    between atoms: C_12  and  C_14
REMARK   10  A    between atoms: N_15  and  C_26
REMARK   11  A    between atoms: C_16  and  C_18
REMARK   12  A    between atoms: C_20  and  C_21
REMARK   13  A    between atoms: C_23  and  C_24
REMARK   14  A    between atoms: C_26  and  C_27
REMARK   15  A    between atoms: C_26  and  C_28
REMARK   16  A    between atoms: C_26  and  C_29
REMARK                            x       y       z     vdW  Elec       q    Type
REMARK                         _______ _______ _______ _____ _____    ______ ____
ROOT
ATOM      1  C   UNL     1      -0.921  11.418  22.484  0.00  0.00    +0.000 C 
ATOM      2  O   UNL     1      -1.178  10.333  23.010  0.00  0.00    +0.000 OA
ATOM      3  N   UNL     1      -0.007  11.605  21.414  0.00  0.00    +0.000 N 
ENDROOT
BRANCH   1   7
ATOM      4  C   UNL     1      -2.987  14.636  24.390  0.00  0.00    +0.000 A 
ATOM      5  C   UNL     1      -1.616  14.752  24.122  0.00  0.00    +0.000 A 
ATOM      6  C   UNL     1      -0.929  13.714  23.490  0.00  0.00    +0.000 A 
ATOM      7  C   UNL     1      -1.615  12.570  23.098  0.00  0.00    +0.000 A 
ATOM      8  C   UNL     1      -2.979  12.428  23.402  0.00  0.00    +0.000 A 
ATOM      9  C   UNL     1      -3.660  13.458  24.042  0.00  0.00    +0.000 A 
BRANCH   4  11
ATOM     10  C   UNL     1      -4.962  16.101  24.082  0.00  0.00    +0.000 C 
ATOM     11  C   UNL     1      -3.765  15.788  24.969  0.00  0.00    +0.000 C 
ENDBRANCH   4  11
ENDBRANCH   1   7
BRANCH   3  12
ATOM     12  N   UNL     1      -0.073  12.797  20.544  0.00  0.00    +0.000 N 
ATOM     13  C   UNL     1       0.951  13.784  20.730  0.00  0.00    +0.000 C 
ATOM     14  O   UNL     1       1.816  13.628  21.599  0.00  0.00    +0.000 OA
BRANCH  13  15
ATOM     15  C   UNL     1       1.080  15.088  19.933  0.00  0.00    +0.000 A 
ATOM     16  C   UNL     1       0.334  16.244  20.155  0.00  0.00    +0.000 A 
ATOM     17  C   UNL     1       0.521  17.472  19.522  0.00  0.00    +0.000 A 
ATOM     18  C   UNL     1      -0.326  18.631  19.961  0.00  0.00    +0.000 C 
ATOM     19  C   UNL     1       1.493  17.554  18.546  0.00  0.00    +0.000 A 
ATOM     20  C   UNL     1       2.250  16.416  18.224  0.00  0.00    +0.000 A 
ATOM     21  C   UNL     1       3.265  16.503  17.117  0.00  0.00    +0.000 C 
ATOM     22  C   UNL     1       2.041  15.194  18.913  0.00  0.00    +0.000 A 
ENDBRANCH  13  15
BRANCH  12  23
ATOM     23  C   UNL     1      -1.312  12.857  19.685  0.00  0.00    +0.000 C 
ATOM     24  C   UNL     1      -2.255  11.627  19.648  0.00  0.00    +0.000 C 
ATOM     25  C   UNL     1      -2.254  13.972  20.241  0.00  0.00    +0.000 C 
ATOM     26  C   UNL     1      -0.896  12.940  18.181  0.00  0.00    +0.000 C 
ENDBRANCH  12  23
ENDBRANCH   3  12
BRANCH   3  27
ATOM     27  S   UNL     1       0.554  10.117  20.698  0.00  0.00    +0.000 S 
BRANCH  27  28
ATOM     28  O   UNL     1       1.401  10.688  19.372  0.00  0.00    +0.000 OA
BRANCH  28  29
ATOM     29  C   UNL     1       1.409   9.936  18.151  0.00  0.00    +0.000 C 
ATOM     30  C   UNL     1       2.261   8.674  18.208  0.00  0.00    +0.000 C 
ATOM     31  C   UNL     1      -0.046   9.526  17.875  0.00  0.00    +0.000 C 
ENDBRANCH  28  29
ENDBRANCH  27  28
ENDBRANCH   3  27
TORSDOF 8
ENDMDL
MODEL 8
REMARK VINA RESULT:      -5.0      2.594      7.008
REMARK  Name = 
REMARK  16 active torsions:
REMARK  status: ('A' for Active; 'I' for Inactive)
REMARK    1  A    between atoms: C_1  and  C_2
REMARK    2  A    between atoms: C_2  and  C_3
REMARK    3  A    between atoms: C_6  and  C_7
REMARK    4  A    between atoms: N_9  and  S_10
REMARK    5  A    between atoms: N_9  and  N_15
REMARK    6  A    between atoms: S_10  and  O_11
REMARK    7  A    between atoms: O_11  and  C_12
REMARK    8  A    between atoms: C_12  and  C_13
REMARK    9  A    between atoms: C_12  and  C_14
REMARK   10  A    between atoms: N_15  and  C_26
REMARK   11  A    between atoms: C_16  and  C_18
REMARK   12  A    between atoms: C_20  and  C_21
REMARK   13  A    between atoms: C_23  and  C_24
REMARK   14  A    between atoms: C_26  and  C_27
REMARK   15  A    between atoms: C_26  and  C_28
REMARK   16  A    between atoms: C_26  and  C_29
REMARK                            x       y       z     vdW  Elec       q    Type
REMARK                         _______ _______ _______ _____ _____    ______ ____
ROOT
ATOM      1  C   UNL     1      -0.184  11.121  22.100  0.00  0.00    +0.000 C 
ATOM      2  O   UNL     1      -0.252  10.569  23.201  0.00  0.00    +0.000 OA
ATOM      3  N   UNL     1      -0.720  12.401  21.800  0.00  0.00    +0.000 N 
ENDROOT
BRANCH   1   7
ATOM      4  C   UNL     1       1.633   8.631  19.141  0.00  0.00    +0.000 A 
ATOM      5  C   UNL     1       0.908   9.764  18.747  0.00  0.00    +0.000 A 
ATOM      6  C   UNL     1       0.317  10.594  19.702  0.00  0.00    +0.000 A 
ATOM      7  C   UNL     1       0.474  10.310  21.054  0.00  0.00    +0.000 A 
ATOM      8  C   UNL     1       1.162   9.153  21.455  0.00  0.00    +0.000 A 
ATOM      9  C   UNL     1       1.740   8.321  20.503  0.00  0.00    +0.000 A 
BRANCH   4  11
ATOM     10  C   UNL     1       2.446   6.349  18.619  0.00  0.00    +0.000 C 
ATOM     11  C   UNL     1       2.367   7.789  18.131  0.00  0.00    +0.000 C 
ENDBRANCH   4  11
ENDBRANCH   1   7
BRANCH   3  12
ATOM     12  N   UNL     1      -0.232  13.190  20.651  0.00  0.00    +0.000 N 
ATOM     13  C   UNL     1       1.104  13.704  20.748  0.00  0.00    +0.000 C 
ATOM     14  O   UNL     1       1.777  13.502  21.764  0.00  0.00    +0.000 OA
BRANCH  13  15
ATOM     15  C   UNL     1       1.813  14.537  19.672  0.00  0.00    +0.000 A 
ATOM     16  C   UNL     1       1.312  15.704  19.098  0.00  0.00    +0.000 A 
ATOM     17  C   UNL     1       1.993  16.536  18.210  0.00  0.00    +0.000 A 
ATOM     18  C   UNL     1       1.319  17.802  17.768  0.00  0.00    +0.000 C 
ATOM     19  C   UNL     1       3.259  16.156  17.811  0.00  0.00    +0.000 A 
ATOM     20  C   UNL     1       3.811  14.962  18.301  0.00  0.00    +0.000 A 
ATOM     21  C   UNL     1       5.166  14.530  17.812  0.00  0.00    +0.000 C 
ATOM     22  C   UNL     1       3.090  14.161  19.223  0.00  0.00    +0.000 A 
ENDBRANCH  13  15
BRANCH  12  23
ATOM     23  C   UNL     1      -1.284  13.457  19.603  0.00  0.00    +0.000 C 
ATOM     24  C   UNL     1      -2.556  12.572  19.581  0.00  0.00    +0.000 C 
ATOM     25  C   UNL     1      -1.882  14.880  19.846  0.00  0.00    +0.000 C 
ATOM     26  C   UNL     1      -0.698  13.148  18.188  0.00  0.00    +0.000 C 
ENDBRANCH  12  23
ENDBRANCH   3  12
BRANCH   3  27
ATOM     27  S   UNL     1      -1.274  13.279  23.202  0.00  0.00    +0.000 S 
BRANCH  27  28
ATOM     28  O   UNL     1      -2.762  12.561  23.472  0.00  0.00    +0.000 OA
BRANCH  28  29
ATOM     29  C   UNL     1      -3.824  13.320  24.064  0.00  0.00    +0.000 C 
ATOM     30  C   UNL     1      -4.702  14.049  23.054  0.00  0.00    +0.000 C 
ATOM     31  C   UNL     1      -4.703  12.324  24.836  0.00  0.00    +0.000 C 
ENDBRANCH  28  29
ENDBRANCH  27  28
ENDBRANCH   3  27
TORSDOF 8
ENDMDL
MODEL 9
REMARK VINA RESULT:      -5.0      2.587      6.367
REMARK  Name = 
REMARK  16 active torsions:
REMARK  status: ('A' for Active; 'I' for Inactive)
REMARK    1  A    between atoms: C_1  and  C_2
REMARK    2  A    between atoms: C_2  and  C_3
REMARK    3  A    between atoms: C_6  and  C_7
REMARK    4  A    between atoms: N_9  and  S_10
REMARK    5  A    between atoms: N_9  and  N_15
REMARK    6  A    between atoms: S_10  and  O_11
REMARK    7  A    between atoms: O_11  and  C_12
REMARK    8  A    between atoms: C_12  and  C_13
REMARK    9  A    between atoms: C_12  and  C_14
REMARK   10  A    between atoms: N_15  and  C_26
REMARK   11  A    between atoms: C_16  and  C_18
REMARK   12  A    between atoms: C_20  and  C_21
REMARK   13  A    between atoms: C_23  and  C_24
REMARK   14  A    between atoms: C_26  and  C_27
REMARK   15  A    between atoms: C_26  and  C_28
REMARK   16  A    between atoms: C_26  and  C_29
REMARK                            x       y       z     vdW  Elec       q    Type
REMARK                         _______ _______ _______ _____ _____    ______ ____
ROOT
ATOM      1  C   UNL     1       1.503  12.515  19.077  0.00  0.00    +0.000 C 
ATOM      2  O   UNL     1       2.380  12.271  18.245  0.00  0.00    +0.000 OA
ATOM      3  N   UNL     1       1.692  13.287  20.254  0.00  0.00    +0.000 N 
ENDROOT
BRANCH   1   7
ATOM      4  C   UNL     1      -2.240  10.723  18.060  0.00  0.00    +0.000 A 
ATOM      5  C   UNL     1      -1.313  10.008  18.832  0.00  0.00    +0.000 A 
ATOM      6  C   UNL     1      -0.090  10.583  19.181  0.00  0.00    +0.000 A 
ATOM      7  C   UNL     1       0.198  11.885  18.786  0.00  0.00    +0.000 A 
ATOM      8  C   UNL     1      -0.706  12.591  17.976  0.00  0.00    +0.000 A 
ATOM      9  C   UNL     1      -1.919  12.013  17.618  0.00  0.00    +0.000 A 
BRANCH   4  11
ATOM     10  C   UNL     1      -4.518  11.261  17.247  0.00  0.00    +0.000 C 
ATOM     11  C   UNL     1      -3.605  10.159  17.768  0.00  0.00    +0.000 C 
ENDBRANCH   4  11
ENDBRANCH   1   7
BRANCH   3  12
ATOM     12  N   UNL     1       0.555  13.917  20.952  0.00  0.00    +0.000 N 
ATOM     13  C   UNL     1      -0.105  13.124  21.948  0.00  0.00    +0.000 C 
ATOM     14  O   UNL     1       0.267  11.965  22.169  0.00  0.00    +0.000 OA
BRANCH  13  15
ATOM     15  C   UNL     1      -1.298  13.580  22.798  0.00  0.00    +0.000 A 
ATOM     16  C   UNL     1      -2.611  13.142  22.643  0.00  0.00    +0.000 A 
ATOM     17  C   UNL     1      -3.682  13.454  23.480  0.00  0.00    +0.000 A 
ATOM     18  C   UNL     1      -5.009  12.812  23.202  0.00  0.00    +0.000 C 
ATOM     19  C   UNL     1      -3.448  14.316  24.533  0.00  0.00    +0.000 A 
ATOM     20  C   UNL     1      -2.163  14.846  24.723  0.00  0.00    +0.000 A 
ATOM     21  C   UNL     1      -1.936  15.831  25.837  0.00  0.00    +0.000 C 
ATOM     22  C   UNL     1      -1.098  14.480  23.859  0.00  0.00    +0.000 A 
ENDBRANCH  13  15
BRANCH  12  23
ATOM     23  C   UNL     1       0.168  15.266  20.396  0.00  0.00    +0.000 C 
ATOM     24  C   UNL     1       0.782  15.720  19.047  0.00  0.00    +0.000 C 
ATOM     25  C   UNL     1      -1.360  15.254  20.070  0.00  0.00    +0.000 C 
ATOM     26  C   UNL     1       0.700  16.389  21.343  0.00  0.00    +0.000 C 
ENDBRANCH  12  23
ENDBRANCH   3  12
BRANCH   3  27
ATOM     27  S   UNL     1       3.231  14.107  20.318  0.00  0.00    +0.000 S 
BRANCH  27  28
ATOM     28  O   UNL     1       3.663  13.870  21.918  0.00  0.00    +0.000 OA
BRANCH  28  29
ATOM     29  C   UNL     1       5.003  14.146  22.344  0.00  0.00    +0.000 C 
ATOM     30  C   UNL     1       5.866  14.817  21.283  0.00  0.00    +0.000 C 
ATOM     31  C   UNL     1       4.897  15.094  23.550  0.00  0.00    +0.000 C 
ENDBRANCH  28  29
ENDBRANCH  27  28
ENDBRANCH   3  27
TORSDOF 8
ENDMDL
