MODEL 1
REMARK VINA RESULT:      -7.4      0.000      0.000
REMARK  Name = 
REMARK  4 active torsions:
REMARK  status: ('A' for Active; 'I' for Inactive)
REMARK    1  A    between atoms: C_2  and  N_3
REMARK    2  A    between atoms: C_6  and  N_7
REMARK    3  A    between atoms: C_8  and  C_10
REMARK    4  A    between atoms: N_14  and  C_15
REMARK                            x       y       z     vdW  Elec       q    Type
REMARK                         _______ _______ _______ _____ _____    ______ ____
ROOT
ATOM      1  C   UNL     1       5.184   6.410  17.299  0.00  0.00    +0.000 C 
ATOM      2  C   UNL     1       6.166   5.413  17.888  0.00  0.00    +0.000 C 
ATOM      3  C   UNL     1       7.014   4.990  16.722  0.00  0.00    +0.000 C 
ATOM      4  O   UNL     1       8.089   4.427  16.874  0.00  0.00    +0.000 OA
ATOM      5  N   UNL     1       6.341   5.322  15.544  0.00  0.00    +0.000 N 
ATOM      6  C   UNL     1       5.112   6.029  15.825  0.00  0.00    +0.000 C 
ENDROOT
BRANCH   5   7
ATOM      7  C   UNL     1       6.675   4.870  14.233  0.00  0.00    +0.000 A 
ATOM      8  C   UNL     1       5.997   3.802  13.631  0.00  0.00    +0.000 A 
ATOM      9  C   UNL     1       6.301   3.382  12.332  0.00  0.00    +0.000 A 
ATOM     10  C   UNL     1       7.305   4.016  11.610  0.00  0.00    +0.000 A 
ATOM     11  C   UNL     1       7.994   5.079  12.185  0.00  0.00    +0.000 A 
ATOM     12  C   UNL     1       7.676   5.508  13.481  0.00  0.00    +0.000 A 
ENDBRANCH   5   7
BRANCH   1  14
ATOM     13  N   UNL     1       3.243   5.070  17.921  0.00  0.00    +0.000 N 
ATOM     14  C   UNL     1       3.829   6.319  17.965  0.00  0.00    +0.000 C 
ATOM     15  O   UNL     1       3.294   7.265  18.534  0.00  0.00    +0.000 OA
ATOM     16  H   UNL     1       3.785   4.271  17.609  0.00  0.00    +0.000 HD
BRANCH  13  20
ATOM     17  N   UNL     1       1.324   3.366  20.339  0.00  0.00    +0.000 N 
ATOM     18  C   UNL     1       0.442   3.085  19.194  0.00  0.00    +0.000 C 
ATOM     19  C   UNL     1       1.243   3.600  18.010  0.00  0.00    +0.000 C 
ATOM     20  C   UNL     1       1.941   4.852  18.543  0.00  0.00    +0.000 C 
ATOM     21  C   UNL     1       2.014   4.654  20.075  0.00  0.00    +0.000 C 
BRANCH  17  23
ATOM     22  N   UNL     1       1.365   2.122  22.499  0.00  0.00    +0.000 NA
ATOM     23  C   UNL     1       1.360   2.697  21.493  0.00  0.00    +0.000 C 
ENDBRANCH  17  23
ENDBRANCH  13  20
ENDBRANCH   1  14
TORSDOF 4
ENDMDL
MODEL 2
REMARK VINA RESULT:      -7.3      0.083      1.027
REMARK  Name = 
REMARK  4 active torsions:
REMARK  status: ('A' for Active; 'I' for Inactive)
REMARK    1  A    between atoms: C_2  and  N_3
REMARK    2  A    between atoms: C_6  and  N_7
REMARK    3  A    between atoms: C_8  and  C_10
REMARK    4  A    between atoms: N_14  and  C_15
REMARK                            x       y       z     vdW  Elec       q    Type
REMARK                         _______ _______ _______ _____ _____    ______ ____
ROOT
ATOM      1  C   UNL     1       5.197   6.370  17.396  0.00  0.00    +0.000 C 
ATOM      2  C   UNL     1       6.179   5.353  17.947  0.00  0.00    +0.000 C 
ATOM      3  C   UNL     1       7.009   4.953  16.760  0.00  0.00    +0.000 C 
ATOM      4  O   UNL     1       8.082   4.380  16.883  0.00  0.00    +0.000 OA
ATOM      5  N   UNL     1       6.323   5.318  15.599  0.00  0.00    +0.000 N 
ATOM      6  C   UNL     1       5.102   6.026  15.914  0.00  0.00    +0.000 C 
ENDROOT
BRANCH   5   7
ATOM      7  C   UNL     1       6.636   4.897  14.274  0.00  0.00    +0.000 A 
ATOM      8  C   UNL     1       7.662   5.502  13.535  0.00  0.00    +0.000 A 
ATOM      9  C   UNL     1       7.991   5.065  12.248  0.00  0.00    +0.000 A 
ATOM     10  C   UNL     1       7.289   4.018  11.665  0.00  0.00    +0.000 A 
ATOM     11  C   UNL     1       6.267   3.399  12.377  0.00  0.00    +0.000 A 
ATOM     12  C   UNL     1       5.948   3.829  13.672  0.00  0.00    +0.000 A 
ENDBRANCH   5   7
BRANCH   1  14
ATOM     13  N   UNL     1       3.231   5.041  17.967  0.00  0.00    +0.000 N 
ATOM     14  C   UNL     1       3.850   6.271  18.078  0.00  0.00    +0.000 C 
ATOM     15  O   UNL     1       3.348   7.193  18.714  0.00  0.00    +0.000 OA
ATOM     16  H   UNL     1       3.749   4.251  17.597  0.00  0.00    +0.000 HD
BRANCH  13  20
ATOM     17  N   UNL     1       1.334   3.325  20.393  0.00  0.00    +0.000 N 
ATOM     18  C   UNL     1       0.446   3.044  19.253  0.00  0.00    +0.000 C 
ATOM     19  C   UNL     1       1.238   3.564  18.065  0.00  0.00    +0.000 C 
ATOM     20  C   UNL     1       1.934   4.817  18.596  0.00  0.00    +0.000 C 
ATOM     21  C   UNL     1       2.017   4.616  20.127  0.00  0.00    +0.000 C 
BRANCH  17  23
ATOM     22  N   UNL     1       1.398   2.087  22.556  0.00  0.00    +0.000 NA
ATOM     23  C   UNL     1       1.378   2.654  21.545  0.00  0.00    +0.000 C 
ENDBRANCH  17  23
ENDBRANCH  13  20
ENDBRANCH   1  14
TORSDOF 4
ENDMDL
MODEL 3
REMARK VINA RESULT:      -6.8      3.781      5.288
REMARK  Name = 
REMARK  4 active torsions:
REMARK  status: ('A' for Active; 'I' for Inactive)
REMARK    1  A    between atoms: C_2  and  N_3
REMARK    2  A    between atoms: C_6  and  N_7
REMARK    3  A    between atoms: C_8  and  C_10
REMARK    4  A    between atoms: N_14  and  C_15
REMARK                            x       y       z     vdW  Elec       q    Type
REMARK                         _______ _______ _______ _____ _____    ______ ____
ROOT
ATOM      1  C   UNL     1       3.067   4.909  20.266  0.00  0.00    +0.000 C 
ATOM      2  C   UNL     1       2.656   3.515  19.831  0.00  0.00    +0.000 C 
ATOM      3  C   UNL     1       3.706   3.109  18.835  0.00  0.00    +0.000 C 
ATOM      4  O   UNL     1       3.865   1.944  18.500  0.00  0.00    +0.000 OA
ATOM      5  N   UNL     1       4.366   4.260  18.397  0.00  0.00    +0.000 N 
ATOM      6  C   UNL     1       3.892   5.433  19.096  0.00  0.00    +0.000 C 
ENDROOT
BRANCH   5   7
ATOM      7  C   UNL     1       5.245   4.346  17.278  0.00  0.00    +0.000 A 
ATOM      8  C   UNL     1       4.780   4.185  15.966  0.00  0.00    +0.000 A 
ATOM      9  C   UNL     1       5.636   4.304  14.866  0.00  0.00    +0.000 A 
ATOM     10  C   UNL     1       6.985   4.575  15.059  0.00  0.00    +0.000 A 
ATOM     11  C   UNL     1       7.473   4.740  16.351  0.00  0.00    +0.000 A 
ATOM     12  C   UNL     1       6.610   4.635  17.450  0.00  0.00    +0.000 A 
ENDBRANCH   5   7
BRANCH   1  14
ATOM     13  N   UNL     1       2.130   7.141  20.576  0.00  0.00    +0.000 N 
ATOM     14  C   UNL     1       1.865   5.787  20.537  0.00  0.00    +0.000 C 
ATOM     15  O   UNL     1       0.729   5.346  20.678  0.00  0.00    +0.000 OA
ATOM     16  H   UNL     1       3.037   7.484  20.275  0.00  0.00    +0.000 HD
BRANCH  13  20
ATOM     17  N   UNL     1       0.979  10.470  20.426  0.00  0.00    +0.000 N 
ATOM     18  C   UNL     1       0.616  10.228  21.832  0.00  0.00    +0.000 C 
ATOM     19  C   UNL     1       1.234   8.869  22.117  0.00  0.00    +0.000 C 
ATOM     20  C   UNL     1       1.049   8.091  20.814  0.00  0.00    +0.000 C 
ATOM     21  C   UNL     1       0.921   9.169  19.713  0.00  0.00    +0.000 C 
BRANCH  17  23
ATOM     22  N   UNL     1       1.259  12.702  19.353  0.00  0.00    +0.000 NA
ATOM     23  C   UNL     1       1.140  11.659  19.844  0.00  0.00    +0.000 C 
ENDBRANCH  17  23
ENDBRANCH  13  20
ENDBRANCH   1  14
TORSDOF 4
ENDMDL
MODEL 4
REMARK VINA RESULT:      -6.8      6.043      7.761
REMARK  Name = 
REMARK  4 active torsions:
REMARK  status: ('A' for Active; 'I' for Inactive)
REMARK    1  A    between atoms: C_2  and  N_3
REMARK    2  A    between atoms: C_6  and  N_7
REMARK    3  A    between atoms: C_8  and  C_10
REMARK    4  A    between atoms: N_14  and  C_15
REMARK                            x       y       z     vdW  Elec       q    Type
REMARK                         _______ _______ _______ _____ _____    ______ ____
ROOT
ATOM      1  C   UNL     1       1.235  10.407  19.148  0.00  0.00    +0.000 C 
ATOM      2  C   UNL     1       0.675   9.518  20.244  0.00  0.00    +0.000 C 
ATOM      3  C   UNL     1       1.461   8.242  20.127  0.00  0.00    +0.000 C 
ATOM      4  O   UNL     1       1.490   7.416  21.028  0.00  0.00    +0.000 OA
ATOM      5  N   UNL     1       2.060   8.207  18.866  0.00  0.00    +0.000 N 
ATOM      6  C   UNL     1       1.804   9.425  18.131  0.00  0.00    +0.000 C 
ENDROOT
BRANCH   5   7
ATOM      7  C   UNL     1       2.674   7.071  18.262  0.00  0.00    +0.000 A 
ATOM      8  C   UNL     1       3.896   7.172  17.584  0.00  0.00    +0.000 A 
ATOM      9  C   UNL     1       4.515   6.050  17.022  0.00  0.00    +0.000 A 
ATOM     10  C   UNL     1       3.915   4.800  17.117  0.00  0.00    +0.000 A 
ATOM     11  C   UNL     1       2.702   4.673  17.786  0.00  0.00    +0.000 A 
ATOM     12  C   UNL     1       2.091   5.795  18.361  0.00  0.00    +0.000 A 
ENDBRANCH   5   7
BRANCH   1  14
ATOM     13  N   UNL     1      -0.918  10.598  18.015  0.00  0.00    +0.000 N 
ATOM     14  C   UNL     1       0.162  11.282  18.537  0.00  0.00    +0.000 C 
ATOM     15  O   UNL     1       0.216  12.508  18.531  0.00  0.00    +0.000 OA
ATOM     16  H   UNL     1      -1.020   9.605  18.198  0.00  0.00    +0.000 HD
BRANCH  13  20
ATOM     17  N   UNL     1      -4.401  10.994  17.642  0.00  0.00    +0.000 N 
ATOM     18  C   UNL     1      -4.078  10.980  16.206  0.00  0.00    +0.000 C 
ATOM     19  C   UNL     1      -2.603  10.616  16.190  0.00  0.00    +0.000 C 
ATOM     20  C   UNL     1      -2.025  11.332  17.411  0.00  0.00    +0.000 C 
ATOM     21  C   UNL     1      -3.224  11.535  18.367  0.00  0.00    +0.000 C 
BRANCH  17  23
ATOM     22  N   UNL     1      -6.642  10.566  18.647  0.00  0.00    +0.000 NA
ATOM     23  C   UNL     1      -5.595  10.754  18.186  0.00  0.00    +0.000 C 
ENDBRANCH  17  23
ENDBRANCH  13  20
ENDBRANCH   1  14
TORSDOF 4
ENDMDL
MODEL 5
REMARK VINA RESULT:      -6.7      3.785      5.333
REMARK  Name = 
REMARK  4 active torsions:
REMARK  status: ('A' for Active; 'I' for Inactive)
REMARK    1  A    between atoms: C_2  and  N_3
REMARK    2  A    between atoms: C_6  and  N_7
REMARK    3  A    between atoms: C_8  and  C_10
REMARK    4  A    between atoms: N_14  and  C_15
REMARK                            x       y       z     vdW  Elec       q    Type
REMARK                         _______ _______ _______ _____ _____    ______ ____
ROOT
ATOM      1  C   UNL     1       3.102   4.985  20.202  0.00  0.00    +0.000 C 
ATOM      2  C   UNL     1       2.689   3.596  19.753  0.00  0.00    +0.000 C 
ATOM      3  C   UNL     1       3.731   3.205  18.742  0.00  0.00    +0.000 C 
ATOM      4  O   UNL     1       3.889   2.044  18.391  0.00  0.00    +0.000 OA
ATOM      5  N   UNL     1       4.385   4.362  18.313  0.00  0.00    +0.000 N 
ATOM      6  C   UNL     1       3.916   5.525  19.031  0.00  0.00    +0.000 C 
ENDROOT
BRANCH   5   7
ATOM      7  C   UNL     1       5.254   4.464  17.188  0.00  0.00    +0.000 A 
ATOM      8  C   UNL     1       6.631   4.673  17.340  0.00  0.00    +0.000 A 
ATOM      9  C   UNL     1       7.488   4.738  16.236  0.00  0.00    +0.000 A 
ATOM     10  C   UNL     1       6.979   4.608  14.950  0.00  0.00    +0.000 A 
ATOM     11  C   UNL     1       5.616   4.399  14.770  0.00  0.00    +0.000 A 
ATOM     12  C   UNL     1       4.763   4.319  15.879  0.00  0.00    +0.000 A 
ENDBRANCH   5   7
BRANCH   1  14
ATOM     13  N   UNL     1       2.155   7.214  20.499  0.00  0.00    +0.000 N 
ATOM     14  C   UNL     1       1.901   5.857  20.495  0.00  0.00    +0.000 C 
ATOM     15  O   UNL     1       0.774   5.409  20.681  0.00  0.00    +0.000 OA
ATOM     16  H   UNL     1       3.048   7.559  20.163  0.00  0.00    +0.000 HD
BRANCH  13  20
ATOM     17  N   UNL     1       1.003  10.545  20.412  0.00  0.00    +0.000 N 
ATOM     18  C   UNL     1       0.638  10.276  21.812  0.00  0.00    +0.000 C 
ATOM     19  C   UNL     1       1.256   8.913  22.072  0.00  0.00    +0.000 C 
ATOM     20  C   UNL     1       1.073   8.159  20.754  0.00  0.00    +0.000 C 
ATOM     21  C   UNL     1       0.946   9.258  19.674  0.00  0.00    +0.000 C 
BRANCH  17  23
ATOM     22  N   UNL     1       1.280  12.795  19.375  0.00  0.00    +0.000 NA
ATOM     23  C   UNL     1       1.164  11.745  19.853  0.00  0.00    +0.000 C 
ENDBRANCH  17  23
ENDBRANCH  13  20
ENDBRANCH   1  14
TORSDOF 4
ENDMDL
MODEL 6
REMARK VINA RESULT:      -6.7      6.012      7.669
REMARK  Name = 
REMARK  4 active torsions:
REMARK  status: ('A' for Active; 'I' for Inactive)
REMARK    1  A    between atoms: C_2  and  N_3
REMARK    2  A    between atoms: C_6  and  N_7
REMARK    3  A    between atoms: C_8  and  C_10
REMARK    4  A    between atoms: N_14  and  C_15
REMARK                            x       y       z     vdW  Elec       q    Type
REMARK                         _______ _______ _______ _____ _____    ______ ____
ROOT
ATOM      1  C   UNL     1       1.204  10.356  19.151  0.00  0.00    +0.000 C 
ATOM      2  C   UNL     1       0.636   9.460  20.236  0.00  0.00    +0.000 C 
ATOM      3  C   UNL     1       1.441   8.194  20.135  0.00  0.00    +0.000 C 
ATOM      4  O   UNL     1       1.464   7.368  21.036  0.00  0.00    +0.000 OA
ATOM      5  N   UNL     1       2.065   8.167  18.886  0.00  0.00    +0.000 N 
ATOM      6  C   UNL     1       1.807   9.382  18.146  0.00  0.00    +0.000 C 
ENDROOT
BRANCH   5   7
ATOM      7  C   UNL     1       2.706   7.039  18.295  0.00  0.00    +0.000 A 
ATOM      8  C   UNL     1       2.144   5.758  18.362  0.00  0.00    +0.000 A 
ATOM      9  C   UNL     1       2.757   4.658  17.752  0.00  0.00    +0.000 A 
ATOM     10  C   UNL     1       3.956   4.817  17.070  0.00  0.00    +0.000 A 
ATOM     11  C   UNL     1       4.535   6.079  16.987  0.00  0.00    +0.000 A 
ATOM     12  C   UNL     1       3.912   7.181  17.586  0.00  0.00    +0.000 A 
ENDBRANCH   5   7
BRANCH   1  14
ATOM     13  N   UNL     1      -0.885  10.516  17.901  0.00  0.00    +0.000 N 
ATOM     14  C   UNL     1       0.131  11.216  18.519  0.00  0.00    +0.000 C 
ATOM     15  O   UNL     1       0.133  12.442  18.574  0.00  0.00    +0.000 OA
ATOM     16  H   UNL     1      -0.955   9.512  18.030  0.00  0.00    +0.000 HD
BRANCH  13  20
ATOM     17  N   UNL     1      -4.365  10.962  17.553  0.00  0.00    +0.000 N 
ATOM     18  C   UNL     1      -4.064  10.850  16.116  0.00  0.00    +0.000 C 
ATOM     19  C   UNL     1      -2.597  10.454  16.103  0.00  0.00    +0.000 C 
ATOM     20  C   UNL     1      -1.986  11.234  17.268  0.00  0.00    +0.000 C 
ATOM     21  C   UNL     1      -3.166  11.523  18.225  0.00  0.00    +0.000 C 
BRANCH  17  23
ATOM     22  N   UNL     1      -6.598  10.647  18.616  0.00  0.00    +0.000 NA
ATOM     23  C   UNL     1      -5.555  10.782  18.128  0.00  0.00    +0.000 C 
ENDBRANCH  17  23
ENDBRANCH  13  20
ENDBRANCH   1  14
TORSDOF 4
ENDMDL
MODEL 7
REMARK VINA RESULT:      -6.7      3.071      3.979
REMARK  Name = 
REMARK  4 active torsions:
REMARK  status: ('A' for Active; 'I' for Inactive)
REMARK    1  A    between atoms: C_2  and  N_3
REMARK    2  A    between atoms: C_6  and  N_7
REMARK    3  A    between atoms: C_8  and  C_10
REMARK    4  A    between atoms: N_14  and  C_15
REMARK                            x       y       z     vdW  Elec       q    Type
REMARK                         _______ _______ _______ _____ _____    ______ ____
ROOT
ATOM      1  C   UNL     1       5.140   6.610  17.322  0.00  0.00    +0.000 C 
ATOM      2  C   UNL     1       6.028   5.557  17.959  0.00  0.00    +0.000 C 
ATOM      3  C   UNL     1       6.856   5.028  16.822  0.00  0.00    +0.000 C 
ATOM      4  O   UNL     1       7.879   4.384  17.010  0.00  0.00    +0.000 OA
ATOM      5  N   UNL     1       6.230   5.375  15.623  0.00  0.00    +0.000 N 
ATOM      6  C   UNL     1       5.059   6.189  15.860  0.00  0.00    +0.000 C 
ENDROOT
BRANCH   5   7
ATOM      7  C   UNL     1       6.546   4.856  14.333  0.00  0.00    +0.000 A 
ATOM      8  C   UNL     1       5.811   3.806  13.765  0.00  0.00    +0.000 A 
ATOM      9  C   UNL     1       6.099   3.320  12.485  0.00  0.00    +0.000 A 
ATOM     10  C   UNL     1       7.141   3.869  11.749  0.00  0.00    +0.000 A 
ATOM     11  C   UNL     1       7.886   4.911  12.289  0.00  0.00    +0.000 A 
ATOM     12  C   UNL     1       7.586   5.406  13.565  0.00  0.00    +0.000 A 
ENDBRANCH   5   7
BRANCH   1  14
ATOM     13  N   UNL     1       3.218   7.912  18.074  0.00  0.00    +0.000 N 
ATOM     14  C   UNL     1       3.772   6.652  17.967  0.00  0.00    +0.000 C 
ATOM     15  O   UNL     1       3.174   5.648  18.339  0.00  0.00    +0.000 OA
ATOM     16  H   UNL     1       3.653   8.694  17.595  0.00  0.00    +0.000 HD
BRANCH  13  20
ATOM     17  N   UNL     1       0.868  10.051  19.600  0.00  0.00    +0.000 N 
ATOM     18  C   UNL     1       0.808   8.984  20.612  0.00  0.00    +0.000 C 
ATOM     19  C   UNL     1       1.931   8.050  20.194  0.00  0.00    +0.000 C 
ATOM     20  C   UNL     1       1.895   8.080  18.665  0.00  0.00    +0.000 C 
ATOM     21  C   UNL     1       1.223   9.424  18.302  0.00  0.00    +0.000 C 
BRANCH  17  23
ATOM     22  N   UNL     1       0.166  12.426  19.884  0.00  0.00    +0.000 NA
ATOM     23  C   UNL     1       0.484  11.318  19.763  0.00  0.00    +0.000 C 
ENDBRANCH  17  23
ENDBRANCH  13  20
ENDBRANCH   1  14
TORSDOF 4
ENDMDL
MODEL 8
REMARK VINA RESULT:      -6.6      3.115      4.098
REMARK  Name = 
REMARK  4 active torsions:
REMARK  status: ('A' for Active; 'I' for Inactive)
REMARK    1  A    between atoms: C_2  and  N_3
REMARK    2  A    between atoms: C_6  and  N_7
REMARK    3  A    between atoms: C_8  and  C_10
REMARK    4  A    between atoms: N_14  and  C_15
REMARK                            x       y       z     vdW  Elec       q    Type
REMARK                         _______ _______ _______ _____ _____    ______ ____
ROOT
ATOM      1  C   UNL     1       5.025   6.639  17.368  0.00  0.00    +0.000 C 
ATOM      2  C   UNL     1       5.898   5.573  18.004  0.00  0.00    +0.000 C 
ATOM      3  C   UNL     1       6.738   5.053  16.870  0.00  0.00    +0.000 C 
ATOM      4  O   UNL     1       7.754   4.401  17.064  0.00  0.00    +0.000 OA
ATOM      5  N   UNL     1       6.130   5.418  15.667  0.00  0.00    +0.000 N 
ATOM      6  C   UNL     1       4.960   6.235  15.899  0.00  0.00    +0.000 C 
ENDROOT
BRANCH   5   7
ATOM      7  C   UNL     1       6.458   4.911  14.376  0.00  0.00    +0.000 A 
ATOM      8  C   UNL     1       7.545   5.412  13.647  0.00  0.00    +0.000 A 
ATOM      9  C   UNL     1       7.888   4.891  12.394  0.00  0.00    +0.000 A 
ATOM     10  C   UNL     1       7.139   3.862  11.838  0.00  0.00    +0.000 A 
ATOM     11  C   UNL     1       6.055   3.346  12.541  0.00  0.00    +0.000 A 
ATOM     12  C   UNL     1       5.723   3.860  13.802  0.00  0.00    +0.000 A 
ENDBRANCH   5   7
BRANCH   1  14
ATOM     13  N   UNL     1       3.154   7.949  18.226  0.00  0.00    +0.000 N 
ATOM     14  C   UNL     1       3.649   6.681  17.995  0.00  0.00    +0.000 C 
ATOM     15  O   UNL     1       2.997   5.675  18.253  0.00  0.00    +0.000 OA
ATOM     16  H   UNL     1       3.634   8.754  17.837  0.00  0.00    +0.000 HD
BRANCH  13  20
ATOM     17  N   UNL     1       0.853  10.059  19.864  0.00  0.00    +0.000 N 
ATOM     18  C   UNL     1       0.749   8.932  20.805  0.00  0.00    +0.000 C 
ATOM     19  C   UNL     1       1.848   7.992  20.338  0.00  0.00    +0.000 C 
ATOM     20  C   UNL     1       1.830   8.120  18.814  0.00  0.00    +0.000 C 
ATOM     21  C   UNL     1       1.204   9.506  18.531  0.00  0.00    +0.000 C 
BRANCH  17  23
ATOM     22  N   UNL     1       0.200  12.427  20.287  0.00  0.00    +0.000 NA
ATOM     23  C   UNL     1       0.506  11.324  20.104  0.00  0.00    +0.000 C 
ENDBRANCH  17  23
ENDBRANCH  13  20
ENDBRANCH   1  14
TORSDOF 4
ENDMDL
MODEL 9
REMARK VINA RESULT:      -6.4      2.423      7.516
REMARK  Name = 
REMARK  4 active torsions:
REMARK  status: ('A' for Active; 'I' for Inactive)
REMARK    1  A    between atoms: C_2  and  N_3
REMARK    2  A    between atoms: C_6  and  N_7
REMARK    3  A    between atoms: C_8  and  C_10
REMARK    4  A    between atoms: N_14  and  C_15
REMARK                            x       y       z     vdW  Elec       q    Type
REMARK                         _______ _______ _______ _____ _____    ______ ____
ROOT
ATOM      1  C   UNL     1       5.977   5.258  16.085  0.00  0.00    +0.000 C 
ATOM      2  C   UNL     1       5.221   6.572  16.166  0.00  0.00    +0.000 C 
ATOM      3  C   UNL     1       4.179   6.339  17.224  0.00  0.00    +0.000 C 
ATOM      4  O   UNL     1       3.585   7.262  17.762  0.00  0.00    +0.000 OA
ATOM      5  N   UNL     1       4.035   4.961  17.405  0.00  0.00    +0.000 N 
ATOM      6  C   UNL     1       4.978   4.225  16.594  0.00  0.00    +0.000 C 
ENDROOT
BRANCH   5   7
ATOM      7  C   UNL     1       2.985   4.316  18.122  0.00  0.00    +0.000 A 
ATOM      8  C   UNL     1       2.373   3.153  17.637  0.00  0.00    +0.000 A 
ATOM      9  C   UNL     1       1.366   2.501  18.357  0.00  0.00    +0.000 A 
ATOM     10  C   UNL     1       0.940   3.010  19.578  0.00  0.00    +0.000 A 
ATOM     11  C   UNL     1       1.531   4.164  20.082  0.00  0.00    +0.000 A 
ATOM     12  C   UNL     1       2.550   4.806  19.365  0.00  0.00    +0.000 A 
ENDBRANCH   5   7
BRANCH   1  14
ATOM     13  N   UNL     1       5.525   4.214  13.927  0.00  0.00    +0.000 N 
ATOM     14  C   UNL     1       6.421   4.956  14.671  0.00  0.00    +0.000 C 
ATOM     15  O   UNL     1       7.477   5.361  14.196  0.00  0.00    +0.000 OA
ATOM     16  H   UNL     1       4.588   4.052  14.284  0.00  0.00    +0.000 HD
BRANCH  13  20
ATOM     17  N   UNL     1       6.215   1.709  11.544  0.00  0.00    +0.000 N 
ATOM     18  C   UNL     1       7.369   2.566  11.228  0.00  0.00    +0.000 C 
ATOM     19  C   UNL     1       7.325   3.619  12.323  0.00  0.00    +0.000 C 
ATOM     20  C   UNL     1       5.833   3.870  12.543  0.00  0.00    +0.000 C 
ATOM     21  C   UNL     1       5.129   2.583  12.056  0.00  0.00    +0.000 C 
BRANCH  17  23
ATOM     22  N   UNL     1       5.946  -0.706  10.988  0.00  0.00    +0.000 NA
ATOM     23  C   UNL     1       6.085   0.415  11.246  0.00  0.00    +0.000 C 
ENDBRANCH  17  23
ENDBRANCH  13  20
ENDBRANCH   1  14
TORSDOF 4
ENDMDL
