MODEL 1
REMARK VINA RESULT:      -8.2      0.000      0.000
REMARK  Name = 
REMARK  5 active torsions:
REMARK  status: ('A' for Active; 'I' for Inactive)
REMARK    1  A    between atoms: C_1  and  O_2
REMARK    2  A    between atoms: O_2  and  C_3
REMARK    3  A    between atoms: C_5  and  C_6
REMARK    4  A    between atoms: C_11  and  C_12
REMARK    5  A    between atoms: C_23  and  O_24
REMARK                            x       y       z     vdW  Elec       q    Type
REMARK                         _______ _______ _______ _____ _____    ______ ____
ROOT
ATOM      1  C   UNL     1       2.871   7.139  18.116  0.00  0.00    +0.000 C 
ATOM      2  C   UNL     1       2.157   7.908  18.949  0.00  0.00    +0.000 C 
ATOM      3  C   UNL     1       1.860   7.697  20.403  0.00  0.00    +0.000 C 
ATOM      4  C   UNL     1       0.978   8.868  20.844  0.00  0.00    +0.000 C 
ATOM      5  C   UNL     1       0.925   9.822  19.688  0.00  0.00    +0.000 C 
ATOM      6  C   UNL     1       0.446  11.075  19.635  0.00  0.00    +0.000 C 
ATOM      7  C   UNL     1       1.557   9.190  18.504  0.00  0.00    +0.000 C 
ATOM      8  O   UNL     1       1.579   9.641  17.374  0.00  0.00    +0.000 OA
ENDROOT
BRANCH   6   9
ATOM      9  C   UNL     1      -0.111  11.785  20.794  0.00  0.00    +0.000 A 
ATOM     10  C   UNL     1      -1.035  11.112  21.606  0.00  0.00    +0.000 A 
ATOM     11  C   UNL     1      -1.563  11.724  22.748  0.00  0.00    +0.000 A 
ATOM     12  C   UNL     1      -1.155  13.008  23.105  0.00  0.00    +0.000 A 
ATOM     13  C   UNL     1      -0.254  13.697  22.298  0.00  0.00    +0.000 A 
ATOM     14  C   UNL     1       0.247  13.102  21.134  0.00  0.00    +0.000 A 
ATOM     15 BR   UNL     1       1.361  14.166  20.022  0.00  0.00    +0.000 Br
ENDBRANCH   6   9
BRANCH   1  18
ATOM     16  C   UNL     1       5.427   4.475  18.981  0.00  0.00    +0.000 A 
ATOM     17  C   UNL     1       4.853   5.697  18.583  0.00  0.00    +0.000 A 
ATOM     18  C   UNL     1       3.466   5.857  18.507  0.00  0.00    +0.000 A 
ATOM     19  C   UNL     1       2.637   4.778  18.822  0.00  0.00    +0.000 A 
ATOM     20  C   UNL     1       3.192   3.562  19.227  0.00  0.00    +0.000 A 
ATOM     21  C   UNL     1       4.579   3.410  19.308  0.00  0.00    +0.000 A 
BRANCH  16  23
ATOM     22  C   UNL     1       7.471   4.683  17.754  0.00  0.00    +0.000 C 
ATOM     23  O   UNL     1       6.795   4.499  18.994  0.00  0.00    +0.000 OA
ENDBRANCH  16  23
BRANCH  21  24
ATOM     24  O   UNL     1       5.067   2.200  19.718  0.00  0.00    +0.000 OA
ATOM     25  H   UNL     1       4.486   1.835  20.403  0.00  0.00    +0.000 HD
ENDBRANCH  21  24
ENDBRANCH   1  18
TORSDOF 4
ENDMDL
MODEL 2
REMARK VINA RESULT:      -8.2      0.898      2.028
REMARK  Name = 
REMARK  5 active torsions:
REMARK  status: ('A' for Active; 'I' for Inactive)
REMARK    1  A    between atoms: C_1  and  O_2
REMARK    2  A    between atoms: O_2  and  C_3
REMARK    3  A    between atoms: C_5  and  C_6
REMARK    4  A    between atoms: C_11  and  C_12
REMARK    5  A    between atoms: C_23  and  O_24
REMARK                            x       y       z     vdW  Elec       q    Type
REMARK                         _______ _______ _______ _____ _____    ______ ____
ROOT
ATOM      1  C   UNL     1       2.930   7.009  18.110  0.00  0.00    +0.000 C 
ATOM      2  C   UNL     1       2.205   7.791  18.921  0.00  0.00    +0.000 C 
ATOM      3  C   UNL     1       1.809   7.556  20.348  0.00  0.00    +0.000 C 
ATOM      4  C   UNL     1       0.961   8.759  20.771  0.00  0.00    +0.000 C 
ATOM      5  C   UNL     1       1.027   9.745  19.643  0.00  0.00    +0.000 C 
ATOM      6  C   UNL     1       0.615  11.023  19.599  0.00  0.00    +0.000 C 
ATOM      7  C   UNL     1       1.698   9.115  18.480  0.00  0.00    +0.000 C 
ATOM      8  O   UNL     1       1.813   9.594  17.368  0.00  0.00    +0.000 OA
ENDROOT
BRANCH   6   9
ATOM      9  C   UNL     1       0.023  11.728  20.744  0.00  0.00    +0.000 A 
ATOM     10  C   UNL     1      -0.862  11.026  21.573  0.00  0.00    +0.000 A 
ATOM     11  C   UNL     1      -1.420  11.635  22.702  0.00  0.00    +0.000 A 
ATOM     12  C   UNL     1      -1.079  12.947  23.029  0.00  0.00    +0.000 A 
ATOM     13  C   UNL     1      -0.217  13.664  22.204  0.00  0.00    +0.000 A 
ATOM     14  C   UNL     1       0.313  13.070  21.052  0.00  0.00    +0.000 A 
ATOM     15 BR   UNL     1       1.367  14.165  19.914  0.00  0.00    +0.000 Br
ENDBRANCH   6   9
BRANCH   1  18
ATOM     16  C   UNL     1       3.142   3.269  18.694  0.00  0.00    +0.000 A 
ATOM     17  C   UNL     1       2.651   4.541  18.346  0.00  0.00    +0.000 A 
ATOM     18  C   UNL     1       3.435   5.688  18.497  0.00  0.00    +0.000 A 
ATOM     19  C   UNL     1       4.727   5.568  19.012  0.00  0.00    +0.000 A 
ATOM     20  C   UNL     1       5.232   4.311  19.354  0.00  0.00    +0.000 A 
ATOM     21  C   UNL     1       4.447   3.166  19.195  0.00  0.00    +0.000 A 
BRANCH  16  23
ATOM     22  C   UNL     1       0.872   2.519  18.798  0.00  0.00    +0.000 C 
ATOM     23  O   UNL     1       2.238   2.264  18.485  0.00  0.00    +0.000 OA
ENDBRANCH  16  23
BRANCH  21  24
ATOM     24  O   UNL     1       4.994   1.961  19.538  0.00  0.00    +0.000 OA
ATOM     25  H   UNL     1       4.916   1.834  20.496  0.00  0.00    +0.000 HD
ENDBRANCH  21  24
ENDBRANCH   1  18
TORSDOF 4
ENDMDL
MODEL 3
REMARK VINA RESULT:      -8.0      3.139      8.972
REMARK  Name = 
REMARK  5 active torsions:
REMARK  status: ('A' for Active; 'I' for Inactive)
REMARK    1  A    between atoms: C_1  and  O_2
REMARK    2  A    between atoms: O_2  and  C_3
REMARK    3  A    between atoms: C_5  and  C_6
REMARK    4  A    between atoms: C_11  and  C_12
REMARK    5  A    between atoms: C_23  and  O_24
REMARK                            x       y       z     vdW  Elec       q    Type
REMARK                         _______ _______ _______ _____ _____    ______ ____
ROOT
ATOM      1  C   UNL     1       1.078   8.698  20.147  0.00  0.00    +0.000 C 
ATOM      2  C   UNL     1       1.889   8.066  19.287  0.00  0.00    +0.000 C 
ATOM      3  C   UNL     1       2.416   8.542  17.967  0.00  0.00    +0.000 C 
ATOM      4  C   UNL     1       3.268   7.404  17.400  0.00  0.00    +0.000 C 
ATOM      5  C   UNL     1       3.361   6.363  18.476  0.00  0.00    +0.000 C 
ATOM      6  C   UNL     1       4.143   5.273  18.546  0.00  0.00    +0.000 C 
ATOM      7  C   UNL     1       2.440   6.720  19.582  0.00  0.00    +0.000 C 
ATOM      8  O   UNL     1       2.183   6.035  20.554  0.00  0.00    +0.000 OA
ENDROOT
BRANCH   6   9
ATOM      9  C   UNL     1       5.135   4.914  17.524  0.00  0.00    +0.000 A 
ATOM     10  C   UNL     1       4.679   4.380  16.311  0.00  0.00    +0.000 A 
ATOM     11  C   UNL     1       5.577   4.063  15.286  0.00  0.00    +0.000 A 
ATOM     12  C   UNL     1       6.941   4.300  15.454  0.00  0.00    +0.000 A 
ATOM     13  C   UNL     1       7.411   4.810  16.660  0.00  0.00    +0.000 A 
ATOM     14  C   UNL     1       6.519   5.093  17.702  0.00  0.00    +0.000 A 
ATOM     15 BR   UNL     1       7.263   5.655  19.357  0.00  0.00    +0.000 Br
ENDBRANCH   6   9
BRANCH   1  18
ATOM     16  C   UNL     1      -1.200  11.432  18.838  0.00  0.00    +0.000 A 
ATOM     17  C   UNL     1      -0.625  10.168  19.068  0.00  0.00    +0.000 A 
ATOM     18  C   UNL     1       0.496  10.019  19.889  0.00  0.00    +0.000 A 
ATOM     19  C   UNL     1       1.060  11.149  20.484  0.00  0.00    +0.000 A 
ATOM     20  C   UNL     1       0.496  12.409  20.273  0.00  0.00    +0.000 A 
ATOM     21  C   UNL     1      -0.629  12.552  19.456  0.00  0.00    +0.000 A 
BRANCH  16  23
ATOM     22  C   UNL     1      -2.244  10.493  16.900  0.00  0.00    +0.000 C 
ATOM     23  O   UNL     1      -2.285  11.389  18.006  0.00  0.00    +0.000 OA
ENDBRANCH  16  23
BRANCH  21  24
ATOM     24  O   UNL     1      -1.146  13.807  19.290  0.00  0.00    +0.000 OA
ATOM     25  H   UNL     1      -0.451  14.464  19.451  0.00  0.00    +0.000 HD
ENDBRANCH  21  24
ENDBRANCH   1  18
TORSDOF 4
ENDMDL
MODEL 4
REMARK VINA RESULT:      -8.0      3.052      8.775
REMARK  Name = 
REMARK  5 active torsions:
REMARK  status: ('A' for Active; 'I' for Inactive)
REMARK    1  A    between atoms: C_1  and  O_2
REMARK    2  A    between atoms: O_2  and  C_3
REMARK    3  A    between atoms: C_5  and  C_6
REMARK    4  A    between atoms: C_11  and  C_12
REMARK    5  A    between atoms: C_23  and  O_24
REMARK                            x       y       z     vdW  Elec       q    Type
REMARK                         _______ _______ _______ _____ _____    ______ ____
ROOT
ATOM      1  C   UNL     1       1.360   7.492  20.993  0.00  0.00    +0.000 C 
ATOM      2  C   UNL     1       2.094   7.143  19.928  0.00  0.00    +0.000 C 
ATOM      3  C   UNL     1       2.415   7.945  18.702  0.00  0.00    +0.000 C 
ATOM      4  C   UNL     1       3.261   7.045  17.799  0.00  0.00    +0.000 C 
ATOM      5  C   UNL     1       3.561   5.806  18.590  0.00  0.00    +0.000 C 
ATOM      6  C   UNL     1       4.415   4.805  18.322  0.00  0.00    +0.000 C 
ATOM      7  C   UNL     1       2.767   5.823  19.843  0.00  0.00    +0.000 C 
ATOM      8  O   UNL     1       2.683   4.920  20.654  0.00  0.00    +0.000 OA
ENDROOT
BRANCH   6   9
ATOM      9  C   UNL     1       5.290   4.775  17.142  0.00  0.00    +0.000 A 
ATOM     10  C   UNL     1       4.777   4.256  15.946  0.00  0.00    +0.000 A 
ATOM     11  C   UNL     1       5.552   4.244  14.781  0.00  0.00    +0.000 A 
ATOM     12  C   UNL     1       6.841   4.775  14.793  0.00  0.00    +0.000 A 
ATOM     13  C   UNL     1       7.372   5.276  15.979  0.00  0.00    +0.000 A 
ATOM     14  C   UNL     1       6.613   5.254  17.155  0.00  0.00    +0.000 A 
ATOM     15 BR   UNL     1       7.466   5.829  18.752  0.00  0.00    +0.000 Br
ENDBRANCH   6   9
BRANCH   1  18
ATOM     16  C   UNL     1      -0.370  10.742  20.087  0.00  0.00    +0.000 A 
ATOM     17  C   UNL     1       0.320   9.520  19.978  0.00  0.00    +0.000 A 
ATOM     18  C   UNL     1       0.663   8.777  21.111  0.00  0.00    +0.000 A 
ATOM     19  C   UNL     1       0.324   9.264  22.375  0.00  0.00    +0.000 A 
ATOM     20  C   UNL     1      -0.368  10.470  22.499  0.00  0.00    +0.000 A 
ATOM     21  C   UNL     1      -0.716  11.207  21.363  0.00  0.00    +0.000 A 
BRANCH  16  23
ATOM     22  C   UNL     1      -1.845  11.023  18.224  0.00  0.00    +0.000 C 
ATOM     23  O   UNL     1      -0.619  11.333  18.879  0.00  0.00    +0.000 OA
ENDBRANCH  16  23
BRANCH  21  24
ATOM     24  O   UNL     1      -1.401  12.377  21.542  0.00  0.00    +0.000 OA
ATOM     25  H   UNL     1      -0.922  13.099  21.106  0.00  0.00    +0.000 HD
ENDBRANCH  21  24
ENDBRANCH   1  18
TORSDOF 4
ENDMDL
MODEL 5
REMARK VINA RESULT:      -8.0      3.130      8.850
REMARK  Name = 
REMARK  5 active torsions:
REMARK  status: ('A' for Active; 'I' for Inactive)
REMARK    1  A    between atoms: C_1  and  O_2
REMARK    2  A    between atoms: O_2  and  C_3
REMARK    3  A    between atoms: C_5  and  C_6
REMARK    4  A    between atoms: C_11  and  C_12
REMARK    5  A    between atoms: C_23  and  O_24
REMARK                            x       y       z     vdW  Elec       q    Type
REMARK                         _______ _______ _______ _____ _____    ______ ____
ROOT
ATOM      1  C   UNL     1       1.083   8.571  20.329  0.00  0.00    +0.000 C 
ATOM      2  C   UNL     1       1.887   7.978  19.436  0.00  0.00    +0.000 C 
ATOM      3  C   UNL     1       2.423   8.521  18.146  0.00  0.00    +0.000 C 
ATOM      4  C   UNL     1       3.261   7.406  17.516  0.00  0.00    +0.000 C 
ATOM      5  C   UNL     1       3.338   6.304  18.531  0.00  0.00    +0.000 C 
ATOM      6  C   UNL     1       4.105   5.201  18.540  0.00  0.00    +0.000 C 
ATOM      7  C   UNL     1       2.420   6.610  19.655  0.00  0.00    +0.000 C 
ATOM      8  O   UNL     1       2.152   5.874  20.586  0.00  0.00    +0.000 OA
ENDROOT
BRANCH   6   9
ATOM      9  C   UNL     1       5.095   4.889  17.501  0.00  0.00    +0.000 A 
ATOM     10  C   UNL     1       4.640   4.356  16.287  0.00  0.00    +0.000 A 
ATOM     11  C   UNL     1       5.534   4.081  15.246  0.00  0.00    +0.000 A 
ATOM     12  C   UNL     1       6.891   4.360  15.399  0.00  0.00    +0.000 A 
ATOM     13  C   UNL     1       7.361   4.870  16.606  0.00  0.00    +0.000 A 
ATOM     14  C   UNL     1       6.475   5.110  17.663  0.00  0.00    +0.000 A 
ATOM     15 BR   UNL     1       7.222   5.674  19.316  0.00  0.00    +0.000 Br
ENDBRANCH   6   9
BRANCH   1  18
ATOM     16  C   UNL     1       0.506  12.304  20.653  0.00  0.00    +0.000 A 
ATOM     17  C   UNL     1       1.029  11.012  20.843  0.00  0.00    +0.000 A 
ATOM     18  C   UNL     1       0.519   9.912  20.147  0.00  0.00    +0.000 A 
ATOM     19  C   UNL     1      -0.536  10.101  19.252  0.00  0.00    +0.000 A 
ATOM     20  C   UNL     1      -1.060  11.379  19.045  0.00  0.00    +0.000 A 
ATOM     21  C   UNL     1      -0.543  12.476  19.739  0.00  0.00    +0.000 A 
BRANCH  16  23
ATOM     22  C   UNL     1       2.288  13.882  20.895  0.00  0.00    +0.000 C 
ATOM     23  O   UNL     1       1.121  13.256  21.419  0.00  0.00    +0.000 OA
ENDBRANCH  16  23
BRANCH  21  24
ATOM     24  O   UNL     1      -1.088  13.706  19.492  0.00  0.00    +0.000 OA
ATOM     25  H   UNL     1      -1.765  13.897  20.159  0.00  0.00    +0.000 HD
ENDBRANCH  21  24
ENDBRANCH   1  18
TORSDOF 4
ENDMDL
MODEL 6
REMARK VINA RESULT:      -7.9      3.163      8.992
REMARK  Name = 
REMARK  5 active torsions:
REMARK  status: ('A' for Active; 'I' for Inactive)
REMARK    1  A    between atoms: C_1  and  O_2
REMARK    2  A    between atoms: O_2  and  C_3
REMARK    3  A    between atoms: C_5  and  C_6
REMARK    4  A    between atoms: C_11  and  C_12
REMARK    5  A    between atoms: C_23  and  O_24
REMARK                            x       y       z     vdW  Elec       q    Type
REMARK                         _______ _______ _______ _____ _____    ______ ____
ROOT
ATOM      1  C   UNL     1       1.412   7.887  20.579  0.00  0.00    +0.000 C 
ATOM      2  C   UNL     1       2.165   7.435  19.567  0.00  0.00    +0.000 C 
ATOM      3  C   UNL     1       2.555   8.134  18.299  0.00  0.00    +0.000 C 
ATOM      4  C   UNL     1       3.393   7.140  17.491  0.00  0.00    +0.000 C 
ATOM      5  C   UNL     1       3.618   5.951  18.377  0.00  0.00    +0.000 C 
ATOM      6  C   UNL     1       4.440   4.903  18.210  0.00  0.00    +0.000 C 
ATOM      7  C   UNL     1       2.787   6.088  19.598  0.00  0.00    +0.000 C 
ATOM      8  O   UNL     1       2.642   5.250  20.468  0.00  0.00    +0.000 OA
ENDROOT
BRANCH   6   9
ATOM      9  C   UNL     1       5.350   4.755  17.066  0.00  0.00    +0.000 A 
ATOM     10  C   UNL     1       4.862   4.145  15.902  0.00  0.00    +0.000 A 
ATOM     11  C   UNL     1       5.672   4.018  14.768  0.00  0.00    +0.000 A 
ATOM     12  C   UNL     1       6.970   4.524  14.776  0.00  0.00    +0.000 A 
ATOM     13  C   UNL     1       7.476   5.115  15.930  0.00  0.00    +0.000 A 
ATOM     14  C   UNL     1       6.682   5.209  17.080  0.00  0.00    +0.000 A 
ATOM     15 BR   UNL     1       7.498   5.903  18.648  0.00  0.00    +0.000 Br
ENDBRANCH   6   9
BRANCH   1  18
ATOM     16  C   UNL     1      -0.239  11.080  21.786  0.00  0.00    +0.000 A 
ATOM     17  C   UNL     1       0.362   9.807  21.777  0.00  0.00    +0.000 A 
ATOM     18  C   UNL     1       0.764   9.202  20.582  0.00  0.00    +0.000 A 
ATOM     19  C   UNL     1       0.554   9.871  19.375  0.00  0.00    +0.000 A 
ATOM     20  C   UNL     1      -0.033  11.138  19.368  0.00  0.00    +0.000 A 
ATOM     21  C   UNL     1      -0.426  11.742  20.565  0.00  0.00    +0.000 A 
BRANCH  16  23
ATOM     22  C   UNL     1      -1.953  11.617  23.366  0.00  0.00    +0.000 C 
ATOM     23  O   UNL     1      -0.571  11.513  23.040  0.00  0.00    +0.000 OA
ENDBRANCH  16  23
BRANCH  21  24
ATOM     24  O   UNL     1      -0.988  12.987  20.501  0.00  0.00    +0.000 OA
ATOM     25  H   UNL     1      -1.113  13.330  21.400  0.00  0.00    +0.000 HD
ENDBRANCH  21  24
ENDBRANCH   1  18
TORSDOF 4
ENDMDL
MODEL 7
REMARK VINA RESULT:      -7.9      3.384      9.121
REMARK  Name = 
REMARK  5 active torsions:
REMARK  status: ('A' for Active; 'I' for Inactive)
REMARK    1  A    between atoms: C_1  and  O_2
REMARK    2  A    between atoms: O_2  and  C_3
REMARK    3  A    between atoms: C_5  and  C_6
REMARK    4  A    between atoms: C_11  and  C_12
REMARK    5  A    between atoms: C_23  and  O_24
REMARK                            x       y       z     vdW  Elec       q    Type
REMARK                         _______ _______ _______ _____ _____    ______ ____
ROOT
ATOM      1  C   UNL     1       0.742   9.367  20.391  0.00  0.00    +0.000 C 
ATOM      2  C   UNL     1       1.503   8.679  19.531  0.00  0.00    +0.000 C 
ATOM      3  C   UNL     1       1.955   9.067  18.155  0.00  0.00    +0.000 C 
ATOM      4  C   UNL     1       2.776   7.892  17.616  0.00  0.00    +0.000 C 
ATOM      5  C   UNL     1       2.931   6.923  18.750  0.00  0.00    +0.000 C 
ATOM      6  C   UNL     1       3.716   5.838  18.847  0.00  0.00    +0.000 C 
ATOM      7  C   UNL     1       2.073   7.353  19.881  0.00  0.00    +0.000 C 
ATOM      8  O   UNL     1       1.872   6.734  20.908  0.00  0.00    +0.000 OA
ENDROOT
BRANCH   6   9
ATOM      9  C   UNL     1       4.650   5.412  17.797  0.00  0.00    +0.000 A 
ATOM     10  C   UNL     1       5.791   6.192  17.563  0.00  0.00    +0.000 A 
ATOM     11  C   UNL     1       6.736   5.809  16.605  0.00  0.00    +0.000 A 
ATOM     12  C   UNL     1       6.563   4.626  15.887  0.00  0.00    +0.000 A 
ATOM     13  C   UNL     1       5.426   3.851  16.094  0.00  0.00    +0.000 A 
ATOM     14  C   UNL     1       4.459   4.252  17.024  0.00  0.00    +0.000 A 
ATOM     15 BR   UNL     1       2.876   3.208  17.140  0.00  0.00    +0.000 Br
ENDBRANCH   6   9
BRANCH   1  18
ATOM     16  C   UNL     1      -1.702  12.014  19.207  0.00  0.00    +0.000 A 
ATOM     17  C   UNL     1      -1.116  10.764  19.484  0.00  0.00    +0.000 A 
ATOM     18  C   UNL     1       0.145  10.670  20.081  0.00  0.00    +0.000 A 
ATOM     19  C   UNL     1       0.838  11.840  20.399  0.00  0.00    +0.000 A 
ATOM     20  C   UNL     1       0.265  13.087  20.139  0.00  0.00    +0.000 A 
ATOM     21  C   UNL     1      -0.998  13.176  19.548  0.00  0.00    +0.000 A 
BRANCH  16  23
ATOM     22  C   UNL     1      -3.002  11.375  17.303  0.00  0.00    +0.000 C 
ATOM     23  O   UNL     1      -2.933  11.916  18.619  0.00  0.00    +0.000 OA
ENDBRANCH  16  23
BRANCH  21  24
ATOM     24  O   UNL     1      -1.514  14.422  19.323  0.00  0.00    +0.000 OA
ATOM     25  H   UNL     1      -2.474  14.355  19.201  0.00  0.00    +0.000 HD
ENDBRANCH  21  24
ENDBRANCH   1  18
TORSDOF 4
ENDMDL
MODEL 8
REMARK VINA RESULT:      -7.9      1.342      1.468
REMARK  Name = 
REMARK  5 active torsions:
REMARK  status: ('A' for Active; 'I' for Inactive)
REMARK    1  A    between atoms: C_1  and  O_2
REMARK    2  A    between atoms: O_2  and  C_3
REMARK    3  A    between atoms: C_5  and  C_6
REMARK    4  A    between atoms: C_11  and  C_12
REMARK    5  A    between atoms: C_23  and  O_24
REMARK                            x       y       z     vdW  Elec       q    Type
REMARK                         _______ _______ _______ _____ _____    ______ ____
ROOT
ATOM      1  C   UNL     1       3.094   7.393  18.023  0.00  0.00    +0.000 C 
ATOM      2  C   UNL     1       2.185   8.064  18.742  0.00  0.00    +0.000 C 
ATOM      3  C   UNL     1       1.595   7.716  20.075  0.00  0.00    +0.000 C 
ATOM      4  C   UNL     1       0.585   8.817  20.409  0.00  0.00    +0.000 C 
ATOM      5  C   UNL     1       0.735   9.869  19.351  0.00  0.00    +0.000 C 
ATOM      6  C   UNL     1       0.220  11.108  19.297  0.00  0.00    +0.000 C 
ATOM      7  C   UNL     1       1.633   9.364  18.284  0.00  0.00    +0.000 C 
ATOM      8  O   UNL     1       1.875   9.915  17.226  0.00  0.00    +0.000 OA
ENDROOT
BRANCH   6   9
ATOM      9  C   UNL     1      -0.604  11.695  20.363  0.00  0.00    +0.000 A 
ATOM     10  C   UNL     1      -0.009  11.934  21.609  0.00  0.00    +0.000 A 
ATOM     11  C   UNL     1      -0.735  12.532  22.645  0.00  0.00    +0.000 A 
ATOM     12  C   UNL     1      -2.057  12.920  22.439  0.00  0.00    +0.000 A 
ATOM     13  C   UNL     1      -2.668  12.671  21.213  0.00  0.00    +0.000 A 
ATOM     14  C   UNL     1      -1.957  12.038  20.187  0.00  0.00    +0.000 A 
ATOM     15 BR   UNL     1      -2.910  11.613  18.599  0.00  0.00    +0.000 Br
ENDBRANCH   6   9
BRANCH   1  18
ATOM     16  C   UNL     1       5.534   4.732  19.180  0.00  0.00    +0.000 A 
ATOM     17  C   UNL     1       5.001   5.968  18.769  0.00  0.00    +0.000 A 
ATOM     18  C   UNL     1       3.652   6.099  18.427  0.00  0.00    +0.000 A 
ATOM     19  C   UNL     1       2.822   4.978  18.487  0.00  0.00    +0.000 A 
ATOM     20  C   UNL     1       3.334   3.747  18.902  0.00  0.00    +0.000 A 
ATOM     21  C   UNL     1       4.682   3.622  19.249  0.00  0.00    +0.000 A 
BRANCH  16  23
ATOM     22  C   UNL     1       7.626   5.867  18.928  0.00  0.00    +0.000 C 
ATOM     23  O   UNL     1       6.870   4.788  19.470  0.00  0.00    +0.000 OA
ENDBRANCH  16  23
BRANCH  21  24
ATOM     24  O   UNL     1       5.129   2.396  19.656  0.00  0.00    +0.000 OA
ATOM     25  H   UNL     1       4.685   2.151  20.484  0.00  0.00    +0.000 HD
ENDBRANCH  21  24
ENDBRANCH   1  18
TORSDOF 4
ENDMDL
MODEL 9
REMARK VINA RESULT:      -7.9      2.457      3.230
REMARK  Name = 
REMARK  5 active torsions:
REMARK  status: ('A' for Active; 'I' for Inactive)
REMARK    1  A    between atoms: C_1  and  O_2
REMARK    2  A    between atoms: O_2  and  C_3
REMARK    3  A    between atoms: C_5  and  C_6
REMARK    4  A    between atoms: C_11  and  C_12
REMARK    5  A    between atoms: C_23  and  O_24
REMARK                            x       y       z     vdW  Elec       q    Type
REMARK                         _______ _______ _______ _____ _____    ______ ____
ROOT
ATOM      1  C   UNL     1       3.600   6.263  18.894  0.00  0.00    +0.000 C 
ATOM      2  C   UNL     1       2.791   7.325  18.784  0.00  0.00    +0.000 C 
ATOM      3  C   UNL     1       2.650   8.287  17.642  0.00  0.00    +0.000 C 
ATOM      4  C   UNL     1       1.605   9.322  18.067  0.00  0.00    +0.000 C 
ATOM      5  C   UNL     1       1.035   8.843  19.370  0.00  0.00    +0.000 C 
ATOM      6  C   UNL     1      -0.033   9.288  20.052  0.00  0.00    +0.000 C 
ATOM      7  C   UNL     1       1.827   7.686  19.854  0.00  0.00    +0.000 C 
ATOM      8  O   UNL     1       1.709   7.133  20.931  0.00  0.00    +0.000 OA
ENDROOT
BRANCH   6   9
ATOM      9  C   UNL     1      -0.906  10.372  19.581  0.00  0.00    +0.000 A 
ATOM     10  C   UNL     1      -1.464  10.268  18.299  0.00  0.00    +0.000 A 
ATOM     11  C   UNL     1      -2.338  11.249  17.818  0.00  0.00    +0.000 A 
ATOM     12  C   UNL     1      -2.683  12.333  18.623  0.00  0.00    +0.000 A 
ATOM     13  C   UNL     1      -2.122  12.461  19.890  0.00  0.00    +0.000 A 
ATOM     14  C   UNL     1      -1.217  11.501  20.360  0.00  0.00    +0.000 A 
ATOM     15 BR   UNL     1      -0.395  11.828  22.041  0.00  0.00    +0.000 Br
ENDBRANCH   6   9
BRANCH   1  18
ATOM     16  C   UNL     1       6.725   6.209  16.748  0.00  0.00    +0.000 A 
ATOM     17  C   UNL     1       5.773   6.589  17.713  0.00  0.00    +0.000 A 
ATOM     18  C   UNL     1       4.579   5.880  17.871  0.00  0.00    +0.000 A 
ATOM     19  C   UNL     1       4.323   4.782  17.048  0.00  0.00    +0.000 A 
ATOM     20  C   UNL     1       5.262   4.388  16.093  0.00  0.00    +0.000 A 
ATOM     21  C   UNL     1       6.458   5.095  15.943  0.00  0.00    +0.000 A 
BRANCH  16  23
ATOM     22  C   UNL     1       7.853   8.134  17.613  0.00  0.00    +0.000 C 
ATOM     23  O   UNL     1       7.829   7.017  16.731  0.00  0.00    +0.000 OA
ENDBRANCH  16  23
BRANCH  21  24
ATOM     24  O   UNL     1       7.345   4.660  14.997  0.00  0.00    +0.000 OA
ATOM     25  H   UNL     1       7.006   3.849  14.588  0.00  0.00    +0.000 HD
ENDBRANCH  21  24
ENDBRANCH   1  18
TORSDOF 4
ENDMDL
