MODEL 1
REMARK VINA RESULT:      -7.3      0.000      0.000
REMARK  Name = 
REMARK  7 active torsions:
REMARK  status: ('A' for Active; 'I' for Inactive)
REMARK    1  A    between atoms: C_1  and  C_2
REMARK    2  A    between atoms: C_5  and  S_6
REMARK    3  A    between atoms: S_6  and  N_9
REMARK    4  A    between atoms: N_9  and  C_10
REMARK    5  A    between atoms: N_9  and  S_11
REMARK    6  A    between atoms: S_11  and  C_14
REMARK    7  A    between atoms: C_17  and  C_18
REMARK                            x       y       z     vdW  Elec       q    Type
REMARK                         _______ _______ _______ _____ _____    ______ ____
ROOT
ATOM      1  N   UNL     1       3.027   4.666  18.054  0.00  0.00    +0.000 NA
ATOM      2  C   UNL     1       1.633   4.144  18.006  0.00  0.00    +0.000 C 
ENDROOT
BRANCH   1   3
ATOM      3  S   UNL     1       4.216   3.431  17.942  0.00  0.00    +0.000 S 
ATOM      4  O   UNL     1       3.558   2.228  17.474  0.00  0.00    +0.000 OA
ATOM      5  O   UNL     1       5.034   3.445  19.138  0.00  0.00    +0.000 OA
BRANCH   3  10
ATOM      6  C   UNL     1       7.785   5.298  13.378  0.00  0.00    +0.000 C 
ATOM      7  C   UNL     1       6.936   4.792  14.509  0.00  0.00    +0.000 A 
ATOM      8  C   UNL     1       5.707   4.171  14.260  0.00  0.00    +0.000 A 
ATOM      9  C   UNL     1       4.904   3.746  15.317  0.00  0.00    +0.000 A 
ATOM     10  C   UNL     1       5.340   3.907  16.635  0.00  0.00    +0.000 A 
ATOM     11  C   UNL     1       6.582   4.491  16.902  0.00  0.00    +0.000 A 
ATOM     12  C   UNL     1       7.366   4.950  15.835  0.00  0.00    +0.000 A 
ENDBRANCH   3  10
ENDBRANCH   1   3
BRANCH   1  13
ATOM     13  S   UNL     1       3.327   5.617  19.471  0.00  0.00    +0.000 S 
ATOM     14  O   UNL     1       2.662   4.951  20.589  0.00  0.00    +0.000 OA
ATOM     15  O   UNL     1       4.706   5.995  19.553  0.00  0.00    +0.000 OA
BRANCH  13  16
ATOM     16  C   UNL     1       2.432   7.152  19.249  0.00  0.00    +0.000 A 
ATOM     17  C   UNL     1       1.815   7.717  20.371  0.00  0.00    +0.000 A 
ATOM     18  C   UNL     1       1.105   8.910  20.256  0.00  0.00    +0.000 A 
ATOM     19  C   UNL     1       1.013   9.562  19.020  0.00  0.00    +0.000 A 
ATOM     20  C   UNL     1       0.211  10.821  18.878  0.00  0.00    +0.000 C 
ATOM     21  C   UNL     1       1.688   9.023  17.914  0.00  0.00    +0.000 A 
ATOM     22  C   UNL     1       2.433   7.840  18.032  0.00  0.00    +0.000 A 
ENDBRANCH  13  16
ENDBRANCH   1  13
TORSDOF 4
ENDMDL
MODEL 2
REMARK VINA RESULT:      -7.3      0.337      1.083
REMARK  Name = 
REMARK  7 active torsions:
REMARK  status: ('A' for Active; 'I' for Inactive)
REMARK    1  A    between atoms: C_1  and  C_2
REMARK    2  A    between atoms: C_5  and  S_6
REMARK    3  A    between atoms: S_6  and  N_9
REMARK    4  A    between atoms: N_9  and  C_10
REMARK    5  A    between atoms: N_9  and  S_11
REMARK    6  A    between atoms: S_11  and  C_14
REMARK    7  A    between atoms: C_17  and  C_18
REMARK                            x       y       z     vdW  Elec       q    Type
REMARK                         _______ _______ _______ _____ _____    ______ ____
ROOT
ATOM      1  N   UNL     1       2.845   4.365  18.429  0.00  0.00    +0.000 NA
ATOM      2  C   UNL     1       1.539   3.675  18.613  0.00  0.00    +0.000 C 
ENDROOT
BRANCH   1   3
ATOM      3  S   UNL     1       4.155   3.281  18.186  0.00  0.00    +0.000 S 
ATOM      4  O   UNL     1       3.607   2.030  17.701  0.00  0.00    +0.000 OA
ATOM      5  O   UNL     1       5.043   3.340  19.330  0.00  0.00    +0.000 OA
BRANCH   3  10
ATOM      6  C   UNL     1       7.732   5.247  13.670  0.00  0.00    +0.000 C 
ATOM      7  C   UNL     1       6.822   4.810  14.782  0.00  0.00    +0.000 A 
ATOM      8  C   UNL     1       7.246   4.858  16.115  0.00  0.00    +0.000 A 
ATOM      9  C   UNL     1       6.412   4.407  17.137  0.00  0.00    +0.000 A 
ATOM     10  C   UNL     1       5.131   3.936  16.838  0.00  0.00    +0.000 A 
ATOM     11  C   UNL     1       4.676   3.916  15.516  0.00  0.00    +0.000 A 
ATOM     12  C   UNL     1       5.534   4.336  14.490  0.00  0.00    +0.000 A 
ENDBRANCH   3  10
ENDBRANCH   1   3
BRANCH   1  13
ATOM     13  S   UNL     1       3.222   5.426  19.746  0.00  0.00    +0.000 S 
ATOM     14  O   UNL     1       2.532   4.913  20.927  0.00  0.00    +0.000 OA
ATOM     15  O   UNL     1       4.622   5.724  19.781  0.00  0.00    +0.000 OA
BRANCH  13  16
ATOM     16  C   UNL     1       2.420   6.986  19.385  0.00  0.00    +0.000 A 
ATOM     17  C   UNL     1       1.801   7.663  20.442  0.00  0.00    +0.000 A 
ATOM     18  C   UNL     1       1.161   8.880  20.218  0.00  0.00    +0.000 A 
ATOM     19  C   UNL     1       1.142   9.444  18.936  0.00  0.00    +0.000 A 
ATOM     20  C   UNL     1       0.415  10.730  18.678  0.00  0.00    +0.000 C 
ATOM     21  C   UNL     1       1.820   8.791  17.896  0.00  0.00    +0.000 A 
ATOM     22  C   UNL     1       2.494   7.583  18.123  0.00  0.00    +0.000 A 
ENDBRANCH  13  16
ENDBRANCH   1  13
TORSDOF 4
ENDMDL
MODEL 3
REMARK VINA RESULT:      -7.3      0.107      1.036
REMARK  Name = 
REMARK  7 active torsions:
REMARK  status: ('A' for Active; 'I' for Inactive)
REMARK    1  A    between atoms: C_1  and  C_2
REMARK    2  A    between atoms: C_5  and  S_6
REMARK    3  A    between atoms: S_6  and  N_9
REMARK    4  A    between atoms: N_9  and  C_10
REMARK    5  A    between atoms: N_9  and  S_11
REMARK    6  A    between atoms: S_11  and  C_14
REMARK    7  A    between atoms: C_17  and  C_18
REMARK                            x       y       z     vdW  Elec       q    Type
REMARK                         _______ _______ _______ _____ _____    ______ ____
ROOT
ATOM      1  N   UNL     1       3.007   4.635  18.112  0.00  0.00    +0.000 NA
ATOM      2  C   UNL     1       1.603   4.140  18.080  0.00  0.00    +0.000 C 
ENDROOT
BRANCH   1   3
ATOM      3  S   UNL     1       4.171   3.381  17.958  0.00  0.00    +0.000 S 
ATOM      4  O   UNL     1       3.488   2.207  17.455  0.00  0.00    +0.000 OA
ATOM      5  O   UNL     1       4.993   3.343  19.151  0.00  0.00    +0.000 OA
BRANCH   3  10
ATOM      6  C   UNL     1       7.754   5.304  13.428  0.00  0.00    +0.000 C 
ATOM      7  C   UNL     1       6.902   4.785  14.551  0.00  0.00    +0.000 A 
ATOM      8  C   UNL     1       5.686   4.144  14.290  0.00  0.00    +0.000 A 
ATOM      9  C   UNL     1       4.880   3.706  15.340  0.00  0.00    +0.000 A 
ATOM     10  C   UNL     1       5.300   3.875  16.662  0.00  0.00    +0.000 A 
ATOM     11  C   UNL     1       6.529   4.479  16.941  0.00  0.00    +0.000 A 
ATOM     12  C   UNL     1       7.317   4.951  15.882  0.00  0.00    +0.000 A 
ENDBRANCH   3  10
ENDBRANCH   1   3
BRANCH   1  13
ATOM     13  S   UNL     1       3.349   5.556  19.540  0.00  0.00    +0.000 S 
ATOM     14  O   UNL     1       2.693   4.882  20.658  0.00  0.00    +0.000 OA
ATOM     15  O   UNL     1       4.736   5.909  19.603  0.00  0.00    +0.000 OA
BRANCH  13  16
ATOM     16  C   UNL     1       2.477   7.110  19.361  0.00  0.00    +0.000 A 
ATOM     17  C   UNL     1       2.446   7.700  18.091  0.00  0.00    +0.000 A 
ATOM     18  C   UNL     1       1.783   8.909  17.894  0.00  0.00    +0.000 A 
ATOM     19  C   UNL     1       1.131   9.540  18.961  0.00  0.00    +0.000 A 
ATOM     20  C   UNL     1       0.456  10.865  18.768  0.00  0.00    +0.000 C 
ATOM     21  C   UNL     1       1.112   8.911  20.216  0.00  0.00    +0.000 A 
ATOM     22  C   UNL     1       1.749   7.676  20.411  0.00  0.00    +0.000 A 
ENDBRANCH  13  16
ENDBRANCH   1  13
TORSDOF 4
ENDMDL
MODEL 4
REMARK VINA RESULT:      -7.3      1.835      2.176
REMARK  Name = 
REMARK  7 active torsions:
REMARK  status: ('A' for Active; 'I' for Inactive)
REMARK    1  A    between atoms: C_1  and  C_2
REMARK    2  A    between atoms: C_5  and  S_6
REMARK    3  A    between atoms: S_6  and  N_9
REMARK    4  A    between atoms: N_9  and  C_10
REMARK    5  A    between atoms: N_9  and  S_11
REMARK    6  A    between atoms: S_11  and  C_14
REMARK    7  A    between atoms: C_17  and  C_18
REMARK                            x       y       z     vdW  Elec       q    Type
REMARK                         _______ _______ _______ _____ _____    ______ ____
ROOT
ATOM      1  N   UNL     1       2.950   4.712  17.988  0.00  0.00    +0.000 NA
ATOM      2  C   UNL     1       1.825   3.800  17.640  0.00  0.00    +0.000 C 
ENDROOT
BRANCH   1   3
ATOM      3  S   UNL     1       4.490   3.957  17.883  0.00  0.00    +0.000 S 
ATOM      4  O   UNL     1       4.575   3.309  16.591  0.00  0.00    +0.000 OA
ATOM      5  O   UNL     1       4.760   3.250  19.119  0.00  0.00    +0.000 OA
BRANCH   3  10
ATOM      6  C   UNL     1       8.382   8.637  17.916  0.00  0.00    +0.000 C 
ATOM      7  C   UNL     1       7.456   7.456  17.872  0.00  0.00    +0.000 A 
ATOM      8  C   UNL     1       6.296   7.483  17.089  0.00  0.00    +0.000 A 
ATOM      9  C   UNL     1       5.418   6.401  17.091  0.00  0.00    +0.000 A 
ATOM     10  C   UNL     1       5.710   5.264  17.850  0.00  0.00    +0.000 A 
ATOM     11  C   UNL     1       6.882   5.204  18.609  0.00  0.00    +0.000 A 
ATOM     12  C   UNL     1       7.741   6.311  18.632  0.00  0.00    +0.000 A 
ENDBRANCH   3  10
ENDBRANCH   1   3
BRANCH   1  13
ATOM     13  S   UNL     1       2.767   5.415  19.561  0.00  0.00    +0.000 S 
ATOM     14  O   UNL     1       1.669   4.714  20.224  0.00  0.00    +0.000 OA
ATOM     15  O   UNL     1       4.037   5.572  20.204  0.00  0.00    +0.000 OA
BRANCH  13  16
ATOM     16  C   UNL     1       2.162   7.081  19.303  0.00  0.00    +0.000 A 
ATOM     17  C   UNL     1       1.634   7.762  20.406  0.00  0.00    +0.000 A 
ATOM     18  C   UNL     1       1.148   9.060  20.263  0.00  0.00    +0.000 A 
ATOM     19  C   UNL     1       1.196   9.701  19.018  0.00  0.00    +0.000 A 
ATOM     20  C   UNL     1       0.633  11.079  18.846  0.00  0.00    +0.000 C 
ATOM     21  C   UNL     1       1.786   9.035  17.933  0.00  0.00    +0.000 A 
ATOM     22  C   UNL     1       2.307   7.741  18.079  0.00  0.00    +0.000 A 
ENDBRANCH  13  16
ENDBRANCH   1  13
TORSDOF 4
ENDMDL
MODEL 5
REMARK VINA RESULT:      -7.2      1.310      2.185
REMARK  Name = 
REMARK  7 active torsions:
REMARK  status: ('A' for Active; 'I' for Inactive)
REMARK    1  A    between atoms: C_1  and  C_2
REMARK    2  A    between atoms: C_5  and  S_6
REMARK    3  A    between atoms: S_6  and  N_9
REMARK    4  A    between atoms: N_9  and  C_10
REMARK    5  A    between atoms: N_9  and  S_11
REMARK    6  A    between atoms: S_11  and  C_14
REMARK    7  A    between atoms: C_17  and  C_18
REMARK                            x       y       z     vdW  Elec       q    Type
REMARK                         _______ _______ _______ _____ _____    ______ ____
ROOT
ATOM      1  N   UNL     1       2.958   3.547  19.027  0.00  0.00    +0.000 NA
ATOM      2  C   UNL     1       2.659   2.088  19.024  0.00  0.00    +0.000 C 
ENDROOT
BRANCH   1   3
ATOM      3  S   UNL     1       4.619   3.897  19.290  0.00  0.00    +0.000 S 
ATOM      4  O   UNL     1       5.259   2.678  19.742  0.00  0.00    +0.000 OA
ATOM      5  O   UNL     1       4.734   5.143  20.021  0.00  0.00    +0.000 OA
BRANCH   3  10
ATOM      6  C   UNL     1       7.302   4.839  13.908  0.00  0.00    +0.000 C 
ATOM      7  C   UNL     1       6.617   4.657  15.233  0.00  0.00    +0.000 A 
ATOM      8  C   UNL     1       7.319   4.826  16.431  0.00  0.00    +0.000 A 
ATOM      9  C   UNL     1       6.687   4.610  17.655  0.00  0.00    +0.000 A 
ATOM     10  C   UNL     1       5.336   4.256  17.692  0.00  0.00    +0.000 A 
ATOM     11  C   UNL     1       4.609   4.119  16.506  0.00  0.00    +0.000 A 
ATOM     12  C   UNL     1       5.260   4.301  15.279  0.00  0.00    +0.000 A 
ENDBRANCH   3  10
ENDBRANCH   1   3
BRANCH   1  13
ATOM     13  S   UNL     1       2.003   4.413  20.185  0.00  0.00    +0.000 S 
ATOM     14  O   UNL     1       0.627   3.939  20.055  0.00  0.00    +0.000 OA
ATOM     15  O   UNL     1       2.653   4.450  21.461  0.00  0.00    +0.000 OA
BRANCH  13  16
ATOM     16  C   UNL     1       1.959   6.116  19.631  0.00  0.00    +0.000 A 
ATOM     17  C   UNL     1       2.192   6.368  18.274  0.00  0.00    +0.000 A 
ATOM     18  C   UNL     1       2.170   7.674  17.789  0.00  0.00    +0.000 A 
ATOM     19  C   UNL     1       1.902   8.745  18.651  0.00  0.00    +0.000 A 
ATOM     20  C   UNL     1       1.924  10.157  18.146  0.00  0.00    +0.000 C 
ATOM     21  C   UNL     1       1.606   8.478  19.997  0.00  0.00    +0.000 A 
ATOM     22  C   UNL     1       1.593   7.162  20.483  0.00  0.00    +0.000 A 
ENDBRANCH  13  16
ENDBRANCH   1  13
TORSDOF 4
ENDMDL
MODEL 6
REMARK VINA RESULT:      -7.2      1.169      1.786
REMARK  Name = 
REMARK  7 active torsions:
REMARK  status: ('A' for Active; 'I' for Inactive)
REMARK    1  A    between atoms: C_1  and  C_2
REMARK    2  A    between atoms: C_5  and  S_6
REMARK    3  A    between atoms: S_6  and  N_9
REMARK    4  A    between atoms: N_9  and  C_10
REMARK    5  A    between atoms: N_9  and  S_11
REMARK    6  A    between atoms: S_11  and  C_14
REMARK    7  A    between atoms: C_17  and  C_18
REMARK                            x       y       z     vdW  Elec       q    Type
REMARK                         _______ _______ _______ _____ _____    ______ ____
ROOT
ATOM      1  N   UNL     1       3.058   3.849  18.862  0.00  0.00    +0.000 NA
ATOM      2  C   UNL     1       2.764   2.393  18.767  0.00  0.00    +0.000 C 
ENDROOT
BRANCH   1   3
ATOM      3  S   UNL     1       4.724   4.190  19.107  0.00  0.00    +0.000 S 
ATOM      4  O   UNL     1       5.347   2.988  19.622  0.00  0.00    +0.000 OA
ATOM      5  O   UNL     1       4.857   5.472  19.770  0.00  0.00    +0.000 OA
BRANCH   3  10
ATOM      6  C   UNL     1       7.391   4.786  13.668  0.00  0.00    +0.000 C 
ATOM      7  C   UNL     1       6.715   4.691  15.006  0.00  0.00    +0.000 A 
ATOM      8  C   UNL     1       7.452   4.804  16.190  0.00  0.00    +0.000 A 
ATOM      9  C   UNL     1       6.824   4.668  17.427  0.00  0.00    +0.000 A 
ATOM     10  C   UNL     1       5.445   4.454  17.492  0.00  0.00    +0.000 A 
ATOM     11  C   UNL     1       4.686   4.377  16.320  0.00  0.00    +0.000 A 
ATOM     12  C   UNL     1       5.330   4.476  15.079  0.00  0.00    +0.000 A 
ENDBRANCH   3  10
ENDBRANCH   1   3
BRANCH   1  13
ATOM     13  S   UNL     1       2.130   4.630  20.099  0.00  0.00    +0.000 S 
ATOM     14  O   UNL     1       0.779   4.078  20.042  0.00  0.00    +0.000 OA
ATOM     15  O   UNL     1       2.856   4.677  21.333  0.00  0.00    +0.000 OA
BRANCH  13  16
ATOM     16  C   UNL     1       1.951   6.340  19.596  0.00  0.00    +0.000 A 
ATOM     17  C   UNL     1       1.574   7.272  20.570  0.00  0.00    +0.000 A 
ATOM     18  C   UNL     1       1.419   8.615  20.234  0.00  0.00    +0.000 A 
ATOM     19  C   UNL     1       1.653   9.048  18.923  0.00  0.00    +0.000 A 
ATOM     20  C   UNL     1       1.442  10.483  18.543  0.00  0.00    +0.000 C 
ATOM     21  C   UNL     1       2.093   8.119  17.968  0.00  0.00    +0.000 A 
ATOM     22  C   UNL     1       2.283   6.771  18.308  0.00  0.00    +0.000 A 
ENDBRANCH  13  16
ENDBRANCH   1  13
TORSDOF 4
ENDMDL
MODEL 7
REMARK VINA RESULT:      -7.1      1.810      2.354
REMARK  Name = 
REMARK  7 active torsions:
REMARK  status: ('A' for Active; 'I' for Inactive)
REMARK    1  A    between atoms: C_1  and  C_2
REMARK    2  A    between atoms: C_5  and  S_6
REMARK    3  A    between atoms: S_6  and  N_9
REMARK    4  A    between atoms: N_9  and  C_10
REMARK    5  A    between atoms: N_9  and  S_11
REMARK    6  A    between atoms: S_11  and  C_14
REMARK    7  A    between atoms: C_17  and  C_18
REMARK                            x       y       z     vdW  Elec       q    Type
REMARK                         _______ _______ _______ _____ _____    ______ ____
ROOT
ATOM      1  N   UNL     1       2.945   4.490  18.208  0.00  0.00    +0.000 NA
ATOM      2  C   UNL     1       1.833   3.533  17.952  0.00  0.00    +0.000 C 
ENDROOT
BRANCH   1   3
ATOM      3  S   UNL     1       4.501   3.782  18.036  0.00  0.00    +0.000 S 
ATOM      4  O   UNL     1       4.540   3.115  16.751  0.00  0.00    +0.000 OA
ATOM      5  O   UNL     1       4.856   3.104  19.267  0.00  0.00    +0.000 OA
BRANCH   3  10
ATOM      6  C   UNL     1       8.229   8.586  17.768  0.00  0.00    +0.000 C 
ATOM      7  C   UNL     1       7.344   7.373  17.801  0.00  0.00    +0.000 A 
ATOM      8  C   UNL     1       6.194   7.303  17.007  0.00  0.00    +0.000 A 
ATOM      9  C   UNL     1       5.353   6.194  17.079  0.00  0.00    +0.000 A 
ATOM     10  C   UNL     1       5.675   5.126  17.920  0.00  0.00    +0.000 A 
ATOM     11  C   UNL     1       6.840   5.161  18.692  0.00  0.00    +0.000 A 
ATOM     12  C   UNL     1       7.660   6.296  18.644  0.00  0.00    +0.000 A 
ENDBRANCH   3  10
ENDBRANCH   1   3
BRANCH   1  13
ATOM     13  S   UNL     1       2.828   5.234  19.769  0.00  0.00    +0.000 S 
ATOM     14  O   UNL     1       1.746   4.565  20.488  0.00  0.00    +0.000 OA
ATOM     15  O   UNL     1       4.123   5.389  20.362  0.00  0.00    +0.000 OA
BRANCH  13  16
ATOM     16  C   UNL     1       2.237   6.902  19.492  0.00  0.00    +0.000 A 
ATOM     17  C   UNL     1       2.281   7.402  18.185  0.00  0.00    +0.000 A 
ATOM     18  C   UNL     1       1.835   8.693  17.911  0.00  0.00    +0.000 A 
ATOM     19  C   UNL     1       1.326   9.498  18.938  0.00  0.00    +0.000 A 
ATOM     20  C   UNL     1       0.888  10.905  18.661  0.00  0.00    +0.000 C 
ATOM     21  C   UNL     1       1.225   8.966  20.233  0.00  0.00    +0.000 A 
ATOM     22  C   UNL     1       1.642   7.655  20.507  0.00  0.00    +0.000 A 
ENDBRANCH  13  16
ENDBRANCH   1  13
TORSDOF 4
ENDMDL
MODEL 8
REMARK VINA RESULT:      -7.0      2.114      5.461
REMARK  Name = 
REMARK  7 active torsions:
REMARK  status: ('A' for Active; 'I' for Inactive)
REMARK    1  A    between atoms: C_1  and  C_2
REMARK    2  A    between atoms: C_5  and  S_6
REMARK    3  A    between atoms: S_6  and  N_9
REMARK    4  A    between atoms: N_9  and  C_10
REMARK    5  A    between atoms: N_9  and  S_11
REMARK    6  A    between atoms: S_11  and  C_14
REMARK    7  A    between atoms: C_17  and  C_18
REMARK                            x       y       z     vdW  Elec       q    Type
REMARK                         _______ _______ _______ _____ _____    ______ ____
ROOT
ATOM      1  N   UNL     1       2.987   3.331  20.521  0.00  0.00    +0.000 NA
ATOM      2  C   UNL     1       2.544   2.466  21.649  0.00  0.00    +0.000 C 
ENDROOT
BRANCH   1   3
ATOM      3  S   UNL     1       1.690   3.869  19.532  0.00  0.00    +0.000 S 
ATOM      4  O   UNL     1       0.475   3.790  20.317  0.00  0.00    +0.000 OA
ATOM      5  O   UNL     1       1.801   3.256  18.223  0.00  0.00    +0.000 OA
BRANCH   3  10
ATOM      6  C   UNL     1       2.312   9.785  18.243  0.00  0.00    +0.000 C 
ATOM      7  C   UNL     1       2.209   8.326  18.584  0.00  0.00    +0.000 A 
ATOM      8  C   UNL     1       2.424   7.346  17.609  0.00  0.00    +0.000 A 
ATOM      9  C   UNL     1       2.281   5.995  17.923  0.00  0.00    +0.000 A 
ATOM     10  C   UNL     1       1.955   5.611  19.226  0.00  0.00    +0.000 A 
ATOM     11  C   UNL     1       1.774   6.574  20.222  0.00  0.00    +0.000 A 
ATOM     12  C   UNL     1       1.882   7.931  19.890  0.00  0.00    +0.000 A 
ENDBRANCH   3  10
ENDBRANCH   1   3
BRANCH   1  13
ATOM     13  S   UNL     1       4.178   2.560  19.527  0.00  0.00    +0.000 S 
ATOM     14  O   UNL     1       5.156   1.943  20.421  0.00  0.00    +0.000 OA
ATOM     15  O   UNL     1       3.561   1.806  18.477  0.00  0.00    +0.000 OA
BRANCH  13  16
ATOM     16  C   UNL     1       5.073   3.872  18.699  0.00  0.00    +0.000 A 
ATOM     17  C   UNL     1       5.757   4.799  19.494  0.00  0.00    +0.000 A 
ATOM     18  C   UNL     1       6.469   5.840  18.903  0.00  0.00    +0.000 A 
ATOM     19  C   UNL     1       6.517   5.963  17.509  0.00  0.00    +0.000 A 
ATOM     20  C   UNL     1       7.240   7.109  16.867  0.00  0.00    +0.000 C 
ATOM     21  C   UNL     1       5.881   4.993  16.718  0.00  0.00    +0.000 A 
ATOM     22  C   UNL     1       5.192   3.923  17.307  0.00  0.00    +0.000 A 
ENDBRANCH  13  16
ENDBRANCH   1  13
TORSDOF 4
ENDMDL
MODEL 9
REMARK VINA RESULT:      -6.9      1.767      2.133
REMARK  Name = 
REMARK  7 active torsions:
REMARK  status: ('A' for Active; 'I' for Inactive)
REMARK    1  A    between atoms: C_1  and  C_2
REMARK    2  A    between atoms: C_5  and  S_6
REMARK    3  A    between atoms: S_6  and  N_9
REMARK    4  A    between atoms: N_9  and  C_10
REMARK    5  A    between atoms: N_9  and  S_11
REMARK    6  A    between atoms: S_11  and  C_14
REMARK    7  A    between atoms: C_17  and  C_18
REMARK                            x       y       z     vdW  Elec       q    Type
REMARK                         _______ _______ _______ _____ _____    ______ ____
ROOT
ATOM      1  N   UNL     1       2.260   3.388  18.723  0.00  0.00    +0.000 NA
ATOM      2  C   UNL     1       1.181   2.373  18.569  0.00  0.00    +0.000 C 
ENDROOT
BRANCH   1   3
ATOM      3  S   UNL     1       3.831   2.698  18.810  0.00  0.00    +0.000 S 
ATOM      4  O   UNL     1       3.933   1.703  17.763  0.00  0.00    +0.000 OA
ATOM      5  O   UNL     1       4.143   2.396  20.193  0.00  0.00    +0.000 OA
BRANCH   3  10
ATOM      6  C   UNL     1       7.486   7.293  17.204  0.00  0.00    +0.000 C 
ATOM      7  C   UNL     1       6.628   6.125  17.599  0.00  0.00    +0.000 A 
ATOM      8  C   UNL     1       5.829   5.471  16.655  0.00  0.00    +0.000 A 
ATOM      9  C   UNL     1       5.000   4.418  17.040  0.00  0.00    +0.000 A 
ATOM     10  C   UNL     1       4.990   3.986  18.369  0.00  0.00    +0.000 A 
ATOM     11  C   UNL     1       5.810   4.602  19.318  0.00  0.00    +0.000 A 
ATOM     12  C   UNL     1       6.612   5.685  18.932  0.00  0.00    +0.000 A 
ENDBRANCH   3  10
ENDBRANCH   1   3
BRANCH   1  13
ATOM     13  S   UNL     1       2.011   4.412  20.099  0.00  0.00    +0.000 S 
ATOM     14  O   UNL     1       0.649   4.177  20.573  0.00  0.00    +0.000 OA
ATOM     15  O   UNL     1       3.126   4.346  20.996  0.00  0.00    +0.000 OA
BRANCH  13  16
ATOM     16  C   UNL     1       2.002   6.093  19.483  0.00  0.00    +0.000 A 
ATOM     17  C   UNL     1       1.666   7.115  20.379  0.00  0.00    +0.000 A 
ATOM     18  C   UNL     1       1.642   8.442  19.955  0.00  0.00    +0.000 A 
ATOM     19  C   UNL     1       1.967   8.767  18.632  0.00  0.00    +0.000 A 
ATOM     20  C   UNL     1       1.897  10.187  18.155  0.00  0.00    +0.000 C 
ATOM     21  C   UNL     1       2.365   7.744  17.757  0.00  0.00    +0.000 A 
ATOM     22  C   UNL     1       2.423   6.411  18.189  0.00  0.00    +0.000 A 
ENDBRANCH  13  16
ENDBRANCH   1  13
TORSDOF 4
ENDMDL
