MODEL 1
REMARK VINA RESULT:      -6.8      0.000      0.000
REMARK  Name = 
REMARK  5 active torsions:
REMARK  status: ('A' for Active; 'I' for Inactive)
REMARK    1  A    between atoms: C_1  and  O_2
REMARK    2  A    between atoms: O_2  and  C_3
REMARK    3  A    between atoms: C_5  and  C_6
REMARK    4  A    between atoms: C_7  and  C_8
REMARK    5  A    between atoms: C_16  and  O_17
REMARK                            x       y       z     vdW  Elec       q    Type
REMARK                         _______ _______ _______ _____ _____    ______ ____
ROOT
ATOM      1  C   UNL     1       6.982   5.742  15.897  0.00  0.00    +0.000 A 
ATOM      2  C   UNL     1       5.997   5.301  16.796  0.00  0.00    +0.000 A 
ATOM      3  C   UNL     1       5.097   4.276  16.460  0.00  0.00    +0.000 A 
ATOM      4  C   UNL     1       5.221   3.662  15.211  0.00  0.00    +0.000 A 
ATOM      5  C   UNL     1       6.210   4.083  14.330  0.00  0.00    +0.000 A 
ATOM      6  F   UNL     1       6.333   3.473  13.140  0.00  0.00    +0.000 F 
ATOM      7  C   UNL     1       7.091   5.114  14.657  0.00  0.00    +0.000 A 
ENDROOT
BRANCH   1   9
ATOM      8  C   UNL     1       7.380   7.315  17.629  0.00  0.00    +0.000 C 
ATOM      9  O   UNL     1       7.780   6.738  16.393  0.00  0.00    +0.000 OA
ENDBRANCH   1   9
BRANCH   3  10
ATOM     10  C   UNL     1       4.076   3.771  17.393  0.00  0.00    +0.000 C 
ATOM     11  C   UNL     1       3.715   4.376  18.537  0.00  0.00    +0.000 C 
BRANCH  11  12
ATOM     12  C   UNL     1       2.715   3.834  19.401  0.00  0.00    +0.000 A 
ATOM     13  C   UNL     1       1.333   3.969  19.401  0.00  0.00    +0.000 A 
ATOM     14  C   UNL     1       0.693   3.245  20.450  0.00  0.00    +0.000 A 
ATOM     15  C   UNL     1       1.597   2.571  21.233  0.00  0.00    +0.000 A 
ATOM     16  S   UNL     1       3.204   2.812  20.707  0.00  0.00    +0.000 S 
ENDBRANCH  11  12
ENDBRANCH   3  10
BRANCH   7  17
ATOM     17  O   UNL     1       8.059   5.448  13.751  0.00  0.00    +0.000 OA
ATOM     18  H   UNL     1       8.910   5.461  14.229  0.00  0.00    +0.000 HD
ENDBRANCH   7  17
TORSDOF 4
ENDMDL
MODEL 2
REMARK VINA RESULT:      -6.8      0.871      1.107
REMARK  Name = 
REMARK  5 active torsions:
REMARK  status: ('A' for Active; 'I' for Inactive)
REMARK    1  A    between atoms: C_1  and  O_2
REMARK    2  A    between atoms: O_2  and  C_3
REMARK    3  A    between atoms: C_5  and  C_6
REMARK    4  A    between atoms: C_7  and  C_8
REMARK    5  A    between atoms: C_16  and  O_17
REMARK                            x       y       z     vdW  Elec       q    Type
REMARK                         _______ _______ _______ _____ _____    ______ ____
ROOT
ATOM      1  C   UNL     1       6.894   5.937  16.173  0.00  0.00    +0.000 A 
ATOM      2  C   UNL     1       5.876   5.616  17.087  0.00  0.00    +0.000 A 
ATOM      3  C   UNL     1       4.938   4.605  16.821  0.00  0.00    +0.000 A 
ATOM      4  C   UNL     1       5.056   3.881  15.631  0.00  0.00    +0.000 A 
ATOM      5  C   UNL     1       6.076   4.184  14.737  0.00  0.00    +0.000 A 
ATOM      6  F   UNL     1       6.193   3.471  13.606  0.00  0.00    +0.000 F 
ATOM      7  C   UNL     1       6.996   5.202  14.993  0.00  0.00    +0.000 A 
ENDROOT
BRANCH   1   9
ATOM      8  C   UNL     1       7.753   7.187  17.999  0.00  0.00    +0.000 C 
ATOM      9  O   UNL     1       7.727   6.937  16.599  0.00  0.00    +0.000 OA
ENDBRANCH   1   9
BRANCH   3  10
ATOM     10  C   UNL     1       3.881   4.224  17.773  0.00  0.00    +0.000 C 
ATOM     11  C   UNL     1       4.096   3.643  18.965  0.00  0.00    +0.000 C 
BRANCH  11  12
ATOM     12  C   UNL     1       3.025   3.297  19.845  0.00  0.00    +0.000 A 
ATOM     13  C   UNL     1       3.028   2.751  21.121  0.00  0.00    +0.000 A 
ATOM     14  C   UNL     1       1.722   2.566  21.662  0.00  0.00    +0.000 A 
ATOM     15  C   UNL     1       0.743   2.974  20.789  0.00  0.00    +0.000 A 
ATOM     16  S   UNL     1       1.398   3.571  19.329  0.00  0.00    +0.000 S 
ENDBRANCH  11  12
ENDBRANCH   3  10
BRANCH   7  17
ATOM     17  O   UNL     1       7.992   5.416  14.082  0.00  0.00    +0.000 OA
ATOM     18  H   UNL     1       7.564   5.637  13.233  0.00  0.00    +0.000 HD
ENDBRANCH   7  17
TORSDOF 4
ENDMDL
MODEL 3
REMARK VINA RESULT:      -6.4      4.687      5.906
REMARK  Name = 
REMARK  5 active torsions:
REMARK  status: ('A' for Active; 'I' for Inactive)
REMARK    1  A    between atoms: C_1  and  O_2
REMARK    2  A    between atoms: O_2  and  C_3
REMARK    3  A    between atoms: C_5  and  C_6
REMARK    4  A    between atoms: C_7  and  C_8
REMARK    5  A    between atoms: C_16  and  O_17
REMARK                            x       y       z     vdW  Elec       q    Type
REMARK                         _______ _______ _______ _____ _____    ______ ____
ROOT
ATOM      1  C   UNL     1       4.381   3.852  19.234  0.00  0.00    +0.000 A 
ATOM      2  C   UNL     1       3.748   5.016  19.701  0.00  0.00    +0.000 A 
ATOM      3  C   UNL     1       2.386   5.029  20.042  0.00  0.00    +0.000 A 
ATOM      4  C   UNL     1       1.663   3.837  19.947  0.00  0.00    +0.000 A 
ATOM      5  C   UNL     1       2.293   2.680  19.506  0.00  0.00    +0.000 A 
ATOM      6  F   UNL     1       1.595   1.536  19.436  0.00  0.00    +0.000 F 
ATOM      7  C   UNL     1       3.642   2.672  19.149  0.00  0.00    +0.000 A 
ENDROOT
BRANCH   1   9
ATOM      8  C   UNL     1       6.250   5.314  19.178  0.00  0.00    +0.000 C 
ATOM      9  O   UNL     1       5.713   4.015  18.962  0.00  0.00    +0.000 OA
ENDBRANCH   1   9
BRANCH   3  10
ATOM     10  C   UNL     1       1.704   6.225  20.565  0.00  0.00    +0.000 C 
ATOM     11  C   UNL     1       1.928   7.482  20.145  0.00  0.00    +0.000 C 
BRANCH  11  12
ATOM     12  C   UNL     1       1.231   8.601  20.693  0.00  0.00    +0.000 A 
ATOM     13  C   UNL     1       0.827   8.883  21.990  0.00  0.00    +0.000 A 
ATOM     14  C   UNL     1       0.153  10.134  22.115  0.00  0.00    +0.000 A 
ATOM     15  C   UNL     1       0.053  10.785  20.910  0.00  0.00    +0.000 A 
ATOM     16  S   UNL     1       0.765   9.891  19.640  0.00  0.00    +0.000 S 
ENDBRANCH  11  12
ENDBRANCH   3  10
BRANCH   7  17
ATOM     17  O   UNL     1       4.200   1.487  18.758  0.00  0.00    +0.000 OA
ATOM     18  H   UNL     1       4.645   1.106  19.539  0.00  0.00    +0.000 HD
ENDBRANCH   7  17
TORSDOF 4
ENDMDL
MODEL 4
REMARK VINA RESULT:      -6.4      1.469      2.638
REMARK  Name = 
REMARK  5 active torsions:
REMARK  status: ('A' for Active; 'I' for Inactive)
REMARK    1  A    between atoms: C_1  and  O_2
REMARK    2  A    between atoms: O_2  and  C_3
REMARK    3  A    between atoms: C_5  and  C_6
REMARK    4  A    between atoms: C_7  and  C_8
REMARK    5  A    between atoms: C_16  and  O_17
REMARK                            x       y       z     vdW  Elec       q    Type
REMARK                         _______ _______ _______ _____ _____    ______ ____
ROOT
ATOM      1  C   UNL     1       6.364   4.151  14.277  0.00  0.00    +0.000 A 
ATOM      2  C   UNL     1       5.314   3.683  15.083  0.00  0.00    +0.000 A 
ATOM      3  C   UNL     1       5.116   4.161  16.389  0.00  0.00    +0.000 A 
ATOM      4  C   UNL     1       5.970   5.157  16.871  0.00  0.00    +0.000 A 
ATOM      5  C   UNL     1       6.996   5.637  16.065  0.00  0.00    +0.000 A 
ATOM      6  F   UNL     1       7.799   6.607  16.531  0.00  0.00    +0.000 F 
ATOM      7  C   UNL     1       7.204   5.146  14.776  0.00  0.00    +0.000 A 
ENDROOT
BRANCH   1   9
ATOM      8  C   UNL     1       5.153   3.439  12.364  0.00  0.00    +0.000 C 
ATOM      9  O   UNL     1       6.401   3.587  13.030  0.00  0.00    +0.000 OA
ENDBRANCH   1   9
BRANCH   3  10
ATOM     10  C   UNL     1       4.005   3.714  17.245  0.00  0.00    +0.000 C 
ATOM     11  C   UNL     1       3.756   4.175  18.483  0.00  0.00    +0.000 C 
BRANCH  11  12
ATOM     12  C   UNL     1       2.659   3.700  19.264  0.00  0.00    +0.000 A 
ATOM     13  C   UNL     1       1.289   3.753  19.047  0.00  0.00    +0.000 A 
ATOM     14  C   UNL     1       0.526   3.146  20.087  0.00  0.00    +0.000 A 
ATOM     15  C   UNL     1       1.327   2.641  21.082  0.00  0.00    +0.000 A 
ATOM     16  S   UNL     1       2.984   2.900  20.762  0.00  0.00    +0.000 S 
ENDBRANCH  11  12
ENDBRANCH   3  10
BRANCH   7  17
ATOM     17  O   UNL     1       8.212   5.693  14.032  0.00  0.00    +0.000 OA
ATOM     18  H   UNL     1       7.874   5.802  13.123  0.00  0.00    +0.000 HD
ENDBRANCH   7  17
TORSDOF 4
ENDMDL
MODEL 5
REMARK VINA RESULT:      -6.4      4.806      8.046
REMARK  Name = 
REMARK  5 active torsions:
REMARK  status: ('A' for Active; 'I' for Inactive)
REMARK    1  A    between atoms: C_1  and  O_2
REMARK    2  A    between atoms: O_2  and  C_3
REMARK    3  A    between atoms: C_5  and  C_6
REMARK    4  A    between atoms: C_7  and  C_8
REMARK    5  A    between atoms: C_16  and  O_17
REMARK                            x       y       z     vdW  Elec       q    Type
REMARK                         _______ _______ _______ _____ _____    ______ ____
ROOT
ATOM      1  C   UNL     1       6.160   6.034  17.473  0.00  0.00    +0.000 A 
ATOM      2  C   UNL     1       6.581   7.354  17.244  0.00  0.00    +0.000 A 
ATOM      3  C   UNL     1       7.663   7.915  17.941  0.00  0.00    +0.000 A 
ATOM      4  C   UNL     1       8.356   7.115  18.854  0.00  0.00    +0.000 A 
ATOM      5  C   UNL     1       7.954   5.801  19.065  0.00  0.00    +0.000 A 
ATOM      6  F   UNL     1       8.637   5.035  19.930  0.00  0.00    +0.000 F 
ATOM      7  C   UNL     1       6.866   5.251  18.386  0.00  0.00    +0.000 A 
ENDROOT
BRANCH   1   9
ATOM      8  C   UNL     1       3.841   5.544  17.351  0.00  0.00    +0.000 C 
ATOM      9  O   UNL     1       5.100   5.646  16.698  0.00  0.00    +0.000 OA
ENDBRANCH   1   9
BRANCH   3  10
ATOM     10  C   UNL     1       8.147   9.285  17.699  0.00  0.00    +0.000 C 
ATOM     11  C   UNL     1       8.985   9.956  18.507  0.00  0.00    +0.000 C 
BRANCH  11  12
ATOM     12  C   UNL     1       9.420  11.285  18.216  0.00  0.00    +0.000 A 
ATOM     13  C   UNL     1       8.723  12.399  17.768  0.00  0.00    +0.000 A 
ATOM     14  C   UNL     1       9.544  13.554  17.607  0.00  0.00    +0.000 A 
ATOM     15  C   UNL     1      10.854  13.301  17.934  0.00  0.00    +0.000 A 
ATOM     16  S   UNL     1      11.088  11.684  18.428  0.00  0.00    +0.000 S 
ENDBRANCH  11  12
ENDBRANCH   3  10
BRANCH   7  17
ATOM     17  O   UNL     1       6.553   3.941  18.621  0.00  0.00    +0.000 OA
ATOM     18  H   UNL     1       5.595   3.901  18.803  0.00  0.00    +0.000 HD
ENDBRANCH   7  17
TORSDOF 4
ENDMDL
MODEL 6
REMARK VINA RESULT:      -6.3      4.268      5.098
REMARK  Name = 
REMARK  5 active torsions:
REMARK  status: ('A' for Active; 'I' for Inactive)
REMARK    1  A    between atoms: C_1  and  O_2
REMARK    2  A    between atoms: O_2  and  C_3
REMARK    3  A    between atoms: C_5  and  C_6
REMARK    4  A    between atoms: C_7  and  C_8
REMARK    5  A    between atoms: C_16  and  O_17
REMARK                            x       y       z     vdW  Elec       q    Type
REMARK                         _______ _______ _______ _____ _____    ______ ____
ROOT
ATOM      1  C   UNL     1       5.019   4.445  18.637  0.00  0.00    +0.000 A 
ATOM      2  C   UNL     1       3.992   5.285  19.098  0.00  0.00    +0.000 A 
ATOM      3  C   UNL     1       3.568   6.403  18.362  0.00  0.00    +0.000 A 
ATOM      4  C   UNL     1       4.165   6.653  17.123  0.00  0.00    +0.000 A 
ATOM      5  C   UNL     1       5.166   5.809  16.657  0.00  0.00    +0.000 A 
ATOM      6  F   UNL     1       5.720   6.046  15.458  0.00  0.00    +0.000 F 
ATOM      7  C   UNL     1       5.600   4.709  17.398  0.00  0.00    +0.000 A 
ENDROOT
BRANCH   1   9
ATOM      8  C   UNL     1       4.184   2.623  19.908  0.00  0.00    +0.000 C 
ATOM      9  O   UNL     1       5.295   3.396  19.473  0.00  0.00    +0.000 OA
ENDBRANCH   1   9
BRANCH   3  10
ATOM     10  C   UNL     1       2.472   7.282  18.803  0.00  0.00    +0.000 C 
ATOM     11  C   UNL     1       2.153   8.456  18.232  0.00  0.00    +0.000 C 
BRANCH  11  12
ATOM     12  C   UNL     1       1.075   9.264  18.707  0.00  0.00    +0.000 A 
ATOM     13  C   UNL     1       0.106   9.991  18.028  0.00  0.00    +0.000 A 
ATOM     14  C   UNL     1      -0.806  10.665  18.892  0.00  0.00    +0.000 A 
ATOM     15  C   UNL     1      -0.517  10.443  20.216  0.00  0.00    +0.000 A 
ATOM     16  S   UNL     1       0.844   9.430  20.412  0.00  0.00    +0.000 S 
ENDBRANCH  11  12
ENDBRANCH   3  10
BRANCH   7  17
ATOM     17  O   UNL     1       6.565   3.906  16.856  0.00  0.00    +0.000 OA
ATOM     18  H   UNL     1       6.512   4.005  15.887  0.00  0.00    +0.000 HD
ENDBRANCH   7  17
TORSDOF 4
ENDMDL
MODEL 7
REMARK VINA RESULT:      -6.3      4.923      8.023
REMARK  Name = 
REMARK  5 active torsions:
REMARK  status: ('A' for Active; 'I' for Inactive)
REMARK    1  A    between atoms: C_1  and  O_2
REMARK    2  A    between atoms: O_2  and  C_3
REMARK    3  A    between atoms: C_5  and  C_6
REMARK    4  A    between atoms: C_7  and  C_8
REMARK    5  A    between atoms: C_16  and  O_17
REMARK                            x       y       z     vdW  Elec       q    Type
REMARK                         _______ _______ _______ _____ _____    ______ ____
ROOT
ATOM      1  C   UNL     1       6.911   6.111  16.878  0.00  0.00    +0.000 A 
ATOM      2  C   UNL     1       7.272   7.469  16.875  0.00  0.00    +0.000 A 
ATOM      3  C   UNL     1       7.954   8.053  17.954  0.00  0.00    +0.000 A 
ATOM      4  C   UNL     1       8.310   7.243  19.037  0.00  0.00    +0.000 A 
ATOM      5  C   UNL     1       7.972   5.895  19.031  0.00  0.00    +0.000 A 
ATOM      6  F   UNL     1       8.335   5.122  20.066  0.00  0.00    +0.000 F 
ATOM      7  C   UNL     1       7.277   5.320  17.966  0.00  0.00    +0.000 A 
ENDROOT
BRANCH   1   9
ATOM      8  C   UNL     1       7.033   4.956  14.808  0.00  0.00    +0.000 C 
ATOM      9  O   UNL     1       6.265   5.706  15.741  0.00  0.00    +0.000 OA
ENDBRANCH   1   9
BRANCH   3  10
ATOM     10  C   UNL     1       8.376   9.464  17.965  0.00  0.00    +0.000 C 
ATOM     11  C   UNL     1       9.150  10.027  18.909  0.00  0.00    +0.000 C 
BRANCH  11  12
ATOM     12  C   UNL     1       9.525  11.404  18.862  0.00  0.00    +0.000 A 
ATOM     13  C   UNL     1       9.611  12.294  17.800  0.00  0.00    +0.000 A 
ATOM     14  C   UNL     1      10.026  13.601  18.190  0.00  0.00    +0.000 A 
ATOM     15  C   UNL     1      10.251  13.687  19.542  0.00  0.00    +0.000 A 
ATOM     16  S   UNL     1       9.965  12.200  20.332  0.00  0.00    +0.000 S 
ENDBRANCH  11  12
ENDBRANCH   3  10
BRANCH   7  17
ATOM     17  O   UNL     1       7.012   3.979  18.017  0.00  0.00    +0.000 OA
ATOM     18  H   UNL     1       6.041   3.877  18.004  0.00  0.00    +0.000 HD
ENDBRANCH   7  17
TORSDOF 4
ENDMDL
MODEL 8
REMARK VINA RESULT:      -6.3      4.721      5.789
REMARK  Name = 
REMARK  5 active torsions:
REMARK  status: ('A' for Active; 'I' for Inactive)
REMARK    1  A    between atoms: C_1  and  O_2
REMARK    2  A    between atoms: O_2  and  C_3
REMARK    3  A    between atoms: C_5  and  C_6
REMARK    4  A    between atoms: C_7  and  C_8
REMARK    5  A    between atoms: C_16  and  O_17
REMARK                            x       y       z     vdW  Elec       q    Type
REMARK                         _______ _______ _______ _____ _____    ______ ____
ROOT
ATOM      1  C   UNL     1       5.166   4.320  19.021  0.00  0.00    +0.000 A 
ATOM      2  C   UNL     1       4.513   5.551  18.847  0.00  0.00    +0.000 A 
ATOM      3  C   UNL     1       3.154   5.717  19.162  0.00  0.00    +0.000 A 
ATOM      4  C   UNL     1       2.456   4.632  19.699  0.00  0.00    +0.000 A 
ATOM      5  C   UNL     1       3.108   3.420  19.893  0.00  0.00    +0.000 A 
ATOM      6  F   UNL     1       2.434   2.389  20.427  0.00  0.00    +0.000 F 
ATOM      7  C   UNL     1       4.453   3.250  19.560  0.00  0.00    +0.000 A 
ENDROOT
BRANCH   1   9
ATOM      8  C   UNL     1       7.211   5.524  18.998  0.00  0.00    +0.000 C 
ATOM      9  O   UNL     1       6.490   4.341  18.676  0.00  0.00    +0.000 OA
ENDBRANCH   1   9
BRANCH   3  10
ATOM     10  C   UNL     1       2.451   7.004  19.022  0.00  0.00    +0.000 C 
ATOM     11  C   UNL     1       1.924   7.705  20.040  0.00  0.00    +0.000 C 
BRANCH  11  12
ATOM     12  C   UNL     1       1.254   8.950  19.838  0.00  0.00    +0.000 A 
ATOM     13  C   UNL     1       0.966   9.658  18.679  0.00  0.00    +0.000 A 
ATOM     14  C   UNL     1       0.264  10.876  18.919  0.00  0.00    +0.000 A 
ATOM     15  C   UNL     1       0.028  11.077  20.256  0.00  0.00    +0.000 A 
ATOM     16  S   UNL     1       0.653   9.808  21.213  0.00  0.00    +0.000 S 
ENDBRANCH  11  12
ENDBRANCH   3  10
BRANCH   7  17
ATOM     17  O   UNL     1       5.032   2.038  19.812  0.00  0.00    +0.000 OA
ATOM     18  H   UNL     1       5.380   2.068  20.724  0.00  0.00    +0.000 HD
ENDBRANCH   7  17
TORSDOF 4
ENDMDL
MODEL 9
REMARK VINA RESULT:      -6.2      4.882      6.169
REMARK  Name = 
REMARK  5 active torsions:
REMARK  status: ('A' for Active; 'I' for Inactive)
REMARK    1  A    between atoms: C_1  and  O_2
REMARK    2  A    between atoms: O_2  and  C_3
REMARK    3  A    between atoms: C_5  and  C_6
REMARK    4  A    between atoms: C_7  and  C_8
REMARK    5  A    between atoms: C_16  and  O_17
REMARK                            x       y       z     vdW  Elec       q    Type
REMARK                         _______ _______ _______ _____ _____    ______ ____
ROOT
ATOM      1  C   UNL     1       3.149   4.084  19.696  0.00  0.00    +0.000 A 
ATOM      2  C   UNL     1       2.544   5.243  20.209  0.00  0.00    +0.000 A 
ATOM      3  C   UNL     1       2.592   6.466  19.521  0.00  0.00    +0.000 A 
ATOM      4  C   UNL     1       3.227   6.508  18.276  0.00  0.00    +0.000 A 
ATOM      5  C   UNL     1       3.806   5.356  17.758  0.00  0.00    +0.000 A 
ATOM      6  F   UNL     1       4.397   5.402  16.554  0.00  0.00    +0.000 F 
ATOM      7  C   UNL     1       3.775   4.146  18.451  0.00  0.00    +0.000 A 
ENDROOT
BRANCH   1   9
ATOM      8  C   UNL     1       2.144   3.125  21.620  0.00  0.00    +0.000 C 
ATOM      9  O   UNL     1       2.994   2.979  20.489  0.00  0.00    +0.000 OA
ENDBRANCH   1   9
BRANCH   3  10
ATOM     10  C   UNL     1       1.939   7.689  20.017  0.00  0.00    +0.000 C 
ATOM     11  C   UNL     1       1.132   7.747  21.090  0.00  0.00    +0.000 C 
BRANCH  11  12
ATOM     12  C   UNL     1       0.529   8.967  21.522  0.00  0.00    +0.000 A 
ATOM     13  C   UNL     1      -0.149   9.291  22.689  0.00  0.00    +0.000 A 
ATOM     14  C   UNL     1      -0.594  10.646  22.729  0.00  0.00    +0.000 A 
ATOM     15  C   UNL     1      -0.249  11.332  21.591  0.00  0.00    +0.000 A 
ATOM     16  S   UNL     1       0.602  10.348  20.485  0.00  0.00    +0.000 S 
ENDBRANCH  11  12
ENDBRANCH   3  10
BRANCH   7  17
ATOM     17  O   UNL     1       4.337   3.048  17.860  0.00  0.00    +0.000 OA
ATOM     18  H   UNL     1       4.674   2.476  18.575  0.00  0.00    +0.000 HD
ENDBRANCH   7  17
TORSDOF 4
ENDMDL
