MODEL 1
REMARK VINA RESULT:      -7.6      0.000      0.000
REMARK  Name = 
REMARK  9 active torsions:
REMARK  status: ('A' for Active; 'I' for Inactive)
REMARK    1  A    between atoms: C_1  and  C_2
REMARK    2  A    between atoms: C_2  and  O_3
REMARK    3  A    between atoms: O_3  and  C_4
REMARK    4  A    between atoms: N_6  and  C_7
REMARK    5  A    between atoms: C_7  and  C_8
REMARK    6  A    between atoms: C_11  and  S_12
REMARK    7  A    between atoms: S_12  and  N_15
REMARK    8  A    between atoms: N_15  and  C_16
REMARK    9  A    between atoms: C_19  and  C_20
REMARK                            x       y       z     vdW  Elec       q    Type
REMARK                         _______ _______ _______ _____ _____    ______ ____
ROOT
ATOM      1  C   UNL     1       6.134   4.615  16.783  0.00  0.00    +0.000 A 
ATOM      2  C   UNL     1       4.844   4.366  16.288  0.00  0.00    +0.000 A 
ATOM      3  C   UNL     1       3.761   4.247  17.159  0.00  0.00    +0.000 A 
ATOM      4  C   UNL     1       3.966   4.378  18.535  0.00  0.00    +0.000 A 
ATOM      5  C   UNL     1       5.239   4.652  19.043  0.00  0.00    +0.000 A 
ATOM      6  C   UNL     1       6.321   4.764  18.167  0.00  0.00    +0.000 A 
ENDROOT
BRANCH   4   7
ATOM      7  S   UNL     1       2.580   4.246  19.645  0.00  0.00    +0.000 S 
ATOM      8  O   UNL     1       1.364   4.268  18.861  0.00  0.00    +0.000 OA
ATOM      9  O   UNL     1       2.858   3.159  20.560  0.00  0.00    +0.000 OA
BRANCH   7  10
ATOM     10  N   UNL     1       2.699   5.654  20.544  0.00  0.00    +0.000 N 
ATOM     11  H   UNL     1       2.976   5.571  21.518  0.00  0.00    +0.000 HD
BRANCH  10  12
ATOM     12  C   UNL     1       2.222   6.875  20.020  0.00  0.00    +0.000 A 
ATOM     13  C   UNL     1       2.525   7.246  18.712  0.00  0.00    +0.000 A 
ATOM     14  C   UNL     1       2.081   8.475  18.221  0.00  0.00    +0.000 A 
ATOM     15  C   UNL     1       1.331   9.335  19.035  0.00  0.00    +0.000 A 
ATOM     16  C   UNL     1       0.878  10.675  18.536  0.00  0.00    +0.000 C 
ATOM     17  C   UNL     1       1.012   8.936  20.339  0.00  0.00    +0.000 A 
ATOM     18  C   UNL     1       1.445   7.703  20.825  0.00  0.00    +0.000 A 
ENDBRANCH  10  12
ENDBRANCH   7  10
ENDBRANCH   4   7
BRANCH   1  19
ATOM     19  C   UNL     1       7.286   4.790  15.832  0.00  0.00    +0.000 C 
BRANCH  19  22
ATOM     20  C   UNL     1       7.490   4.800  13.409  0.00  0.00    +0.000 C 
ATOM     21  O   UNL     1       8.364   5.652  13.383  0.00  0.00    +0.000 OA
ATOM     22  N   UNL     1       6.960   4.258  14.536  0.00  0.00    +0.000 N 
ATOM     23  H   UNL     1       6.132   3.695  14.408  0.00  0.00    +0.000 HD
BRANCH  20  24
ATOM     24  O   UNL     1       6.829   4.308  12.335  0.00  0.00    +0.000 OA
BRANCH  24  26
ATOM     25  C   UNL     1       5.600   2.368  11.668  0.00  0.00    +0.000 C 
ATOM     26  C   UNL     1       5.661   3.534  12.639  0.00  0.00    +0.000 C 
ENDBRANCH  24  26
ENDBRANCH  20  24
ENDBRANCH  19  22
ENDBRANCH   1  19
TORSDOF 7
ENDMDL
MODEL 2
REMARK VINA RESULT:      -7.5      2.745      7.102
REMARK  Name = 
REMARK  9 active torsions:
REMARK  status: ('A' for Active; 'I' for Inactive)
REMARK    1  A    between atoms: C_1  and  C_2
REMARK    2  A    between atoms: C_2  and  O_3
REMARK    3  A    between atoms: O_3  and  C_4
REMARK    4  A    between atoms: N_6  and  C_7
REMARK    5  A    between atoms: C_7  and  C_8
REMARK    6  A    between atoms: C_11  and  S_12
REMARK    7  A    between atoms: S_12  and  N_15
REMARK    8  A    between atoms: N_15  and  C_16
REMARK    9  A    between atoms: C_19  and  C_20
REMARK                            x       y       z     vdW  Elec       q    Type
REMARK                         _______ _______ _______ _____ _____    ______ ____
ROOT
ATOM      1  C   UNL     1       3.074   5.702  19.129  0.00  0.00    +0.000 A 
ATOM      2  C   UNL     1       3.316   6.610  18.086  0.00  0.00    +0.000 A 
ATOM      3  C   UNL     1       4.618   6.862  17.653  0.00  0.00    +0.000 A 
ATOM      4  C   UNL     1       5.687   6.202  18.265  0.00  0.00    +0.000 A 
ATOM      5  C   UNL     1       5.461   5.275  19.288  0.00  0.00    +0.000 A 
ATOM      6  C   UNL     1       4.157   5.033  19.721  0.00  0.00    +0.000 A 
ENDROOT
BRANCH   4   7
ATOM      7  S   UNL     1       7.347   6.508  17.698  0.00  0.00    +0.000 S 
ATOM      8  O   UNL     1       7.307   7.580  16.726  0.00  0.00    +0.000 OA
ATOM      9  O   UNL     1       8.197   6.592  18.868  0.00  0.00    +0.000 OA
BRANCH   7  10
ATOM     10  N   UNL     1       7.742   5.069  16.937  0.00  0.00    +0.000 N 
ATOM     11  H   UNL     1       8.568   4.574  17.262  0.00  0.00    +0.000 HD
BRANCH  10  12
ATOM     12  C   UNL     1       7.074   4.683  15.755  0.00  0.00    +0.000 A 
ATOM     13  C   UNL     1       5.909   3.923  15.821  0.00  0.00    +0.000 A 
ATOM     14  C   UNL     1       5.283   3.514  14.642  0.00  0.00    +0.000 A 
ATOM     15  C   UNL     1       5.818   3.864  13.396  0.00  0.00    +0.000 A 
ATOM     16  C   UNL     1       5.178   3.401  12.120  0.00  0.00    +0.000 C 
ATOM     17  C   UNL     1       6.975   4.650  13.346  0.00  0.00    +0.000 A 
ATOM     18  C   UNL     1       7.594   5.070  14.523  0.00  0.00    +0.000 A 
ENDBRANCH  10  12
ENDBRANCH   7  10
ENDBRANCH   4   7
BRANCH   1  19
ATOM     19  C   UNL     1       1.662   5.402  19.555  0.00  0.00    +0.000 C 
BRANCH  19  22
ATOM     20  C   UNL     1       1.276   3.059  20.072  0.00  0.00    +0.000 C 
ATOM     21  O   UNL     1       1.432   3.191  21.275  0.00  0.00    +0.000 OA
ATOM     22  N   UNL     1       1.286   4.070  19.166  0.00  0.00    +0.000 N 
ATOM     23  H   UNL     1       1.315   3.794  18.195  0.00  0.00    +0.000 HD
BRANCH  20  24
ATOM     24  O   UNL     1       1.156   1.883  19.412  0.00  0.00    +0.000 OA
BRANCH  24  26
ATOM     25  C   UNL     1       3.347   1.547  18.514  0.00  0.00    +0.000 C 
ATOM     26  C   UNL     1       1.886   1.795  18.181  0.00  0.00    +0.000 C 
ENDBRANCH  24  26
ENDBRANCH  20  24
ENDBRANCH  19  22
ENDBRANCH   1  19
TORSDOF 7
ENDMDL
MODEL 3
REMARK VINA RESULT:      -7.5      3.375      8.045
REMARK  Name = 
REMARK  9 active torsions:
REMARK  status: ('A' for Active; 'I' for Inactive)
REMARK    1  A    between atoms: C_1  and  C_2
REMARK    2  A    between atoms: C_2  and  O_3
REMARK    3  A    between atoms: O_3  and  C_4
REMARK    4  A    between atoms: N_6  and  C_7
REMARK    5  A    between atoms: C_7  and  C_8
REMARK    6  A    between atoms: C_11  and  S_12
REMARK    7  A    between atoms: S_12  and  N_15
REMARK    8  A    between atoms: N_15  and  C_16
REMARK    9  A    between atoms: C_19  and  C_20
REMARK                            x       y       z     vdW  Elec       q    Type
REMARK                         _______ _______ _______ _____ _____    ______ ____
ROOT
ATOM      1  C   UNL     1       1.143   9.994  18.996  0.00  0.00    +0.000 A 
ATOM      2  C   UNL     1       1.740   9.449  17.848  0.00  0.00    +0.000 A 
ATOM      3  C   UNL     1       2.266   8.157  17.868  0.00  0.00    +0.000 A 
ATOM      4  C   UNL     1       2.195   7.402  19.042  0.00  0.00    +0.000 A 
ATOM      5  C   UNL     1       1.580   7.920  20.186  0.00  0.00    +0.000 A 
ATOM      6  C   UNL     1       1.061   9.216  20.162  0.00  0.00    +0.000 A 
ENDROOT
BRANCH   4   7
ATOM      7  S   UNL     1       2.848   5.745  19.061  0.00  0.00    +0.000 S 
ATOM      8  O   UNL     1       2.780   5.244  20.417  0.00  0.00    +0.000 OA
ATOM      9  O   UNL     1       2.233   5.024  17.966  0.00  0.00    +0.000 OA
BRANCH   7  10
ATOM     10  N   UNL     1       4.448   5.981  18.625  0.00  0.00    +0.000 N 
ATOM     11  H   UNL     1       5.005   6.612  19.194  0.00  0.00    +0.000 HD
BRANCH  10  12
ATOM     12  C   UNL     1       4.929   5.490  17.392  0.00  0.00    +0.000 A 
ATOM     13  C   UNL     1       5.004   6.327  16.282  0.00  0.00    +0.000 A 
ATOM     14  C   UNL     1       5.444   5.817  15.059  0.00  0.00    +0.000 A 
ATOM     15  C   UNL     1       5.811   4.470  14.944  0.00  0.00    +0.000 A 
ATOM     16  C   UNL     1       6.250   3.897  13.628  0.00  0.00    +0.000 C 
ATOM     17  C   UNL     1       5.755   3.647  16.074  0.00  0.00    +0.000 A 
ATOM     18  C   UNL     1       5.328   4.159  17.299  0.00  0.00    +0.000 A 
ENDBRANCH  10  12
ENDBRANCH   7  10
ENDBRANCH   4   7
BRANCH   1  19
ATOM     19  C   UNL     1       0.536  11.370  18.949  0.00  0.00    +0.000 C 
BRANCH  19  22
ATOM     20  C   UNL     1      -1.821  11.598  18.400  0.00  0.00    +0.000 C 
ATOM     21  O   UNL     1      -2.166  11.869  19.539  0.00  0.00    +0.000 OA
ATOM     22  N   UNL     1      -0.538  11.419  17.994  0.00  0.00    +0.000 N 
ATOM     23  H   UNL     1      -0.418  11.034  17.069  0.00  0.00    +0.000 HD
BRANCH  20  24
ATOM     24  O   UNL     1      -2.649  11.339  17.361  0.00  0.00    +0.000 OA
BRANCH  24  26
ATOM     25  C   UNL     1      -2.791  10.099  15.320  0.00  0.00    +0.000 C 
ATOM     26  C   UNL     1      -2.552  10.016  16.818  0.00  0.00    +0.000 C 
ENDBRANCH  24  26
ENDBRANCH  20  24
ENDBRANCH  19  22
ENDBRANCH   1  19
TORSDOF 7
ENDMDL
MODEL 4
REMARK VINA RESULT:      -7.5      1.256      1.446
REMARK  Name = 
REMARK  9 active torsions:
REMARK  status: ('A' for Active; 'I' for Inactive)
REMARK    1  A    between atoms: C_1  and  C_2
REMARK    2  A    between atoms: C_2  and  O_3
REMARK    3  A    between atoms: O_3  and  C_4
REMARK    4  A    between atoms: N_6  and  C_7
REMARK    5  A    between atoms: C_7  and  C_8
REMARK    6  A    between atoms: C_11  and  S_12
REMARK    7  A    between atoms: S_12  and  N_15
REMARK    8  A    between atoms: N_15  and  C_16
REMARK    9  A    between atoms: C_19  and  C_20
REMARK                            x       y       z     vdW  Elec       q    Type
REMARK                         _______ _______ _______ _____ _____    ______ ____
ROOT
ATOM      1  C   UNL     1       5.834   4.613  15.822  0.00  0.00    +0.000 A 
ATOM      2  C   UNL     1       5.101   3.519  16.309  0.00  0.00    +0.000 A 
ATOM      3  C   UNL     1       4.175   3.688  17.339  0.00  0.00    +0.000 A 
ATOM      4  C   UNL     1       3.979   4.958  17.887  0.00  0.00    +0.000 A 
ATOM      5  C   UNL     1       4.682   6.063  17.396  0.00  0.00    +0.000 A 
ATOM      6  C   UNL     1       5.611   5.886  16.370  0.00  0.00    +0.000 A 
ENDROOT
BRANCH   4   7
ATOM      7  S   UNL     1       2.783   5.178  19.188  0.00  0.00    +0.000 S 
ATOM      8  O   UNL     1       1.460   5.140  18.603  0.00  0.00    +0.000 OA
ATOM      9  O   UNL     1       3.147   4.284  20.268  0.00  0.00    +0.000 OA
BRANCH   7  10
ATOM     10  N   UNL     1       3.117   6.726  19.731  0.00  0.00    +0.000 N 
ATOM     11  H   UNL     1       3.912   6.848  20.352  0.00  0.00    +0.000 HD
BRANCH  10  12
ATOM     12  C   UNL     1       2.198   7.774  19.505  0.00  0.00    +0.000 A 
ATOM     13  C   UNL     1       2.100   8.364  18.248  0.00  0.00    +0.000 A 
ATOM     14  C   UNL     1       1.215   9.426  18.050  0.00  0.00    +0.000 A 
ATOM     15  C   UNL     1       0.427   9.899  19.107  0.00  0.00    +0.000 A 
ATOM     16  C   UNL     1      -0.501  11.064  18.921  0.00  0.00    +0.000 C 
ATOM     17  C   UNL     1       0.519   9.279  20.358  0.00  0.00    +0.000 A 
ATOM     18  C   UNL     1       1.392   8.210  20.553  0.00  0.00    +0.000 A 
ENDBRANCH  10  12
ENDBRANCH   7  10
ENDBRANCH   4   7
BRANCH   1  19
ATOM     19  C   UNL     1       6.794   4.428  14.679  0.00  0.00    +0.000 C 
BRANCH  19  22
ATOM     20  C   UNL     1       6.538   3.744  12.360  0.00  0.00    +0.000 C 
ATOM     21  O   UNL     1       7.400   4.496  11.935  0.00  0.00    +0.000 OA
ATOM     22  N   UNL     1       6.225   3.575  13.670  0.00  0.00    +0.000 N 
ATOM     23  H   UNL     1       5.382   3.052  13.859  0.00  0.00    +0.000 HD
BRANCH  20  24
ATOM     24  O   UNL     1       5.682   3.013  11.609  0.00  0.00    +0.000 OA
BRANCH  24  26
ATOM     25  C   UNL     1       3.564   3.286  10.531  0.00  0.00    +0.000 C 
ATOM     26  C   UNL     1       4.291   3.248  11.864  0.00  0.00    +0.000 C 
ENDBRANCH  24  26
ENDBRANCH  20  24
ENDBRANCH  19  22
ENDBRANCH   1  19
TORSDOF 7
ENDMDL
MODEL 5
REMARK VINA RESULT:      -7.5      1.939      2.961
REMARK  Name = 
REMARK  9 active torsions:
REMARK  status: ('A' for Active; 'I' for Inactive)
REMARK    1  A    between atoms: C_1  and  C_2
REMARK    2  A    between atoms: C_2  and  O_3
REMARK    3  A    between atoms: O_3  and  C_4
REMARK    4  A    between atoms: N_6  and  C_7
REMARK    5  A    between atoms: C_7  and  C_8
REMARK    6  A    between atoms: C_11  and  S_12
REMARK    7  A    between atoms: S_12  and  N_15
REMARK    8  A    between atoms: N_15  and  C_16
REMARK    9  A    between atoms: C_19  and  C_20
REMARK                            x       y       z     vdW  Elec       q    Type
REMARK                         _______ _______ _______ _____ _____    ______ ____
ROOT
ATOM      1  C   UNL     1       4.569   3.640  17.217  0.00  0.00    +0.000 A 
ATOM      2  C   UNL     1       3.184   3.736  17.006  0.00  0.00    +0.000 A 
ATOM      3  C   UNL     1       2.313   3.897  18.084  0.00  0.00    +0.000 A 
ATOM      4  C   UNL     1       2.827   3.965  19.381  0.00  0.00    +0.000 A 
ATOM      5  C   UNL     1       4.206   3.898  19.606  0.00  0.00    +0.000 A 
ATOM      6  C   UNL     1       5.072   3.730  18.525  0.00  0.00    +0.000 A 
ENDROOT
BRANCH   4   7
ATOM      7  S   UNL     1       1.716   4.192  20.755  0.00  0.00    +0.000 S 
ATOM      8  O   UNL     1       0.367   4.286  20.240  0.00  0.00    +0.000 OA
ATOM      9  O   UNL     1       2.064   3.211  21.761  0.00  0.00    +0.000 OA
BRANCH   7  10
ATOM     10  N   UNL     1       2.193   5.676  21.366  0.00  0.00    +0.000 N 
ATOM     11  H   UNL     1       2.573   5.700  22.308  0.00  0.00    +0.000 HD
BRANCH  10  12
ATOM     12  C   UNL     1       1.873   6.866  20.676  0.00  0.00    +0.000 A 
ATOM     13  C   UNL     1       1.001   7.793  21.240  0.00  0.00    +0.000 A 
ATOM     14  C   UNL     1       0.662   8.946  20.528  0.00  0.00    +0.000 A 
ATOM     15  C   UNL     1       1.195   9.174  19.253  0.00  0.00    +0.000 A 
ATOM     16  C   UNL     1       0.813  10.389  18.460  0.00  0.00    +0.000 C 
ATOM     17  C   UNL     1       2.091   8.245  18.711  0.00  0.00    +0.000 A 
ATOM     18  C   UNL     1       2.440   7.101  19.427  0.00  0.00    +0.000 A 
ENDBRANCH  10  12
ENDBRANCH   7  10
ENDBRANCH   4   7
BRANCH   1  19
ATOM     19  C   UNL     1       5.503   3.515  16.044  0.00  0.00    +0.000 C 
BRANCH  19  22
ATOM     20  C   UNL     1       7.357   5.065  16.310  0.00  0.00    +0.000 C 
ATOM     21  O   UNL     1       8.058   4.281  16.930  0.00  0.00    +0.000 OA
ATOM     22  N   UNL     1       6.146   4.772  15.770  0.00  0.00    +0.000 N 
ATOM     23  H   UNL     1       5.610   5.559  15.437  0.00  0.00    +0.000 HD
BRANCH  20  24
ATOM     24  O   UNL     1       7.611   6.381  16.125  0.00  0.00    +0.000 OA
BRANCH  24  26
ATOM     25  C   UNL     1       8.026   7.871  17.950  0.00  0.00    +0.000 C 
ATOM     26  C   UNL     1       6.963   7.265  17.050  0.00  0.00    +0.000 C 
ENDBRANCH  24  26
ENDBRANCH  20  24
ENDBRANCH  19  22
ENDBRANCH   1  19
TORSDOF 7
ENDMDL
MODEL 6
REMARK VINA RESULT:      -7.4      2.590      7.824
REMARK  Name = 
REMARK  9 active torsions:
REMARK  status: ('A' for Active; 'I' for Inactive)
REMARK    1  A    between atoms: C_1  and  C_2
REMARK    2  A    between atoms: C_2  and  O_3
REMARK    3  A    between atoms: O_3  and  C_4
REMARK    4  A    between atoms: N_6  and  C_7
REMARK    5  A    between atoms: C_7  and  C_8
REMARK    6  A    between atoms: C_11  and  S_12
REMARK    7  A    between atoms: S_12  and  N_15
REMARK    8  A    between atoms: N_15  and  C_16
REMARK    9  A    between atoms: C_19  and  C_20
REMARK                            x       y       z     vdW  Elec       q    Type
REMARK                         _______ _______ _______ _____ _____    ______ ____
ROOT
ATOM      1  C   UNL     1       3.526   5.657  19.390  0.00  0.00    +0.000 A 
ATOM      2  C   UNL     1       4.668   4.863  19.584  0.00  0.00    +0.000 A 
ATOM      3  C   UNL     1       5.717   4.894  18.664  0.00  0.00    +0.000 A 
ATOM      4  C   UNL     1       5.625   5.724  17.543  0.00  0.00    +0.000 A 
ATOM      5  C   UNL     1       4.507   6.540  17.349  0.00  0.00    +0.000 A 
ATOM      6  C   UNL     1       3.458   6.500  18.270  0.00  0.00    +0.000 A 
ENDROOT
BRANCH   4   7
ATOM      7  S   UNL     1       6.973   5.779  16.380  0.00  0.00    +0.000 S 
ATOM      8  O   UNL     1       7.776   6.948  16.667  0.00  0.00    +0.000 OA
ATOM      9  O   UNL     1       7.565   4.458  16.338  0.00  0.00    +0.000 OA
BRANCH   7  10
ATOM     10  N   UNL     1       6.182   5.982  14.918  0.00  0.00    +0.000 N 
ATOM     11  H   UNL     1       5.518   6.748  14.842  0.00  0.00    +0.000 HD
BRANCH  10  12
ATOM     12  C   UNL     1       6.278   4.995  13.913  0.00  0.00    +0.000 A 
ATOM     13  C   UNL     1       5.346   3.962  13.850  0.00  0.00    +0.000 A 
ATOM     14  C   UNL     1       5.478   2.970  12.876  0.00  0.00    +0.000 A 
ATOM     15  C   UNL     1       6.539   3.010  11.963  0.00  0.00    +0.000 A 
ATOM     16  C   UNL     1       6.716   1.932  10.934  0.00  0.00    +0.000 C 
ATOM     17  C   UNL     1       7.453   4.069  12.022  0.00  0.00    +0.000 A 
ATOM     18  C   UNL     1       7.314   5.066  12.986  0.00  0.00    +0.000 A 
ENDBRANCH  10  12
ENDBRANCH   7  10
ENDBRANCH   4   7
BRANCH   1  19
ATOM     19  C   UNL     1       2.422   5.651  20.414  0.00  0.00    +0.000 C 
BRANCH  19  22
ATOM     20  C   UNL     1       1.569   3.456  21.014  0.00  0.00    +0.000 C 
ATOM     21  O   UNL     1       2.215   3.374  22.047  0.00  0.00    +0.000 OA
ATOM     22  N   UNL     1       1.535   4.541  20.198  0.00  0.00    +0.000 N 
ATOM     23  H   UNL     1       1.096   4.403  19.299  0.00  0.00    +0.000 HD
BRANCH  20  24
ATOM     24  O   UNL     1       0.846   2.461  20.448  0.00  0.00    +0.000 OA
BRANCH  24  26
ATOM     25  C   UNL     1       2.023   1.970  18.424  0.00  0.00    +0.000 C 
ATOM     26  C   UNL     1       0.738   2.520  19.020  0.00  0.00    +0.000 C 
ENDBRANCH  24  26
ENDBRANCH  20  24
ENDBRANCH  19  22
ENDBRANCH   1  19
TORSDOF 7
ENDMDL
MODEL 7
REMARK VINA RESULT:      -7.3      3.782      6.120
REMARK  Name = 
REMARK  9 active torsions:
REMARK  status: ('A' for Active; 'I' for Inactive)
REMARK    1  A    between atoms: C_1  and  C_2
REMARK    2  A    between atoms: C_2  and  O_3
REMARK    3  A    between atoms: O_3  and  C_4
REMARK    4  A    between atoms: N_6  and  C_7
REMARK    5  A    between atoms: C_7  and  C_8
REMARK    6  A    between atoms: C_11  and  S_12
REMARK    7  A    between atoms: S_12  and  N_15
REMARK    8  A    between atoms: N_15  and  C_16
REMARK    9  A    between atoms: C_19  and  C_20
REMARK                            x       y       z     vdW  Elec       q    Type
REMARK                         _______ _______ _______ _____ _____    ______ ____
ROOT
ATOM      1  C   UNL     1       2.995   6.711  18.372  0.00  0.00    +0.000 A 
ATOM      2  C   UNL     1       2.575   6.441  19.685  0.00  0.00    +0.000 A 
ATOM      3  C   UNL     1       1.820   7.376  20.394  0.00  0.00    +0.000 A 
ATOM      4  C   UNL     1       1.480   8.588  19.789  0.00  0.00    +0.000 A 
ATOM      5  C   UNL     1       1.867   8.862  18.474  0.00  0.00    +0.000 A 
ATOM      6  C   UNL     1       2.628   7.926  17.771  0.00  0.00    +0.000 A 
ENDROOT
BRANCH   4   7
ATOM      7  S   UNL     1       0.498   9.772  20.688  0.00  0.00    +0.000 S 
ATOM      8  O   UNL     1      -0.725   9.124  21.109  0.00  0.00    +0.000 OA
ATOM      9  O   UNL     1       1.369  10.420  21.646  0.00  0.00    +0.000 OA
BRANCH   7  10
ATOM     10  N   UNL     1       0.155  10.921  19.518  0.00  0.00    +0.000 N 
ATOM     11  H   UNL     1       0.866  11.620  19.319  0.00  0.00    +0.000 HD
BRANCH  10  12
ATOM     12  C   UNL     1      -1.151  11.036  18.994  0.00  0.00    +0.000 A 
ATOM     13  C   UNL     1      -2.046  11.956  19.533  0.00  0.00    +0.000 A 
ATOM     14  C   UNL     1      -3.348  12.030  19.031  0.00  0.00    +0.000 A 
ATOM     15  C   UNL     1      -3.755  11.185  17.991  0.00  0.00    +0.000 A 
ATOM     16  C   UNL     1      -5.160  11.226  17.466  0.00  0.00    +0.000 C 
ATOM     17  C   UNL     1      -2.836  10.283  17.442  0.00  0.00    +0.000 A 
ATOM     18  C   UNL     1      -1.533  10.219  17.934  0.00  0.00    +0.000 A 
ENDBRANCH  10  12
ENDBRANCH   7  10
ENDBRANCH   4   7
BRANCH   1  19
ATOM     19  C   UNL     1       3.767   5.677  17.600  0.00  0.00    +0.000 C 
BRANCH  19  22
ATOM     20  C   UNL     1       2.859   3.448  17.943  0.00  0.00    +0.000 C 
ATOM     21  O   UNL     1       2.118   3.489  16.974  0.00  0.00    +0.000 OA
ATOM     22  N   UNL     1       3.751   4.413  18.286  0.00  0.00    +0.000 N 
ATOM     23  H   UNL     1       4.170   4.322  19.200  0.00  0.00    +0.000 HD
BRANCH  20  24
ATOM     24  O   UNL     1       2.868   2.487  18.896  0.00  0.00    +0.000 OA
BRANCH  24  26
ATOM     25  C   UNL     1       1.160   3.060  20.470  0.00  0.00    +0.000 C 
ATOM     26  C   UNL     1       1.576   2.091  19.377  0.00  0.00    +0.000 C 
ENDBRANCH  24  26
ENDBRANCH  20  24
ENDBRANCH  19  22
ENDBRANCH   1  19
TORSDOF 7
ENDMDL
MODEL 8
REMARK VINA RESULT:      -7.3      3.067      7.416
REMARK  Name = 
REMARK  9 active torsions:
REMARK  status: ('A' for Active; 'I' for Inactive)
REMARK    1  A    between atoms: C_1  and  C_2
REMARK    2  A    between atoms: C_2  and  O_3
REMARK    3  A    between atoms: O_3  and  C_4
REMARK    4  A    between atoms: N_6  and  C_7
REMARK    5  A    between atoms: C_7  and  C_8
REMARK    6  A    between atoms: C_11  and  S_12
REMARK    7  A    between atoms: S_12  and  N_15
REMARK    8  A    between atoms: N_15  and  C_16
REMARK    9  A    between atoms: C_19  and  C_20
REMARK                            x       y       z     vdW  Elec       q    Type
REMARK                         _______ _______ _______ _____ _____    ______ ____
ROOT
ATOM      1  C   UNL     1       1.896   7.048  20.229  0.00  0.00    +0.000 A 
ATOM      2  C   UNL     1       2.210   7.062  18.861  0.00  0.00    +0.000 A 
ATOM      3  C   UNL     1       2.411   5.868  18.168  0.00  0.00    +0.000 A 
ATOM      4  C   UNL     1       2.297   4.651  18.845  0.00  0.00    +0.000 A 
ATOM      5  C   UNL     1       1.959   4.618  20.201  0.00  0.00    +0.000 A 
ATOM      6  C   UNL     1       1.766   5.816  20.891  0.00  0.00    +0.000 A 
ENDROOT
BRANCH   4   7
ATOM      7  S   UNL     1       2.533   3.126  17.955  0.00  0.00    +0.000 S 
ATOM      8  O   UNL     1       1.849   2.070  18.669  0.00  0.00    +0.000 OA
ATOM      9  O   UNL     1       2.250   3.389  16.560  0.00  0.00    +0.000 OA
BRANCH   7  10
ATOM     10  N   UNL     1       4.189   2.898  18.059  0.00  0.00    +0.000 N 
ATOM     11  H   UNL     1       4.523   1.985  18.355  0.00  0.00    +0.000 HD
BRANCH  10  12
ATOM     12  C   UNL     1       5.068   3.998  17.950  0.00  0.00    +0.000 A 
ATOM     13  C   UNL     1       5.650   4.548  19.089  0.00  0.00    +0.000 A 
ATOM     14  C   UNL     1       6.485   5.661  18.969  0.00  0.00    +0.000 A 
ATOM     15  C   UNL     1       6.740   6.225  17.713  0.00  0.00    +0.000 A 
ATOM     16  C   UNL     1       7.604   7.443  17.570  0.00  0.00    +0.000 C 
ATOM     17  C   UNL     1       6.167   5.645  16.574  0.00  0.00    +0.000 A 
ATOM     18  C   UNL     1       5.345   4.525  16.692  0.00  0.00    +0.000 A 
ENDBRANCH  10  12
ENDBRANCH   7  10
ENDBRANCH   4   7
BRANCH   1  19
ATOM     19  C   UNL     1       1.634   8.340  20.956  0.00  0.00    +0.000 C 
BRANCH  19  22
ATOM     20  C   UNL     1       0.417  10.415  20.608  0.00  0.00    +0.000 C 
ATOM     21  O   UNL     1       1.082  11.058  21.403  0.00  0.00    +0.000 OA
ATOM     22  N   UNL     1       0.650   9.123  20.260  0.00  0.00    +0.000 N 
ATOM     23  H   UNL     1      -0.078   8.672  19.725  0.00  0.00    +0.000 HD
BRANCH  20  24
ATOM     24  O   UNL     1      -0.718  10.833  19.999  0.00  0.00    +0.000 OA
BRANCH  24  26
ATOM     25  C   UNL     1      -1.646  11.811  18.023  0.00  0.00    +0.000 C 
ATOM     26  C   UNL     1      -0.712  10.745  18.568  0.00  0.00    +0.000 C 
ENDBRANCH  24  26
ENDBRANCH  20  24
ENDBRANCH  19  22
ENDBRANCH   1  19
TORSDOF 7
ENDMDL
MODEL 9
REMARK VINA RESULT:      -7.3      0.873      1.325
REMARK  Name = 
REMARK  9 active torsions:
REMARK  status: ('A' for Active; 'I' for Inactive)
REMARK    1  A    between atoms: C_1  and  C_2
REMARK    2  A    between atoms: C_2  and  O_3
REMARK    3  A    between atoms: O_3  and  C_4
REMARK    4  A    between atoms: N_6  and  C_7
REMARK    5  A    between atoms: C_7  and  C_8
REMARK    6  A    between atoms: C_11  and  S_12
REMARK    7  A    between atoms: S_12  and  N_15
REMARK    8  A    between atoms: N_15  and  C_16
REMARK    9  A    between atoms: C_19  and  C_20
REMARK                            x       y       z     vdW  Elec       q    Type
REMARK                         _______ _______ _______ _____ _____    ______ ____
ROOT
ATOM      1  C   UNL     1       5.538   4.480  17.321  0.00  0.00    +0.000 A 
ATOM      2  C   UNL     1       5.775   4.913  18.636  0.00  0.00    +0.000 A 
ATOM      3  C   UNL     1       4.736   4.952  19.567  0.00  0.00    +0.000 A 
ATOM      4  C   UNL     1       3.453   4.556  19.184  0.00  0.00    +0.000 A 
ATOM      5  C   UNL     1       3.205   4.097  17.887  0.00  0.00    +0.000 A 
ATOM      6  C   UNL     1       4.246   4.066  16.958  0.00  0.00    +0.000 A 
ENDROOT
BRANCH   4   7
ATOM      7  S   UNL     1       2.132   4.587  20.379  0.00  0.00    +0.000 S 
ATOM      8  O   UNL     1       0.872   4.536  19.668  0.00  0.00    +0.000 OA
ATOM      9  O   UNL     1       2.450   3.615  21.404  0.00  0.00    +0.000 OA
BRANCH   7  10
ATOM     10  N   UNL     1       2.320   6.092  21.089  0.00  0.00    +0.000 N 
ATOM     11  H   UNL     1       2.659   6.124  22.046  0.00  0.00    +0.000 HD
BRANCH  10  12
ATOM     12  C   UNL     1       1.819   7.247  20.451  0.00  0.00    +0.000 A 
ATOM     13  C   UNL     1       2.281   7.610  19.188  0.00  0.00    +0.000 A 
ATOM     14  C   UNL     1       1.806   8.778  18.587  0.00  0.00    +0.000 A 
ATOM     15  C   UNL     1       0.868   9.584  19.246  0.00  0.00    +0.000 A 
ATOM     16  C   UNL     1       0.376  10.860  18.631  0.00  0.00    +0.000 C 
ATOM     17  C   UNL     1       0.394   9.192  20.504  0.00  0.00    +0.000 A 
ATOM     18  C   UNL     1       0.858   8.019  21.098  0.00  0.00    +0.000 A 
ENDBRANCH  10  12
ENDBRANCH   7  10
ENDBRANCH   4   7
BRANCH   1  19
ATOM     19  C   UNL     1       6.675   4.395  16.339  0.00  0.00    +0.000 C 
BRANCH  19  22
ATOM     20  C   UNL     1       6.580   4.296  13.912  0.00  0.00    +0.000 C 
ATOM     21  O   UNL     1       7.360   5.219  13.741  0.00  0.00    +0.000 OA
ATOM     22  N   UNL     1       6.246   3.769  15.118  0.00  0.00    +0.000 N 
ATOM     23  H   UNL     1       5.466   3.128  15.119  0.00  0.00    +0.000 HD
BRANCH  20  24
ATOM     24  O   UNL     1       5.843   3.690  12.952  0.00  0.00    +0.000 OA
BRANCH  24  26
ATOM     25  C   UNL     1       6.085   1.886  11.400  0.00  0.00    +0.000 C 
ATOM     26  C   UNL     1       6.576   3.268  11.794  0.00  0.00    +0.000 C 
ENDBRANCH  24  26
ENDBRANCH  20  24
ENDBRANCH  19  22
ENDBRANCH   1  19
TORSDOF 7
ENDMDL
