MODEL 1
REMARK VINA RESULT:      -7.0      0.000      0.000
REMARK  Name = 
REMARK  4 active torsions:
REMARK  status: ('A' for Active; 'I' for Inactive)
REMARK    1  A    between atoms: C_1  and  N_2
REMARK    2  A    between atoms: C_5  and  C_6
REMARK    3  A    between atoms: C_9  and  O_10
REMARK    4  A    between atoms: C_16  and  O_17
REMARK                            x       y       z     vdW  Elec       q    Type
REMARK                         _______ _______ _______ _____ _____    ______ ____
ROOT
ATOM      1  C   UNL     1       2.027   1.888  19.158  0.00  0.00    +0.000 C 
ATOM      2  N   UNL     1       2.927   2.973  19.540  0.00  0.00    +0.000 NA
ATOM      3  C   UNL     1       2.174   4.115  20.136  0.00  0.00    +0.000 C 
ATOM      4  C   UNL     1       1.978   5.406  19.108  0.00  0.00    +0.000 C 
ATOM      5  C   UNL     1       3.321   5.941  18.111  0.00  0.00    +0.000 C 
ATOM      6  C   UNL     1       2.814   7.359  17.815  0.00  0.00    +0.000 C 
ATOM      7  C   UNL     1       4.322   5.678  16.858  0.00  0.00    +0.000 A 
ATOM      8  C   UNL     1       5.447   6.580  16.829  0.00  0.00    +0.000 A 
ATOM      9  C   UNL     1       6.721   6.147  16.436  0.00  0.00    +0.000 A 
ATOM     10  C   UNL     1       6.901   4.919  15.822  0.00  0.00    +0.000 A 
ATOM     11  C   UNL     1       5.814   4.053  15.711  0.00  0.00    +0.000 A 
ATOM     12  C   UNL     1       4.592   4.368  16.333  0.00  0.00    +0.000 A 
ATOM     13  C   UNL     1       3.845   3.188  16.933  0.00  0.00    +0.000 C 
ATOM     14  C   UNL     1       3.557   3.626  18.408  0.00  0.00    +0.000 C 
ATOM     15  C   UNL     1       4.284   5.060  18.915  0.00  0.00    +0.000 C 
ENDROOT
BRANCH   9  16
ATOM     16  O   UNL     1       7.837   6.838  16.839  0.00  0.00    +0.000 OA
ATOM     17  H   UNL     1       8.099   6.466  17.703  0.00  0.00    +0.000 HD
ENDBRANCH   9  16
BRANCH  15  18
ATOM     18  O   UNL     1       4.350   5.573  20.250  0.00  0.00    +0.000 OA
ATOM     19  H   UNL     1       3.722   5.034  20.782  0.00  0.00    +0.000 HD
ENDBRANCH  15  18
TORSDOF 2
ENDMDL
MODEL 2
REMARK VINA RESULT:      -6.9      2.087      5.142
REMARK  Name = 
REMARK  4 active torsions:
REMARK  status: ('A' for Active; 'I' for Inactive)
REMARK    1  A    between atoms: C_1  and  N_2
REMARK    2  A    between atoms: C_5  and  C_6
REMARK    3  A    between atoms: C_9  and  O_10
REMARK    4  A    between atoms: C_16  and  O_17
REMARK                            x       y       z     vdW  Elec       q    Type
REMARK                         _______ _______ _______ _____ _____    ______ ____
ROOT
ATOM      1  C   UNL     1       6.685   7.163  17.109  0.00  0.00    +0.000 C 
ATOM      2  N   UNL     1       6.371   5.954  17.867  0.00  0.00    +0.000 NA
ATOM      3  C   UNL     1       6.553   4.731  17.032  0.00  0.00    +0.000 C 
ATOM      4  C   UNL     1       5.130   4.068  16.484  0.00  0.00    +0.000 C 
ATOM      5  C   UNL     1       3.753   3.938  17.566  0.00  0.00    +0.000 C 
ATOM      6  C   UNL     1       2.981   2.856  16.800  0.00  0.00    +0.000 C 
ATOM      7  C   UNL     1       2.564   4.661  18.407  0.00  0.00    +0.000 A 
ATOM      8  C   UNL     1       1.923   3.784  19.355  0.00  0.00    +0.000 A 
ATOM      9  C   UNL     1       1.509   4.243  20.613  0.00  0.00    +0.000 A 
ATOM     10  C   UNL     1       1.464   5.597  20.900  0.00  0.00    +0.000 A 
ATOM     11  C   UNL     1       1.959   6.503  19.963  0.00  0.00    +0.000 A 
ATOM     12  C   UNL     1       2.615   6.039  18.808  0.00  0.00    +0.000 A 
ATOM     13  C   UNL     1       3.802   6.875  18.355  0.00  0.00    +0.000 C 
ATOM     14  C   UNL     1       4.967   5.838  18.214  0.00  0.00    +0.000 C 
ATOM     15  C   UNL     1       4.648   4.277  18.765  0.00  0.00    +0.000 C 
ENDROOT
BRANCH   9  16
ATOM     16  O   UNL     1       1.341   3.357  21.648  0.00  0.00    +0.000 OA
ATOM     17  H   UNL     1       0.425   3.024  21.585  0.00  0.00    +0.000 HD
ENDBRANCH   9  16
BRANCH  15  18
ATOM     18  O   UNL     1       5.587   3.210  18.937  0.00  0.00    +0.000 OA
ATOM     19  H   UNL     1       5.744   2.837  18.041  0.00  0.00    +0.000 HD
ENDBRANCH  15  18
TORSDOF 2
ENDMDL
MODEL 3
REMARK VINA RESULT:      -6.7      2.535      4.377
REMARK  Name = 
REMARK  4 active torsions:
REMARK  status: ('A' for Active; 'I' for Inactive)
REMARK    1  A    between atoms: C_1  and  N_2
REMARK    2  A    between atoms: C_5  and  C_6
REMARK    3  A    between atoms: C_9  and  O_10
REMARK    4  A    between atoms: C_16  and  O_17
REMARK                            x       y       z     vdW  Elec       q    Type
REMARK                         _______ _______ _______ _____ _____    ______ ____
ROOT
ATOM      1  C   UNL     1       1.403   2.416  21.152  0.00  0.00    +0.000 C 
ATOM      2  N   UNL     1       1.144   3.084  19.879  0.00  0.00    +0.000 NA
ATOM      3  C   UNL     1       1.925   2.460  18.772  0.00  0.00    +0.000 C 
ATOM      4  C   UNL     1       3.260   3.334  18.307  0.00  0.00    +0.000 C 
ATOM      5  C   UNL     1       3.146   5.079  18.141  0.00  0.00    +0.000 C 
ATOM      6  C   UNL     1       4.371   5.287  17.239  0.00  0.00    +0.000 C 
ATOM      7  C   UNL     1       2.992   6.541  18.833  0.00  0.00    +0.000 A 
ATOM      8  C   UNL     1       2.704   7.592  17.888  0.00  0.00    +0.000 A 
ATOM      9  C   UNL     1       1.824   8.637  18.202  0.00  0.00    +0.000 A 
ATOM     10  C   UNL     1       1.398   8.846  19.503  0.00  0.00    +0.000 A 
ATOM     11  C   UNL     1       1.752   7.924  20.487  0.00  0.00    +0.000 A 
ATOM     12  C   UNL     1       2.415   6.735  20.135  0.00  0.00    +0.000 A 
ATOM     13  C   UNL     1       2.004   5.503  20.927  0.00  0.00    +0.000 C 
ATOM     14  C   UNL     1       1.646   4.445  19.830  0.00  0.00    +0.000 C 
ATOM     15  C   UNL     1       1.618   5.001  18.238  0.00  0.00    +0.000 C 
ENDROOT
BRANCH   9  16
ATOM     16  O   UNL     1       1.207   9.341  17.197  0.00  0.00    +0.000 OA
ATOM     17  H   UNL     1       1.899   9.561  16.544  0.00  0.00    +0.000 HD
ENDBRANCH   9  16
BRANCH  15  18
ATOM     18  O   UNL     1       1.131   4.304  17.086  0.00  0.00    +0.000 OA
ATOM     19  H   UNL     1       0.315   3.837  17.373  0.00  0.00    +0.000 HD
ENDBRANCH  15  18
TORSDOF 2
ENDMDL
MODEL 4
REMARK VINA RESULT:      -6.7      1.933      5.212
REMARK  Name = 
REMARK  4 active torsions:
REMARK  status: ('A' for Active; 'I' for Inactive)
REMARK    1  A    between atoms: C_1  and  N_2
REMARK    2  A    between atoms: C_5  and  C_6
REMARK    3  A    between atoms: C_9  and  O_10
REMARK    4  A    between atoms: C_16  and  O_17
REMARK                            x       y       z     vdW  Elec       q    Type
REMARK                         _______ _______ _______ _____ _____    ______ ____
ROOT
ATOM      1  C   UNL     1       4.874   7.097  16.217  0.00  0.00    +0.000 C 
ATOM      2  N   UNL     1       5.271   6.105  17.214  0.00  0.00    +0.000 NA
ATOM      3  C   UNL     1       5.948   4.939  16.576  0.00  0.00    +0.000 C 
ATOM      4  C   UNL     1       4.990   3.587  16.446  0.00  0.00    +0.000 C 
ATOM      5  C   UNL     1       3.966   3.109  17.792  0.00  0.00    +0.000 C 
ATOM      6  C   UNL     1       3.756   1.643  17.389  0.00  0.00    +0.000 C 
ATOM      7  C   UNL     1       2.663   3.387  18.723  0.00  0.00    +0.000 A 
ATOM      8  C   UNL     1       2.632   2.576  19.914  0.00  0.00    +0.000 A 
ATOM      9  C   UNL     1       2.169   3.086  21.135  0.00  0.00    +0.000 A 
ATOM     10  C   UNL     1       1.492   4.293  21.195  0.00  0.00    +0.000 A 
ATOM     11  C   UNL     1       1.385   5.065  20.039  0.00  0.00    +0.000 A 
ATOM     12  C   UNL     1       2.069   4.687  18.870  0.00  0.00    +0.000 A 
ATOM     13  C   UNL     1       2.642   5.834  18.052  0.00  0.00    +0.000 C 
ATOM     14  C   UNL     1       4.146   5.448  17.853  0.00  0.00    +0.000 C 
ATOM     15  C   UNL     1       4.690   4.101  18.710  0.00  0.00    +0.000 C 
ENDROOT
BRANCH   9  16
ATOM     16  O   UNL     1       2.560   2.504  22.316  0.00  0.00    +0.000 OA
ATOM     17  H   UNL     1       1.764   2.457  22.881  0.00  0.00    +0.000 HD
ENDBRANCH   9  16
BRANCH  15  18
ATOM     18  O   UNL     1       6.044   3.662  18.864  0.00  0.00    +0.000 OA
ATOM     19  H   UNL     1       6.018   2.917  19.506  0.00  0.00    +0.000 HD
ENDBRANCH  15  18
TORSDOF 2
ENDMDL
MODEL 5
REMARK VINA RESULT:      -6.4      1.979      4.484
REMARK  Name = 
REMARK  4 active torsions:
REMARK  status: ('A' for Active; 'I' for Inactive)
REMARK    1  A    between atoms: C_1  and  N_2
REMARK    2  A    between atoms: C_5  and  C_6
REMARK    3  A    between atoms: C_9  and  O_10
REMARK    4  A    between atoms: C_16  and  O_17
REMARK                            x       y       z     vdW  Elec       q    Type
REMARK                         _______ _______ _______ _____ _____    ______ ____
ROOT
ATOM      1  C   UNL     1       2.262   8.280  18.000  0.00  0.00    +0.000 C 
ATOM      2  N   UNL     1       3.340   7.364  18.367  0.00  0.00    +0.000 NA
ATOM      3  C   UNL     1       4.553   7.595  17.530  0.00  0.00    +0.000 C 
ATOM      4  C   UNL     1       4.773   6.465  16.331  0.00  0.00    +0.000 C 
ATOM      5  C   UNL     1       4.515   4.762  16.677  0.00  0.00    +0.000 C 
ATOM      6  C   UNL     1       5.321   4.183  15.506  0.00  0.00    +0.000 C 
ATOM      7  C   UNL     1       3.493   3.544  17.010  0.00  0.00    +0.000 A 
ATOM      8  C   UNL     1       4.161   2.344  17.451  0.00  0.00    +0.000 A 
ATOM      9  C   UNL     1       3.617   1.531  18.455  0.00  0.00    +0.000 A 
ATOM     10  C   UNL     1       2.311   1.700  18.883  0.00  0.00    +0.000 A 
ATOM     11  C   UNL     1       1.573   2.777  18.393  0.00  0.00    +0.000 A 
ATOM     12  C   UNL     1       2.192   3.748  17.585  0.00  0.00    +0.000 A 
ATOM     13  C   UNL     1       1.727   5.178  17.815  0.00  0.00    +0.000 C 
ATOM     14  C   UNL     1       3.052   5.978  18.050  0.00  0.00    +0.000 C 
ATOM     15  C   UNL     1       4.463   5.063  18.179  0.00  0.00    +0.000 C 
ENDROOT
BRANCH   9  16
ATOM     16  O   UNL     1       4.431   0.694  19.178  0.00  0.00    +0.000 OA
ATOM     17  H   UNL     1       4.874   1.246  19.850  0.00  0.00    +0.000 HD
ENDBRANCH   9  16
BRANCH  15  18
ATOM     18  O   UNL     1       5.756   5.520  18.590  0.00  0.00    +0.000 OA
ATOM     19  H   UNL     1       6.405   4.896  18.193  0.00  0.00    +0.000 HD
ENDBRANCH  15  18
TORSDOF 2
ENDMDL
MODEL 6
REMARK VINA RESULT:      -6.4      1.994      4.663
REMARK  Name = 
REMARK  4 active torsions:
REMARK  status: ('A' for Active; 'I' for Inactive)
REMARK    1  A    between atoms: C_1  and  N_2
REMARK    2  A    between atoms: C_5  and  C_6
REMARK    3  A    between atoms: C_9  and  O_10
REMARK    4  A    between atoms: C_16  and  O_17
REMARK                            x       y       z     vdW  Elec       q    Type
REMARK                         _______ _______ _______ _____ _____    ______ ____
ROOT
ATOM      1  C   UNL     1       5.994   3.647  13.964  0.00  0.00    +0.000 C 
ATOM      2  N   UNL     1       5.842   4.848  14.780  0.00  0.00    +0.000 NA
ATOM      3  C   UNL     1       7.159   5.325  15.292  0.00  0.00    +0.000 C 
ATOM      4  C   UNL     1       7.434   4.965  16.892  0.00  0.00    +0.000 C 
ATOM      5  C   UNL     1       6.146   5.174  18.068  0.00  0.00    +0.000 C 
ATOM      6  C   UNL     1       7.018   5.234  19.330  0.00  0.00    +0.000 C 
ATOM      7  C   UNL     1       4.718   4.693  18.675  0.00  0.00    +0.000 A 
ATOM      8  C   UNL     1       4.142   5.642  19.596  0.00  0.00    +0.000 A 
ATOM      9  C   UNL     1       2.761   5.880  19.634  0.00  0.00    +0.000 A 
ATOM     10  C   UNL     1       1.873   5.043  18.978  0.00  0.00    +0.000 A 
ATOM     11  C   UNL     1       2.376   4.026  18.168  0.00  0.00    +0.000 A 
ATOM     12  C   UNL     1       3.758   3.940  17.917  0.00  0.00    +0.000 A 
ATOM     13  C   UNL     1       4.136   3.509  16.508  0.00  0.00    +0.000 C 
ATOM     14  C   UNL     1       5.136   4.614  16.026  0.00  0.00    +0.000 C 
ATOM     15  C   UNL     1       5.316   5.950  17.039  0.00  0.00    +0.000 C 
ENDROOT
BRANCH   9  16
ATOM     16  O   UNL     1       2.280   7.061  20.144  0.00  0.00    +0.000 OA
ATOM     17  H   UNL     1       2.946   7.380  20.783  0.00  0.00    +0.000 HD
ENDBRANCH   9  16
BRANCH  15  18
ATOM     18  O   UNL     1       5.998   7.174  16.744  0.00  0.00    +0.000 OA
ATOM     19  H   UNL     1       6.467   7.431  17.570  0.00  0.00    +0.000 HD
ENDBRANCH  15  18
TORSDOF 2
ENDMDL
MODEL 7
REMARK VINA RESULT:      -6.2      2.042      3.199
REMARK  Name = 
REMARK  4 active torsions:
REMARK  status: ('A' for Active; 'I' for Inactive)
REMARK    1  A    between atoms: C_1  and  N_2
REMARK    2  A    between atoms: C_5  and  C_6
REMARK    3  A    between atoms: C_9  and  O_10
REMARK    4  A    between atoms: C_16  and  O_17
REMARK                            x       y       z     vdW  Elec       q    Type
REMARK                         _______ _______ _______ _____ _____    ______ ____
ROOT
ATOM      1  C   UNL     1       1.715   5.923  21.078  0.00  0.00    +0.000 C 
ATOM      2  N   UNL     1       1.575   5.363  19.736  0.00  0.00    +0.000 NA
ATOM      3  C   UNL     1       1.033   3.974  19.784  0.00  0.00    +0.000 C 
ATOM      4  C   UNL     1       2.177   2.793  19.538  0.00  0.00    +0.000 C 
ATOM      5  C   UNL     1       3.384   2.995  18.278  0.00  0.00    +0.000 C 
ATOM      6  C   UNL     1       3.785   1.521  18.129  0.00  0.00    +0.000 C 
ATOM      7  C   UNL     1       4.708   3.756  17.722  0.00  0.00    +0.000 A 
ATOM      8  C   UNL     1       4.979   3.484  16.332  0.00  0.00    +0.000 A 
ATOM      9  C   UNL     1       5.468   4.478  15.473  0.00  0.00    +0.000 A 
ATOM     10  C   UNL     1       5.948   5.679  15.970  0.00  0.00    +0.000 A 
ATOM     11  C   UNL     1       5.823   5.944  17.333  0.00  0.00    +0.000 A 
ATOM     12  C   UNL     1       5.102   5.066  18.161  0.00  0.00    +0.000 A 
ATOM     13  C   UNL     1       4.281   5.732  19.254  0.00  0.00    +0.000 C 
ATOM     14  C   UNL     1       2.844   5.136  19.071  0.00  0.00    +0.000 C 
ATOM     15  C   UNL     1       2.602   4.181  17.702  0.00  0.00    +0.000 C 
ENDROOT
BRANCH   9  16
ATOM     16  O   UNL     1       5.286   4.366  14.117  0.00  0.00    +0.000 OA
ATOM     17  H   UNL     1       5.786   5.097  13.706  0.00  0.00    +0.000 HD
ENDBRANCH   9  16
BRANCH  15  18
ATOM     18  O   UNL     1       1.355   3.692  17.197  0.00  0.00    +0.000 OA
ATOM     19  H   UNL     1       0.654   4.130  17.729  0.00  0.00    +0.000 HD
ENDBRANCH  15  18
TORSDOF 2
ENDMDL
MODEL 8
REMARK VINA RESULT:      -6.2      1.797      2.673
REMARK  Name = 
REMARK  4 active torsions:
REMARK  status: ('A' for Active; 'I' for Inactive)
REMARK    1  A    between atoms: C_1  and  N_2
REMARK    2  A    between atoms: C_5  and  C_6
REMARK    3  A    between atoms: C_9  and  O_10
REMARK    4  A    between atoms: C_16  and  O_17
REMARK                            x       y       z     vdW  Elec       q    Type
REMARK                         _______ _______ _______ _____ _____    ______ ____
ROOT
ATOM      1  C   UNL     1       2.885   3.074  20.377  0.00  0.00    +0.000 C 
ATOM      2  N   UNL     1       2.981   4.300  19.588  0.00  0.00    +0.000 NA
ATOM      3  C   UNL     1       2.265   4.162  18.287  0.00  0.00    +0.000 C 
ATOM      4  C   UNL     1       3.270   3.923  16.984  0.00  0.00    +0.000 C 
ATOM      5  C   UNL     1       4.748   4.861  16.836  0.00  0.00    +0.000 C 
ATOM      6  C   UNL     1       4.975   4.665  15.331  0.00  0.00    +0.000 C 
ATOM      7  C   UNL     1       6.251   5.190  17.358  0.00  0.00    +0.000 A 
ATOM      8  C   UNL     1       6.792   6.406  16.805  0.00  0.00    +0.000 A 
ATOM      9  C   UNL     1       7.589   7.268  17.572  0.00  0.00    +0.000 A 
ATOM     10  C   UNL     1       8.097   6.870  18.798  0.00  0.00    +0.000 A 
ATOM     11  C   UNL     1       7.703   5.642  19.326  0.00  0.00    +0.000 A 
ATOM     12  C   UNL     1       6.703   4.886  18.688  0.00  0.00    +0.000 A 
ATOM     13  C   UNL     1       5.750   4.152  19.618  0.00  0.00    +0.000 C 
ATOM     14  C   UNL     1       4.327   4.585  19.128  0.00  0.00    +0.000 C 
ATOM     15  C   UNL     1       4.279   5.797  17.956  0.00  0.00    +0.000 C 
ENDROOT
BRANCH   9  16
ATOM     16  O   UNL     1       7.707   8.590  17.221  0.00  0.00    +0.000 OA
ATOM     17  H   UNL     1       7.162   8.717  16.421  0.00  0.00    +0.000 HD
ENDBRANCH   9  16
BRANCH  15  18
ATOM     18  O   UNL     1       3.126   6.508  17.492  0.00  0.00    +0.000 OA
ATOM     19  H   UNL     1       2.399   6.288  18.118  0.00  0.00    +0.000 HD
ENDBRANCH  15  18
TORSDOF 2
ENDMDL
MODEL 9
REMARK VINA RESULT:      -6.1      1.963      4.699
REMARK  Name = 
REMARK  4 active torsions:
REMARK  status: ('A' for Active; 'I' for Inactive)
REMARK    1  A    between atoms: C_1  and  N_2
REMARK    2  A    between atoms: C_5  and  C_6
REMARK    3  A    between atoms: C_9  and  O_10
REMARK    4  A    between atoms: C_16  and  O_17
REMARK                            x       y       z     vdW  Elec       q    Type
REMARK                         _______ _______ _______ _____ _____    ______ ____
ROOT
ATOM      1  C   UNL     1       2.282   8.241  17.759  0.00  0.00    +0.000 C 
ATOM      2  N   UNL     1       3.464   7.530  18.241  0.00  0.00    +0.000 NA
ATOM      3  C   UNL     1       4.497   7.413  17.172  0.00  0.00    +0.000 C 
ATOM      4  C   UNL     1       4.580   5.907  16.473  0.00  0.00    +0.000 C 
ATOM      5  C   UNL     1       4.497   4.470  17.481  0.00  0.00    +0.000 C 
ATOM      6  C   UNL     1       5.125   3.479  16.491  0.00  0.00    +0.000 C 
ATOM      7  C   UNL     1       3.628   3.481  18.434  0.00  0.00    +0.000 A 
ATOM      8  C   UNL     1       4.439   2.540  19.166  0.00  0.00    +0.000 A 
ATOM      9  C   UNL     1       4.131   2.180  20.485  0.00  0.00    +0.000 A 
ATOM     10  C   UNL     1       2.910   2.509  21.050  0.00  0.00    +0.000 A 
ATOM     11  C   UNL     1       2.030   3.319  20.332  0.00  0.00    +0.000 A 
ATOM     12  C   UNL     1       2.436   3.900  19.117  0.00  0.00    +0.000 A 
ATOM     13  C   UNL     1       1.925   5.311  18.869  0.00  0.00    +0.000 C 
ATOM     14  C   UNL     1       3.216   6.131  18.533  0.00  0.00    +0.000 C 
ATOM     15  C   UNL     1       4.685   5.327  18.738  0.00  0.00    +0.000 C 
ENDROOT
BRANCH   9  16
ATOM     16  O   UNL     1       5.110   1.680  21.308  0.00  0.00    +0.000 OA
ATOM     17  H   UNL     1       4.702   1.563  22.188  0.00  0.00    +0.000 HD
ENDBRANCH   9  16
BRANCH  15  18
ATOM     18  O   UNL     1       5.997   5.898  18.699  0.00  0.00    +0.000 OA
ATOM     19  H   UNL     1       6.259   6.046  19.635  0.00  0.00    +0.000 HD
ENDBRANCH  15  18
TORSDOF 2
ENDMDL
