MODEL 1
REMARK VINA RESULT:      -6.0      0.000      0.000
REMARK  Name = 
REMARK  6 active torsions:
REMARK  status: ('A' for Active; 'I' for Inactive)
REMARK    1  A    between atoms: C_1  and  N_2
REMARK    2  A    between atoms: N_2  and  C_3
REMARK    3  A    between atoms: N_2  and  C_4
REMARK    4  A    between atoms: N_2  and  C_5
REMARK    5  A    between atoms: C_5  and  C_6
REMARK    6  A    between atoms: N_12  and  O_13
REMARK                            x       y       z     vdW  Elec       q    Type
REMARK                         _______ _______ _______ _____ _____    ______ ____
ROOT
ATOM      1  C   UNL     1       4.046   4.330  17.980  0.00  0.00    +0.000 C 
ATOM      2  C   UNL     1       2.627   4.904  18.165  0.00  0.00    +0.000 C 
ATOM      3  C   UNL     1       1.520   3.902  17.822  0.00  0.00    +0.000 C 
ATOM      4  C   UNL     1       1.660   2.614  18.633  0.00  0.00    +0.000 C 
ATOM      5  C   UNL     1       3.048   1.999  18.507  0.00  0.00    +0.000 C 
ATOM      6  C   UNL     1       4.103   3.052  18.798  0.00  0.00    +0.000 C 
ATOM      7  N   UNL     1       5.074   2.941  19.653  0.00  0.00    +0.000 NA
ENDROOT
BRANCH   7   8
ATOM      8  O   UNL     1       5.066   1.698  20.287  0.00  0.00    +0.000 OA
ATOM      9  H   UNL     1       4.128   1.427  20.232  0.00  0.00    +0.000 HD
ENDBRANCH   7   8
BRANCH   1  10
ATOM     10  C   UNL     1       4.370   4.107  16.492  0.00  0.00    +0.000 C 
BRANCH  10  12
ATOM     11  C   UNL     1       5.299   6.316  15.846  0.00  0.00    +0.000 C 
ATOM     12  N   UNL     1       5.621   4.815  15.918  0.00  0.00    +0.000 N 
ATOM     13  C   UNL     1       5.976   4.368  14.501  0.00  0.00    +0.000 C 
ATOM     14  C   UNL     1       6.838   4.628  16.816  0.00  0.00    +0.000 C 
ENDBRANCH  10  12
ENDBRANCH   1  10
TORSDOF 3
ENDMDL
MODEL 2
REMARK VINA RESULT:      -6.0      0.069      1.201
REMARK  Name = 
REMARK  6 active torsions:
REMARK  status: ('A' for Active; 'I' for Inactive)
REMARK    1  A    between atoms: C_1  and  N_2
REMARK    2  A    between atoms: N_2  and  C_3
REMARK    3  A    between atoms: N_2  and  C_4
REMARK    4  A    between atoms: N_2  and  C_5
REMARK    5  A    between atoms: C_5  and  C_6
REMARK    6  A    between atoms: N_12  and  O_13
REMARK                            x       y       z     vdW  Elec       q    Type
REMARK                         _______ _______ _______ _____ _____    ______ ____
ROOT
ATOM      1  C   UNL     1       4.061   4.298  17.978  0.00  0.00    +0.000 C 
ATOM      2  C   UNL     1       2.633   4.859  18.138  0.00  0.00    +0.000 C 
ATOM      3  C   UNL     1       1.543   3.844  17.782  0.00  0.00    +0.000 C 
ATOM      4  C   UNL     1       1.682   2.561  18.601  0.00  0.00    +0.000 C 
ATOM      5  C   UNL     1       3.078   1.959  18.500  0.00  0.00    +0.000 C 
ATOM      6  C   UNL     1       4.118   3.024  18.803  0.00  0.00    +0.000 C 
ATOM      7  N   UNL     1       5.076   2.927  19.674  0.00  0.00    +0.000 NA
ENDROOT
BRANCH   7   8
ATOM      8  O   UNL     1       5.070   1.687  20.314  0.00  0.00    +0.000 OA
ATOM      9  H   UNL     1       4.117   1.480  20.388  0.00  0.00    +0.000 HD
ENDBRANCH   7   8
BRANCH   1  10
ATOM     10  C   UNL     1       4.412   4.071  16.497  0.00  0.00    +0.000 C 
BRANCH  10  12
ATOM     11  C   UNL     1       6.800   4.681  16.794  0.00  0.00    +0.000 C 
ATOM     12  N   UNL     1       5.570   4.907  15.900  0.00  0.00    +0.000 N 
ATOM     13  C   UNL     1       5.294   6.409  15.894  0.00  0.00    +0.000 C 
ATOM     14  C   UNL     1       5.917   4.462  14.485  0.00  0.00    +0.000 C 
ENDBRANCH  10  12
ENDBRANCH   1  10
TORSDOF 3
ENDMDL
MODEL 3
REMARK VINA RESULT:      -5.9      0.485      1.141
REMARK  Name = 
REMARK  6 active torsions:
REMARK  status: ('A' for Active; 'I' for Inactive)
REMARK    1  A    between atoms: C_1  and  N_2
REMARK    2  A    between atoms: N_2  and  C_3
REMARK    3  A    between atoms: N_2  and  C_4
REMARK    4  A    between atoms: N_2  and  C_5
REMARK    5  A    between atoms: C_5  and  C_6
REMARK    6  A    between atoms: N_12  and  O_13
REMARK                            x       y       z     vdW  Elec       q    Type
REMARK                         _______ _______ _______ _____ _____    ______ ____
ROOT
ATOM      1  C   UNL     1       4.055   4.445  18.193  0.00  0.00    +0.000 C 
ATOM      2  C   UNL     1       2.581   4.880  18.322  0.00  0.00    +0.000 C 
ATOM      3  C   UNL     1       1.597   3.859  17.743  0.00  0.00    +0.000 C 
ATOM      4  C   UNL     1       1.780   2.482  18.378  0.00  0.00    +0.000 C 
ATOM      5  C   UNL     1       3.221   1.995  18.299  0.00  0.00    +0.000 C 
ATOM      6  C   UNL     1       4.155   3.069  18.829  0.00  0.00    +0.000 C 
ATOM      7  N   UNL     1       5.058   2.908  19.748  0.00  0.00    +0.000 NA
ENDROOT
BRANCH   7   8
ATOM      8  O   UNL     1       5.105   1.589  20.201  0.00  0.00    +0.000 OA
ATOM      9  H   UNL     1       4.689   1.088  19.471  0.00  0.00    +0.000 HD
ENDBRANCH   7   8
BRANCH   1  10
ATOM     10  C   UNL     1       4.518   4.464  16.726  0.00  0.00    +0.000 C 
BRANCH  10  12
ATOM     11  C   UNL     1       6.028   5.146  14.878  0.00  0.00    +0.000 C 
ATOM     12  N   UNL     1       5.828   5.222  16.399  0.00  0.00    +0.000 N 
ATOM     13  C   UNL     1       7.066   4.600  17.043  0.00  0.00    +0.000 C 
ATOM     14  C   UNL     1       5.746   6.690  16.800  0.00  0.00    +0.000 C 
ENDBRANCH  10  12
ENDBRANCH   1  10
TORSDOF 3
ENDMDL
MODEL 4
REMARK VINA RESULT:      -5.8      1.645      2.029
REMARK  Name = 
REMARK  6 active torsions:
REMARK  status: ('A' for Active; 'I' for Inactive)
REMARK    1  A    between atoms: C_1  and  N_2
REMARK    2  A    between atoms: N_2  and  C_3
REMARK    3  A    between atoms: N_2  and  C_4
REMARK    4  A    between atoms: N_2  and  C_5
REMARK    5  A    between atoms: C_5  and  C_6
REMARK    6  A    between atoms: N_12  and  O_13
REMARK                            x       y       z     vdW  Elec       q    Type
REMARK                         _______ _______ _______ _____ _____    ______ ____
ROOT
ATOM      1  C   UNL     1       4.539   5.191  19.115  0.00  0.00    +0.000 C 
ATOM      2  C   UNL     1       3.148   5.842  19.260  0.00  0.00    +0.000 C 
ATOM      3  C   UNL     1       2.209   5.527  18.092  0.00  0.00    +0.000 C 
ATOM      4  C   UNL     1       2.049   4.021  17.892  0.00  0.00    +0.000 C 
ATOM      5  C   UNL     1       3.389   3.309  17.755  0.00  0.00    +0.000 C 
ATOM      6  C   UNL     1       4.298   3.706  18.904  0.00  0.00    +0.000 C 
ATOM      7  N   UNL     1       4.922   2.889  19.699  0.00  0.00    +0.000 NA
ENDROOT
BRANCH   7   8
ATOM      8  O   UNL     1       4.683   1.556  19.362  0.00  0.00    +0.000 OA
ATOM      9  H   UNL     1       4.790   1.550  18.389  0.00  0.00    +0.000 HD
ENDBRANCH   7   8
BRANCH   1  10
ATOM     10  C   UNL     1       5.343   5.836  17.973  0.00  0.00    +0.000 C 
BRANCH  10  12
ATOM     11  C   UNL     1       7.442   7.051  17.445  0.00  0.00    +0.000 C 
ATOM     12  N   UNL     1       6.887   5.752  18.049  0.00  0.00    +0.000 N 
ATOM     13  C   UNL     1       7.474   4.598  17.239  0.00  0.00    +0.000 C 
ATOM     14  C   UNL     1       7.376   5.644  19.488  0.00  0.00    +0.000 C 
ENDBRANCH  10  12
ENDBRANCH   1  10
TORSDOF 3
ENDMDL
MODEL 5
REMARK VINA RESULT:      -5.8      1.695      2.407
REMARK  Name = 
REMARK  6 active torsions:
REMARK  status: ('A' for Active; 'I' for Inactive)
REMARK    1  A    between atoms: C_1  and  N_2
REMARK    2  A    between atoms: N_2  and  C_3
REMARK    3  A    between atoms: N_2  and  C_4
REMARK    4  A    between atoms: N_2  and  C_5
REMARK    5  A    between atoms: C_5  and  C_6
REMARK    6  A    between atoms: N_12  and  O_13
REMARK                            x       y       z     vdW  Elec       q    Type
REMARK                         _______ _______ _______ _____ _____    ______ ____
ROOT
ATOM      1  C   UNL     1       4.588   5.225  19.125  0.00  0.00    +0.000 C 
ATOM      2  C   UNL     1       3.225   5.925  19.308  0.00  0.00    +0.000 C 
ATOM      3  C   UNL     1       2.248   5.652  18.161  0.00  0.00    +0.000 C 
ATOM      4  C   UNL     1       2.029   4.153  17.956  0.00  0.00    +0.000 C 
ATOM      5  C   UNL     1       3.339   3.395  17.783  0.00  0.00    +0.000 C 
ATOM      6  C   UNL     1       4.289   3.751  18.913  0.00  0.00    +0.000 C 
ATOM      7  N   UNL     1       4.902   2.908  19.687  0.00  0.00    +0.000 NA
ENDROOT
BRANCH   7   8
ATOM      8  O   UNL     1       4.607   1.587  19.348  0.00  0.00    +0.000 OA
ATOM      9  H   UNL     1       3.858   1.679  18.727  0.00  0.00    +0.000 HD
ENDBRANCH   7   8
BRANCH   1  10
ATOM     10  C   UNL     1       5.387   5.849  17.968  0.00  0.00    +0.000 C 
BRANCH  10  12
ATOM     11  C   UNL     1       7.451   4.660  17.267  0.00  0.00    +0.000 C 
ATOM     12  N   UNL     1       6.931   5.853  18.085  0.00  0.00    +0.000 N 
ATOM     13  C   UNL     1       7.431   5.662  19.516  0.00  0.00    +0.000 C 
ATOM     14  C   UNL     1       7.538   7.129  17.515  0.00  0.00    +0.000 C 
ENDBRANCH  10  12
ENDBRANCH   1  10
TORSDOF 3
ENDMDL
MODEL 6
REMARK VINA RESULT:      -5.8      2.668      3.189
REMARK  Name = 
REMARK  6 active torsions:
REMARK  status: ('A' for Active; 'I' for Inactive)
REMARK    1  A    between atoms: C_1  and  N_2
REMARK    2  A    between atoms: N_2  and  C_3
REMARK    3  A    between atoms: N_2  and  C_4
REMARK    4  A    between atoms: N_2  and  C_5
REMARK    5  A    between atoms: C_5  and  C_6
REMARK    6  A    between atoms: N_12  and  O_13
REMARK                            x       y       z     vdW  Elec       q    Type
REMARK                         _______ _______ _______ _____ _____    ______ ____
ROOT
ATOM      1  C   UNL     1       2.692   5.147  18.192  0.00  0.00    +0.000 C 
ATOM      2  C   UNL     1       1.534   4.219  17.772  0.00  0.00    +0.000 C 
ATOM      3  C   UNL     1       1.207   3.150  18.818  0.00  0.00    +0.000 C 
ATOM      4  C   UNL     1       0.893   3.773  20.178  0.00  0.00    +0.000 C 
ATOM      5  C   UNL     1       1.993   4.717  20.649  0.00  0.00    +0.000 C 
ATOM      6  C   UNL     1       2.317   5.714  19.551  0.00  0.00    +0.000 C 
ATOM      7  N   UNL     1       2.344   7.006  19.679  0.00  0.00    +0.000 NA
ENDROOT
BRANCH   7   8
ATOM      8  O   UNL     1       2.057   7.403  20.985  0.00  0.00    +0.000 OA
ATOM      9  H   UNL     1       2.516   6.731  21.527  0.00  0.00    +0.000 HD
ENDBRANCH   7   8
BRANCH   1  10
ATOM     10  C   UNL     1       4.035   4.397  18.204  0.00  0.00    +0.000 C 
BRANCH  10  12
ATOM     11  C   UNL     1       6.141   5.421  19.029  0.00  0.00    +0.000 C 
ATOM     12  N   UNL     1       5.297   5.182  17.767  0.00  0.00    +0.000 N 
ATOM     13  C   UNL     1       4.982   6.554  17.175  0.00  0.00    +0.000 C 
ATOM     14  C   UNL     1       6.135   4.392  16.770  0.00  0.00    +0.000 C 
ENDBRANCH  10  12
ENDBRANCH   1  10
TORSDOF 3
ENDMDL
MODEL 7
REMARK VINA RESULT:      -5.8      2.626      2.981
REMARK  Name = 
REMARK  6 active torsions:
REMARK  status: ('A' for Active; 'I' for Inactive)
REMARK    1  A    between atoms: C_1  and  N_2
REMARK    2  A    between atoms: N_2  and  C_3
REMARK    3  A    between atoms: N_2  and  C_4
REMARK    4  A    between atoms: N_2  and  C_5
REMARK    5  A    between atoms: C_5  and  C_6
REMARK    6  A    between atoms: N_12  and  O_13
REMARK                            x       y       z     vdW  Elec       q    Type
REMARK                         _______ _______ _______ _____ _____    ______ ____
ROOT
ATOM      1  C   UNL     1       2.740   5.214  18.255  0.00  0.00    +0.000 C 
ATOM      2  C   UNL     1       1.612   4.261  17.810  0.00  0.00    +0.000 C 
ATOM      3  C   UNL     1       1.268   3.201  18.860  0.00  0.00    +0.000 C 
ATOM      4  C   UNL     1       0.898   3.838  20.199  0.00  0.00    +0.000 C 
ATOM      5  C   UNL     1       1.966   4.806  20.693  0.00  0.00    +0.000 C 
ATOM      6  C   UNL     1       2.311   5.793  19.592  0.00  0.00    +0.000 C 
ATOM      7  N   UNL     1       2.313   7.087  19.703  0.00  0.00    +0.000 NA
ENDROOT
BRANCH   7   8
ATOM      8  O   UNL     1       1.976   7.497  20.993  0.00  0.00    +0.000 OA
ATOM      9  H   UNL     1       1.590   8.385  20.850  0.00  0.00    +0.000 HD
ENDBRANCH   7   8
BRANCH   1  10
ATOM     10  C   UNL     1       4.095   4.486  18.323  0.00  0.00    +0.000 C 
BRANCH  10  12
ATOM     11  C   UNL     1       4.921   6.403  16.979  0.00  0.00    +0.000 C 
ATOM     12  N   UNL     1       5.196   4.932  17.331  0.00  0.00    +0.000 N 
ATOM     13  C   UNL     1       5.183   4.150  16.018  0.00  0.00    +0.000 C 
ATOM     14  C   UNL     1       6.586   4.838  17.949  0.00  0.00    +0.000 C 
ENDBRANCH  10  12
ENDBRANCH   1  10
TORSDOF 3
ENDMDL
MODEL 8
REMARK VINA RESULT:      -5.8      2.617      3.198
REMARK  Name = 
REMARK  6 active torsions:
REMARK  status: ('A' for Active; 'I' for Inactive)
REMARK    1  A    between atoms: C_1  and  N_2
REMARK    2  A    between atoms: N_2  and  C_3
REMARK    3  A    between atoms: N_2  and  C_4
REMARK    4  A    between atoms: N_2  and  C_5
REMARK    5  A    between atoms: C_5  and  C_6
REMARK    6  A    between atoms: N_12  and  O_13
REMARK                            x       y       z     vdW  Elec       q    Type
REMARK                         _______ _______ _______ _____ _____    ______ ____
ROOT
ATOM      1  C   UNL     1       2.732   5.175  18.225  0.00  0.00    +0.000 C 
ATOM      2  C   UNL     1       1.590   4.226  17.808  0.00  0.00    +0.000 C 
ATOM      3  C   UNL     1       1.250   3.184  18.878  0.00  0.00    +0.000 C 
ATOM      4  C   UNL     1       0.905   3.843  20.212  0.00  0.00    +0.000 C 
ATOM      5  C   UNL     1       1.988   4.807  20.679  0.00  0.00    +0.000 C 
ATOM      6  C   UNL     1       2.327   5.776  19.559  0.00  0.00    +0.000 C 
ATOM      7  N   UNL     1       2.341   7.071  19.652  0.00  0.00    +0.000 NA
ENDROOT
BRANCH   7   8
ATOM      8  O   UNL     1       2.026   7.502  20.941  0.00  0.00    +0.000 OA
ATOM      9  H   UNL     1       1.091   7.779  20.859  0.00  0.00    +0.000 HD
ENDBRANCH   7   8
BRANCH   1  10
ATOM     10  C   UNL     1       4.081   4.435  18.284  0.00  0.00    +0.000 C 
BRANCH  10  12
ATOM     11  C   UNL     1       5.188   4.165  16.079  0.00  0.00    +0.000 C 
ATOM     12  N   UNL     1       5.227   4.966  17.389  0.00  0.00    +0.000 N 
ATOM     13  C   UNL     1       6.614   4.762  17.996  0.00  0.00    +0.000 C 
ATOM     14  C   UNL     1       5.046   6.442  17.056  0.00  0.00    +0.000 C 
ENDBRANCH  10  12
ENDBRANCH   1  10
TORSDOF 3
ENDMDL
MODEL 9
REMARK VINA RESULT:      -5.8      1.653      2.233
REMARK  Name = 
REMARK  6 active torsions:
REMARK  status: ('A' for Active; 'I' for Inactive)
REMARK    1  A    between atoms: C_1  and  N_2
REMARK    2  A    between atoms: N_2  and  C_3
REMARK    3  A    between atoms: N_2  and  C_4
REMARK    4  A    between atoms: N_2  and  C_5
REMARK    5  A    between atoms: C_5  and  C_6
REMARK    6  A    between atoms: N_12  and  O_13
REMARK                            x       y       z     vdW  Elec       q    Type
REMARK                         _______ _______ _______ _____ _____    ______ ____
ROOT
ATOM      1  C   UNL     1       4.575   5.203  19.082  0.00  0.00    +0.000 C 
ATOM      2  C   UNL     1       3.215   5.900  19.287  0.00  0.00    +0.000 C 
ATOM      3  C   UNL     1       2.217   5.620  18.159  0.00  0.00    +0.000 C 
ATOM      4  C   UNL     1       1.998   4.121  17.964  0.00  0.00    +0.000 C 
ATOM      5  C   UNL     1       3.306   3.365  17.770  0.00  0.00    +0.000 C 
ATOM      6  C   UNL     1       4.276   3.727  18.881  0.00  0.00    +0.000 C 
ATOM      7  N   UNL     1       4.905   2.888  19.647  0.00  0.00    +0.000 NA
ENDROOT
BRANCH   7   8
ATOM      8  O   UNL     1       4.607   1.565  19.319  0.00  0.00    +0.000 OA
ATOM      9  H   UNL     1       3.632   1.569  19.245  0.00  0.00    +0.000 HD
ENDBRANCH   7   8
BRANCH   1  10
ATOM     10  C   UNL     1       5.352   5.824  17.908  0.00  0.00    +0.000 C 
BRANCH  10  12
ATOM     11  C   UNL     1       7.283   5.647  19.458  0.00  0.00    +0.000 C 
ATOM     12  N   UNL     1       6.899   5.793  17.978  0.00  0.00    +0.000 N 
ATOM     13  C   UNL     1       7.555   7.076  17.471  0.00  0.00    +0.000 C 
ATOM     14  C   UNL     1       7.475   4.608  17.213  0.00  0.00    +0.000 C 
ENDBRANCH  10  12
ENDBRANCH   1  10
TORSDOF 3
ENDMDL
