MODEL 1
REMARK VINA RESULT:      -7.5      0.000      0.000
REMARK  Name = 
REMARK  7 active torsions:
REMARK  status: ('A' for Active; 'I' for Inactive)
REMARK    1  A    between atoms: C_1  and  C_2
REMARK    2  A    between atoms: C_2  and  O_3
REMARK    3  A    between atoms: O_3  and  C_4
REMARK    4  A    between atoms: C_8  and  C_9
REMARK    5  A    between atoms: C_12  and  C_13
REMARK    6  A    between atoms: C_21  and  C_22
REMARK    7  A    between atoms: C_25  and  C_26
REMARK                            x       y       z     vdW  Elec       q    Type
REMARK                         _______ _______ _______ _____ _____    ______ ____
ROOT
ATOM      1  C   UNL     1      -1.660  12.206  19.398  0.00  0.00    +0.000 C 
ATOM      2  O   UNL     1      -2.841  12.463  19.601  0.00  0.00    +0.000 OA
ATOM      3  N   UNL     1      -0.901  11.306  20.151  0.00  0.00    +0.000 N 
ATOM      4  N   UNL     1      -0.011  10.490  19.436  0.00  0.00    +0.000 NA
ATOM      5  C   UNL     1       0.421   9.459  20.106  0.00  0.00    +0.000 C 
ATOM      6  N   UNL     1      -0.031   9.178  21.382  0.00  0.00    +0.000 N 
ATOM      7  N   UNL     1      -0.550  10.137  22.190  0.00  0.00    +0.000 NA
ATOM      8  C   UNL     1      -0.947  11.206  21.552  0.00  0.00    +0.000 C 
ATOM      9  H   UNL     1       0.255   8.317  21.836  0.00  0.00    +0.000 HD
ENDROOT
BRANCH   5  10
ATOM     10  C   UNL     1       1.473   8.596  19.495  0.00  0.00    +0.000 A 
ATOM     11  C   UNL     1       1.957   8.889  18.216  0.00  0.00    +0.000 A 
ATOM     12  C   UNL     1       2.847   8.021  17.580  0.00  0.00    +0.000 A 
ATOM     13  C   UNL     1       3.261   6.840  18.210  0.00  0.00    +0.000 A 
ATOM     14  C   UNL     1       2.789   6.557  19.502  0.00  0.00    +0.000 A 
ATOM     15  C   UNL     1       1.897   7.426  20.141  0.00  0.00    +0.000 A 
BRANCH  13  16
ATOM     16  C   UNL     1       4.171   5.867  17.500  0.00  0.00    +0.000 C 
ATOM     17  F   UNL     1       5.232   5.467  18.257  0.00  0.00    +0.000 F 
ATOM     18  F   UNL     1       3.527   4.728  17.125  0.00  0.00    +0.000 F 
ATOM     19  F   UNL     1       4.705   6.391  16.362  0.00  0.00    +0.000 F 
ENDBRANCH  13  16
ENDBRANCH   5  10
BRANCH   8  20
ATOM     20  C   UNL     1      -1.359  12.393  22.361  0.00  0.00    +0.000 A 
ATOM     21  C   UNL     1      -0.531  13.517  22.501  0.00  0.00    +0.000 A 
ATOM     22  C   UNL     1      -0.877  14.546  23.380  0.00  0.00    +0.000 A 
ATOM     23  C   UNL     1      -2.032  14.453  24.167  0.00  0.00    +0.000 A 
ATOM     24  C   UNL     1      -2.840  13.312  24.049  0.00  0.00    +0.000 A 
ATOM     25  C   UNL     1      -2.507  12.294  23.155  0.00  0.00    +0.000 A 
BRANCH  23  26
ATOM     26  C   UNL     1      -2.399  15.538  25.149  0.00  0.00    +0.000 C 
ATOM     27  F   UNL     1      -1.961  16.775  24.784  0.00  0.00    +0.000 F 
ATOM     28  F   UNL     1      -3.743  15.652  25.323  0.00  0.00    +0.000 F 
ATOM     29  F   UNL     1      -1.879  15.311  26.389  0.00  0.00    +0.000 F 
ENDBRANCH  23  26
ENDBRANCH   8  20
BRANCH   1  30
ATOM     30  O   UNL     1      -0.940  12.702  18.350  0.00  0.00    +0.000 OA
BRANCH  30  32
ATOM     31  C   UNL     1       1.169  13.720  18.530  0.00  0.00    +0.000 C 
ATOM     32  C   UNL     1      -0.324  13.976  18.543  0.00  0.00    +0.000 C 
ENDBRANCH  30  32
ENDBRANCH   1  30
TORSDOF 6
ENDMDL
MODEL 2
REMARK VINA RESULT:      -7.3      0.284      1.055
REMARK  Name = 
REMARK  7 active torsions:
REMARK  status: ('A' for Active; 'I' for Inactive)
REMARK    1  A    between atoms: C_1  and  C_2
REMARK    2  A    between atoms: C_2  and  O_3
REMARK    3  A    between atoms: O_3  and  C_4
REMARK    4  A    between atoms: C_8  and  C_9
REMARK    5  A    between atoms: C_12  and  C_13
REMARK    6  A    between atoms: C_21  and  C_22
REMARK    7  A    between atoms: C_25  and  C_26
REMARK                            x       y       z     vdW  Elec       q    Type
REMARK                         _______ _______ _______ _____ _____    ______ ____
ROOT
ATOM      1  C   UNL     1      -1.810  12.210  19.469  0.00  0.00    +0.000 C 
ATOM      2  O   UNL     1      -2.988  12.462  19.690  0.00  0.00    +0.000 OA
ATOM      3  N   UNL     1      -1.028  11.334  20.227  0.00  0.00    +0.000 N 
ATOM      4  N   UNL     1      -0.146  10.508  19.514  0.00  0.00    +0.000 NA
ATOM      5  C   UNL     1       0.308   9.497  20.199  0.00  0.00    +0.000 C 
ATOM      6  N   UNL     1      -0.116   9.243  21.490  0.00  0.00    +0.000 N 
ATOM      7  N   UNL     1      -0.626  10.217  22.285  0.00  0.00    +0.000 NA
ATOM      8  C   UNL     1      -1.045  11.267  21.631  0.00  0.00    +0.000 C 
ATOM      9  H   UNL     1       0.186   8.395  21.958  0.00  0.00    +0.000 HD
ENDROOT
BRANCH   5  10
ATOM     10  C   UNL     1       1.355   8.627  19.587  0.00  0.00    +0.000 A 
ATOM     11  C   UNL     1       1.842   8.921  18.310  0.00  0.00    +0.000 A 
ATOM     12  C   UNL     1       2.727   8.048  17.673  0.00  0.00    +0.000 A 
ATOM     13  C   UNL     1       3.132   6.862  18.300  0.00  0.00    +0.000 A 
ATOM     14  C   UNL     1       2.655   6.579  19.590  0.00  0.00    +0.000 A 
ATOM     15  C   UNL     1       1.768   7.453  20.230  0.00  0.00    +0.000 A 
BRANCH  13  16
ATOM     16  C   UNL     1       4.035   5.885  17.588  0.00  0.00    +0.000 C 
ATOM     17  F   UNL     1       4.555   6.375  16.427  0.00  0.00    +0.000 F 
ATOM     18  F   UNL     1       5.101   5.510  18.346  0.00  0.00    +0.000 F 
ATOM     19  F   UNL     1       3.390   4.734  17.248  0.00  0.00    +0.000 F 
ENDBRANCH  13  16
ENDBRANCH   5  10
BRANCH   8  20
ATOM     20  C   UNL     1      -1.450  12.470  22.420  0.00  0.00    +0.000 A 
ATOM     21  C   UNL     1      -0.590  13.563  22.598  0.00  0.00    +0.000 A 
ATOM     22  C   UNL     1      -0.937  14.606  23.460  0.00  0.00    +0.000 A 
ATOM     23  C   UNL     1      -2.130  14.556  24.193  0.00  0.00    +0.000 A 
ATOM     24  C   UNL     1      -2.973  13.446  24.038  0.00  0.00    +0.000 A 
ATOM     25  C   UNL     1      -2.637  12.414  23.160  0.00  0.00    +0.000 A 
BRANCH  23  26
ATOM     26  C   UNL     1      -2.502  15.655  25.157  0.00  0.00    +0.000 C 
ATOM     27  F   UNL     1      -3.843  15.754  25.379  0.00  0.00    +0.000 F 
ATOM     28  F   UNL     1      -1.930  15.492  26.380  0.00  0.00    +0.000 F 
ATOM     29  F   UNL     1      -2.107  16.884  24.719  0.00  0.00    +0.000 F 
ENDBRANCH  23  26
ENDBRANCH   8  20
BRANCH   1  30
ATOM     30  O   UNL     1      -1.116  12.686  18.395  0.00  0.00    +0.000 OA
BRANCH  30  32
ATOM     31  C   UNL     1      -0.501  14.835  19.117  0.00  0.00    +0.000 C 
ATOM     32  C   UNL     1       0.033  13.487  18.679  0.00  0.00    +0.000 C 
ENDBRANCH  30  32
ENDBRANCH   1  30
TORSDOF 6
ENDMDL
MODEL 3
REMARK VINA RESULT:      -7.3      1.239      1.795
REMARK  Name = 
REMARK  7 active torsions:
REMARK  status: ('A' for Active; 'I' for Inactive)
REMARK    1  A    between atoms: C_1  and  C_2
REMARK    2  A    between atoms: C_2  and  O_3
REMARK    3  A    between atoms: O_3  and  C_4
REMARK    4  A    between atoms: C_8  and  C_9
REMARK    5  A    between atoms: C_12  and  C_13
REMARK    6  A    between atoms: C_21  and  C_22
REMARK    7  A    between atoms: C_25  and  C_26
REMARK                            x       y       z     vdW  Elec       q    Type
REMARK                         _______ _______ _______ _____ _____    ______ ____
ROOT
ATOM      1  C   UNL     1      -1.532  11.584  19.441  0.00  0.00    +0.000 C 
ATOM      2  O   UNL     1      -2.615  11.868  19.940  0.00  0.00    +0.000 OA
ATOM      3  N   UNL     1      -0.482  10.962  20.120  0.00  0.00    +0.000 N 
ATOM      4  N   UNL     1       0.232   9.987  19.407  0.00  0.00    +0.000 NA
ATOM      5  C   UNL     1       0.964   9.210  20.155  0.00  0.00    +0.000 C 
ATOM      6  N   UNL     1       0.961   9.312  21.534  0.00  0.00    +0.000 N 
ATOM      7  N   UNL     1       0.610  10.457  22.170  0.00  0.00    +0.000 NA
ATOM      8  C   UNL     1      -0.083  11.282  21.430  0.00  0.00    +0.000 C 
ATOM      9  H   UNL     1       1.468   8.629  22.087  0.00  0.00    +0.000 HD
ENDROOT
BRANCH   5  10
ATOM     10  C   UNL     1       1.868   8.223  19.495  0.00  0.00    +0.000 A 
ATOM     11  C   UNL     1       2.372   8.488  18.218  0.00  0.00    +0.000 A 
ATOM     12  C   UNL     1       3.115   7.521  17.537  0.00  0.00    +0.000 A 
ATOM     13  C   UNL     1       3.359   6.271  18.119  0.00  0.00    +0.000 A 
ATOM     14  C   UNL     1       2.868   6.014  19.410  0.00  0.00    +0.000 A 
ATOM     15  C   UNL     1       2.123   6.982  20.094  0.00  0.00    +0.000 A 
BRANCH  13  16
ATOM     16  C   UNL     1       4.105   5.200  17.360  0.00  0.00    +0.000 C 
ATOM     17  F   UNL     1       4.668   5.650  16.203  0.00  0.00    +0.000 F 
ATOM     18  F   UNL     1       5.121   4.657  18.084  0.00  0.00    +0.000 F 
ATOM     19  F   UNL     1       3.300   4.162  17.000  0.00  0.00    +0.000 F 
ENDBRANCH  13  16
ENDBRANCH   5  10
BRANCH   8  20
ATOM     20  C   UNL     1      -0.359  12.647  21.969  0.00  0.00    +0.000 A 
ATOM     21  C   UNL     1       0.418  13.758  21.607  0.00  0.00    +0.000 A 
ATOM     22  C   UNL     1       0.231  14.990  22.238  0.00  0.00    +0.000 A 
ATOM     23  C   UNL     1      -0.703  15.126  23.273  0.00  0.00    +0.000 A 
ATOM     24  C   UNL     1      -1.454  14.005  23.656  0.00  0.00    +0.000 A 
ATOM     25  C   UNL     1      -1.285  12.779  23.011  0.00  0.00    +0.000 A 
BRANCH  23  26
ATOM     26  C   UNL     1      -0.889  16.439  23.991  0.00  0.00    +0.000 C 
ATOM     27  F   UNL     1      -1.450  17.410  23.216  0.00  0.00    +0.000 F 
ATOM     28  F   UNL     1      -1.688  16.326  25.086  0.00  0.00    +0.000 F 
ATOM     29  F   UNL     1       0.290  16.956  24.438  0.00  0.00    +0.000 F 
ENDBRANCH  23  26
ENDBRANCH   8  20
BRANCH   1  30
ATOM     30  O   UNL     1      -1.230  11.759  18.121  0.00  0.00    +0.000 OA
BRANCH  30  32
ATOM     31  C   UNL     1      -2.152  10.011  16.853  0.00  0.00    +0.000 C 
ATOM     32  C   UNL     1      -2.272  11.484  17.184  0.00  0.00    +0.000 C 
ENDBRANCH  30  32
ENDBRANCH   1  30
TORSDOF 6
ENDMDL
MODEL 4
REMARK VINA RESULT:      -7.3      1.258      1.738
REMARK  Name = 
REMARK  7 active torsions:
REMARK  status: ('A' for Active; 'I' for Inactive)
REMARK    1  A    between atoms: C_1  and  C_2
REMARK    2  A    between atoms: C_2  and  O_3
REMARK    3  A    between atoms: O_3  and  C_4
REMARK    4  A    between atoms: C_8  and  C_9
REMARK    5  A    between atoms: C_12  and  C_13
REMARK    6  A    between atoms: C_21  and  C_22
REMARK    7  A    between atoms: C_25  and  C_26
REMARK                            x       y       z     vdW  Elec       q    Type
REMARK                         _______ _______ _______ _____ _____    ______ ____
ROOT
ATOM      1  C   UNL     1      -1.517  11.544  19.426  0.00  0.00    +0.000 C 
ATOM      2  O   UNL     1      -2.601  11.824  19.925  0.00  0.00    +0.000 OA
ATOM      3  N   UNL     1      -0.465  10.926  20.107  0.00  0.00    +0.000 N 
ATOM      4  N   UNL     1       0.253   9.953  19.394  0.00  0.00    +0.000 NA
ATOM      5  C   UNL     1       0.988   9.179  20.143  0.00  0.00    +0.000 C 
ATOM      6  N   UNL     1       0.983   9.282  21.521  0.00  0.00    +0.000 N 
ATOM      7  N   UNL     1       0.628  10.426  22.157  0.00  0.00    +0.000 NA
ATOM      8  C   UNL     1      -0.068  11.248  21.416  0.00  0.00    +0.000 C 
ATOM      9  H   UNL     1       1.493   8.601  22.075  0.00  0.00    +0.000 HD
ENDROOT
BRANCH   5  10
ATOM     10  C   UNL     1       1.896   8.196  19.483  0.00  0.00    +0.000 A 
ATOM     11  C   UNL     1       2.410   8.468  18.212  0.00  0.00    +0.000 A 
ATOM     12  C   UNL     1       3.157   7.505  17.531  0.00  0.00    +0.000 A 
ATOM     13  C   UNL     1       3.395   6.250  18.106  0.00  0.00    +0.000 A 
ATOM     14  C   UNL     1       2.893   5.986  19.391  0.00  0.00    +0.000 A 
ATOM     15  C   UNL     1       2.144   6.950  20.076  0.00  0.00    +0.000 A 
BRANCH  13  16
ATOM     16  C   UNL     1       4.145   5.184  17.346  0.00  0.00    +0.000 C 
ATOM     17  F   UNL     1       5.209   4.678  18.031  0.00  0.00    +0.000 F 
ATOM     18  F   UNL     1       3.361   4.116  17.032  0.00  0.00    +0.000 F 
ATOM     19  F   UNL     1       4.649   5.643  16.167  0.00  0.00    +0.000 F 
ENDBRANCH  13  16
ENDBRANCH   5  10
BRANCH   8  20
ATOM     20  C   UNL     1      -0.349  12.612  21.955  0.00  0.00    +0.000 A 
ATOM     21  C   UNL     1       0.412  13.729  21.579  0.00  0.00    +0.000 A 
ATOM     22  C   UNL     1       0.223  14.961  22.209  0.00  0.00    +0.000 A 
ATOM     23  C   UNL     1      -0.698  15.092  23.255  0.00  0.00    +0.000 A 
ATOM     24  C   UNL     1      -1.434  13.965  23.653  0.00  0.00    +0.000 A 
ATOM     25  C   UNL     1      -1.262  12.739  23.009  0.00  0.00    +0.000 A 
BRANCH  23  26
ATOM     26  C   UNL     1      -0.887  16.406  23.972  0.00  0.00    +0.000 C 
ATOM     27  F   UNL     1       0.065  16.654  24.915  0.00  0.00    +0.000 F 
ATOM     28  F   UNL     1      -0.862  17.471  23.126  0.00  0.00    +0.000 F 
ATOM     29  F   UNL     1      -2.082  16.472  24.624  0.00  0.00    +0.000 F 
ENDBRANCH  23  26
ENDBRANCH   8  20
BRANCH   1  30
ATOM     30  O   UNL     1      -1.215  11.720  18.107  0.00  0.00    +0.000 OA
BRANCH  30  32
ATOM     31  C   UNL     1      -2.196   9.954  16.909  0.00  0.00    +0.000 C 
ATOM     32  C   UNL     1      -2.258  11.445  17.170  0.00  0.00    +0.000 C 
ENDBRANCH  30  32
ENDBRANCH   1  30
TORSDOF 6
ENDMDL
MODEL 5
REMARK VINA RESULT:      -7.3      0.561      1.265
REMARK  Name = 
REMARK  7 active torsions:
REMARK  status: ('A' for Active; 'I' for Inactive)
REMARK    1  A    between atoms: C_1  and  C_2
REMARK    2  A    between atoms: C_2  and  O_3
REMARK    3  A    between atoms: O_3  and  C_4
REMARK    4  A    between atoms: C_8  and  C_9
REMARK    5  A    between atoms: C_12  and  C_13
REMARK    6  A    between atoms: C_21  and  C_22
REMARK    7  A    between atoms: C_25  and  C_26
REMARK                            x       y       z     vdW  Elec       q    Type
REMARK                         _______ _______ _______ _____ _____    ______ ____
ROOT
ATOM      1  C   UNL     1      -1.441  11.877  19.429  0.00  0.00    +0.000 C 
ATOM      2  O   UNL     1      -2.624  12.101  19.654  0.00  0.00    +0.000 OA
ATOM      3  N   UNL     1      -0.656  10.959  20.132  0.00  0.00    +0.000 N 
ATOM      4  N   UNL     1       0.242  10.194  19.373  0.00  0.00    +0.000 NA
ATOM      5  C   UNL     1       0.701   9.143  19.991  0.00  0.00    +0.000 C 
ATOM      6  N   UNL     1       0.268   8.796  21.257  0.00  0.00    +0.000 N 
ATOM      7  N   UNL     1      -0.260   9.707  22.112  0.00  0.00    +0.000 NA
ATOM      8  C   UNL     1      -0.685  10.796  21.528  0.00  0.00    +0.000 C 
ATOM      9  H   UNL     1       0.576   7.921  21.668  0.00  0.00    +0.000 HD
ENDROOT
BRANCH   5  10
ATOM     10  C   UNL     1       1.764   8.329  19.331  0.00  0.00    +0.000 A 
ATOM     11  C   UNL     1       2.266   8.721  18.086  0.00  0.00    +0.000 A 
ATOM     12  C   UNL     1       3.167   7.904  17.399  0.00  0.00    +0.000 A 
ATOM     13  C   UNL     1       3.573   6.678  17.942  0.00  0.00    +0.000 A 
ATOM     14  C   UNL     1       3.081   6.296  19.201  0.00  0.00    +0.000 A 
ATOM     15  C   UNL     1       2.178   7.114  19.891  0.00  0.00    +0.000 A 
BRANCH  13  16
ATOM     16  C   UNL     1       4.494   5.763  17.173  0.00  0.00    +0.000 C 
ATOM     17  F   UNL     1       5.682   5.537  17.802  0.00  0.00    +0.000 F 
ATOM     18  F   UNL     1       3.948   4.535  16.953  0.00  0.00    +0.000 F 
ATOM     19  F   UNL     1       4.814   6.259  15.946  0.00  0.00    +0.000 F 
ENDBRANCH  13  16
ENDBRANCH   5  10
BRANCH   8  20
ATOM     20  C   UNL     1      -1.112  11.936  22.393  0.00  0.00    +0.000 A 
ATOM     21  C   UNL     1      -2.321  11.915  23.105  0.00  0.00    +0.000 A 
ATOM     22  C   UNL     1      -2.763  13.051  23.786  0.00  0.00    +0.000 A 
ATOM     23  C   UNL     1      -2.029  14.243  23.734  0.00  0.00    +0.000 A 
ATOM     24  C   UNL     1      -0.837  14.271  22.994  0.00  0.00    +0.000 A 
ATOM     25  C   UNL     1      -0.383  13.129  22.331  0.00  0.00    +0.000 A 
BRANCH  23  26
ATOM     26  C   UNL     1      -2.511  15.490  24.432  0.00  0.00    +0.000 C 
ATOM     27  F   UNL     1      -3.010  15.259  25.679  0.00  0.00    +0.000 F 
ATOM     28  F   UNL     1      -1.526  16.416  24.588  0.00  0.00    +0.000 F 
ATOM     29  F   UNL     1      -3.508  16.115  23.743  0.00  0.00    +0.000 F 
ENDBRANCH  23  26
ENDBRANCH   8  20
BRANCH   1  30
ATOM     30  O   UNL     1      -0.741  12.434  18.397  0.00  0.00    +0.000 OA
BRANCH  30  32
ATOM     31  C   UNL     1       1.247  13.672  18.574  0.00  0.00    +0.000 C 
ATOM     32  C   UNL     1      -0.265  13.766  18.592  0.00  0.00    +0.000 C 
ENDBRANCH  30  32
ENDBRANCH   1  30
TORSDOF 6
ENDMDL
MODEL 6
REMARK VINA RESULT:      -7.2      3.186     10.499
REMARK  Name = 
REMARK  7 active torsions:
REMARK  status: ('A' for Active; 'I' for Inactive)
REMARK    1  A    between atoms: C_1  and  C_2
REMARK    2  A    between atoms: C_2  and  O_3
REMARK    3  A    between atoms: O_3  and  C_4
REMARK    4  A    between atoms: C_8  and  C_9
REMARK    5  A    between atoms: C_12  and  C_13
REMARK    6  A    between atoms: C_21  and  C_22
REMARK    7  A    between atoms: C_25  and  C_26
REMARK                            x       y       z     vdW  Elec       q    Type
REMARK                         _______ _______ _______ _____ _____    ______ ____
ROOT
ATOM      1  C   UNL     1       1.933   5.699  19.483  0.00  0.00    +0.000 C 
ATOM      2  O   UNL     1       1.822   4.849  18.608  0.00  0.00    +0.000 OA
ATOM      3  N   UNL     1       1.991   7.076  19.251  0.00  0.00    +0.000 N 
ATOM      4  N   UNL     1       1.292   7.892  20.152  0.00  0.00    +0.000 NA
ATOM      5  C   UNL     1       1.092   9.108  19.726  0.00  0.00    +0.000 C 
ATOM      6  N   UNL     1       1.482   9.509  18.462  0.00  0.00    +0.000 N 
ATOM      7  N   UNL     1       2.471   8.880  17.780  0.00  0.00    +0.000 NA
ATOM      8  C   UNL     1       2.731   7.676  18.216  0.00  0.00    +0.000 C 
ATOM      9  H   UNL     1       1.226  10.433  18.130  0.00  0.00    +0.000 HD
ENDROOT
BRANCH   5  10
ATOM     10  C   UNL     1       0.476  10.101  20.654  0.00  0.00    +0.000 A 
ATOM     11  C   UNL     1      -0.100   9.669  21.852  0.00  0.00    +0.000 A 
ATOM     12  C   UNL     1      -0.790  10.567  22.670  0.00  0.00    +0.000 A 
ATOM     13  C   UNL     1      -0.923  11.911  22.296  0.00  0.00    +0.000 A 
ATOM     14  C   UNL     1      -0.327  12.346  21.101  0.00  0.00    +0.000 A 
ATOM     15  C   UNL     1       0.365  11.447  20.281  0.00  0.00    +0.000 A 
BRANCH  13  16
ATOM     16  C   UNL     1      -1.724  12.869  23.143  0.00  0.00    +0.000 C 
ATOM     17  F   UNL     1      -0.953  13.657  23.946  0.00  0.00    +0.000 F 
ATOM     18  F   UNL     1      -2.478  13.722  22.397  0.00  0.00    +0.000 F 
ATOM     19  F   UNL     1      -2.590  12.228  23.976  0.00  0.00    +0.000 F 
ENDBRANCH  13  16
ENDBRANCH   5  10
BRANCH   8  20
ATOM     20  C   UNL     1       3.924   6.970  17.660  0.00  0.00    +0.000 A 
ATOM     21  C   UNL     1       4.229   6.996  16.291  0.00  0.00    +0.000 A 
ATOM     22  C   UNL     1       5.262   6.207  15.779  0.00  0.00    +0.000 A 
ATOM     23  C   UNL     1       5.982   5.346  16.617  0.00  0.00    +0.000 A 
ATOM     24  C   UNL     1       5.652   5.297  17.979  0.00  0.00    +0.000 A 
ATOM     25  C   UNL     1       4.634   6.101  18.496  0.00  0.00    +0.000 A 
BRANCH  23  26
ATOM     26  C   UNL     1       7.075   4.459  16.074  0.00  0.00    +0.000 C 
ATOM     27  F   UNL     1       8.042   4.164  16.988  0.00  0.00    +0.000 F 
ATOM     28  F   UNL     1       6.604   3.263  15.628  0.00  0.00    +0.000 F 
ATOM     29  F   UNL     1       7.723   5.025  15.017  0.00  0.00    +0.000 F 
ENDBRANCH  23  26
ENDBRANCH   8  20
BRANCH   1  30
ATOM     30  O   UNL     1       1.927   5.426  20.820  0.00  0.00    +0.000 OA
BRANCH  30  32
ATOM     31  C   UNL     1       1.436   3.216  21.447  0.00  0.00    +0.000 C 
ATOM     32  C   UNL     1       2.558   4.210  21.226  0.00  0.00    +0.000 C 
ENDBRANCH  30  32
ENDBRANCH   1  30
TORSDOF 6
ENDMDL
MODEL 7
REMARK VINA RESULT:      -7.1      1.272      2.059
REMARK  Name = 
REMARK  7 active torsions:
REMARK  status: ('A' for Active; 'I' for Inactive)
REMARK    1  A    between atoms: C_1  and  C_2
REMARK    2  A    between atoms: C_2  and  O_3
REMARK    3  A    between atoms: O_3  and  C_4
REMARK    4  A    between atoms: C_8  and  C_9
REMARK    5  A    between atoms: C_12  and  C_13
REMARK    6  A    between atoms: C_21  and  C_22
REMARK    7  A    between atoms: C_25  and  C_26
REMARK                            x       y       z     vdW  Elec       q    Type
REMARK                         _______ _______ _______ _____ _____    ______ ____
ROOT
ATOM      1  C   UNL     1      -1.577  11.592  19.405  0.00  0.00    +0.000 C 
ATOM      2  O   UNL     1      -2.631  11.881  19.957  0.00  0.00    +0.000 OA
ATOM      3  N   UNL     1      -0.497  10.963  20.031  0.00  0.00    +0.000 N 
ATOM      4  N   UNL     1       0.176   9.986  19.282  0.00  0.00    +0.000 NA
ATOM      5  C   UNL     1       0.939   9.203  19.991  0.00  0.00    +0.000 C 
ATOM      6  N   UNL     1       1.005   9.303  21.368  0.00  0.00    +0.000 N 
ATOM      7  N   UNL     1       0.692  10.449  22.023  0.00  0.00    +0.000 NA
ATOM      8  C   UNL     1      -0.033  11.279  21.319  0.00  0.00    +0.000 C 
ATOM      9  H   UNL     1       1.535   8.617  21.895  0.00  0.00    +0.000 HD
ENDROOT
BRANCH   5  10
ATOM     10  C   UNL     1       1.805   8.213  19.286  0.00  0.00    +0.000 A 
ATOM     11  C   UNL     1       2.178   7.031  19.932  0.00  0.00    +0.000 A 
ATOM     12  C   UNL     1       3.087   6.155  19.334  0.00  0.00    +0.000 A 
ATOM     13  C   UNL     1       3.645   6.453  18.084  0.00  0.00    +0.000 A 
ATOM     14  C   UNL     1       3.254   7.632  17.429  0.00  0.00    +0.000 A 
ATOM     15  C   UNL     1       2.342   8.511  18.026  0.00  0.00    +0.000 A 
BRANCH  13  16
ATOM     16  C   UNL     1       4.678   5.543  17.465  0.00  0.00    +0.000 C 
ATOM     17  F   UNL     1       5.374   6.127  16.449  0.00  0.00    +0.000 F 
ATOM     18  F   UNL     1       5.611   5.124  18.364  0.00  0.00    +0.000 F 
ATOM     19  F   UNL     1       4.127   4.415  16.937  0.00  0.00    +0.000 F 
ENDBRANCH  13  16
ENDBRANCH   5  10
BRANCH   8  20
ATOM     20  C   UNL     1      -0.274  12.644  21.874  0.00  0.00    +0.000 A 
ATOM     21  C   UNL     1       0.504  13.748  21.491  0.00  0.00    +0.000 A 
ATOM     22  C   UNL     1       0.353  14.978  22.134  0.00  0.00    +0.000 A 
ATOM     23  C   UNL     1      -0.545  15.120  23.199  0.00  0.00    +0.000 A 
ATOM     24  C   UNL     1      -1.297  14.007  23.602  0.00  0.00    +0.000 A 
ATOM     25  C   UNL     1      -1.163  12.782  22.946  0.00  0.00    +0.000 A 
BRANCH  23  26
ATOM     26  C   UNL     1      -0.692  16.432  23.930  0.00  0.00    +0.000 C 
ATOM     27  F   UNL     1       0.494  16.965  24.338  0.00  0.00    +0.000 F 
ATOM     28  F   UNL     1      -1.290  17.389  23.170  0.00  0.00    +0.000 F 
ATOM     29  F   UNL     1      -1.453  16.316  25.054  0.00  0.00    +0.000 F 
ENDBRANCH  23  26
ENDBRANCH   8  20
BRANCH   1  30
ATOM     30  O   UNL     1      -1.339  11.768  18.073  0.00  0.00    +0.000 OA
BRANCH  30  32
ATOM     31  C   UNL     1      -2.292   9.994  16.864  0.00  0.00    +0.000 C 
ATOM     32  C   UNL     1      -2.418  11.468  17.186  0.00  0.00    +0.000 C 
ENDBRANCH  30  32
ENDBRANCH   1  30
TORSDOF 6
ENDMDL
MODEL 8
REMARK VINA RESULT:      -7.1      2.571      3.546
REMARK  Name = 
REMARK  7 active torsions:
REMARK  status: ('A' for Active; 'I' for Inactive)
REMARK    1  A    between atoms: C_1  and  C_2
REMARK    2  A    between atoms: C_2  and  O_3
REMARK    3  A    between atoms: O_3  and  C_4
REMARK    4  A    between atoms: C_8  and  C_9
REMARK    5  A    between atoms: C_12  and  C_13
REMARK    6  A    between atoms: C_21  and  C_22
REMARK    7  A    between atoms: C_25  and  C_26
REMARK                            x       y       z     vdW  Elec       q    Type
REMARK                         _______ _______ _______ _____ _____    ______ ____
ROOT
ATOM      1  C   UNL     1      -2.078  11.431  18.108  0.00  0.00    +0.000 C 
ATOM      2  O   UNL     1      -3.113  11.866  18.599  0.00  0.00    +0.000 OA
ATOM      3  N   UNL     1      -0.877  11.266  18.803  0.00  0.00    +0.000 N 
ATOM      4  N   UNL     1      -0.144  10.105  18.514  0.00  0.00    +0.000 NA
ATOM      5  C   UNL     1       0.773   9.820  19.396  0.00  0.00    +0.000 C 
ATOM      6  N   UNL     1       0.936  10.573  20.544  0.00  0.00    +0.000 N 
ATOM      7  N   UNL     1       0.528  11.864  20.623  0.00  0.00    +0.000 NA
ATOM      8  C   UNL     1      -0.355  12.196  19.719  0.00  0.00    +0.000 C 
ATOM      9  H   UNL     1       1.595  10.267  21.253  0.00  0.00    +0.000 HD
ENDROOT
BRANCH   5  10
ATOM     10  C   UNL     1       1.701   8.684  19.125  0.00  0.00    +0.000 A 
ATOM     11  C   UNL     1       2.360   8.603  17.895  0.00  0.00    +0.000 A 
ATOM     12  C   UNL     1       3.132   7.483  17.579  0.00  0.00    +0.000 A 
ATOM     13  C   UNL     1       3.251   6.422  18.485  0.00  0.00    +0.000 A 
ATOM     14  C   UNL     1       2.603   6.514  19.729  0.00  0.00    +0.000 A 
ATOM     15  C   UNL     1       1.829   7.636  20.047  0.00  0.00    +0.000 A 
BRANCH  13  16
ATOM     16  C   UNL     1       4.029   5.181  18.121  0.00  0.00    +0.000 C 
ATOM     17  F   UNL     1       3.454   4.030  18.570  0.00  0.00    +0.000 F 
ATOM     18  F   UNL     1       4.170   5.028  16.776  0.00  0.00    +0.000 F 
ATOM     19  F   UNL     1       5.290   5.190  18.635  0.00  0.00    +0.000 F 
ENDBRANCH  13  16
ENDBRANCH   5  10
BRANCH   8  20
ATOM     20  C   UNL     1      -0.730  13.637  19.598  0.00  0.00    +0.000 A 
ATOM     21  C   UNL     1      -0.106  14.490  18.676  0.00  0.00    +0.000 A 
ATOM     22  C   UNL     1      -0.370  15.861  18.687  0.00  0.00    +0.000 A 
ATOM     23  C   UNL     1      -1.230  16.413  19.645  0.00  0.00    +0.000 A 
ATOM     24  C   UNL     1      -1.826  15.562  20.588  0.00  0.00    +0.000 A 
ATOM     25  C   UNL     1      -1.580  14.188  20.564  0.00  0.00    +0.000 A 
BRANCH  23  26
ATOM     26  C   UNL     1      -1.496  17.897  19.695  0.00  0.00    +0.000 C 
ATOM     27  F   UNL     1      -2.359  18.262  20.685  0.00  0.00    +0.000 F 
ATOM     28  F   UNL     1      -0.365  18.624  19.898  0.00  0.00    +0.000 F 
ATOM     29  F   UNL     1      -2.041  18.364  18.537  0.00  0.00    +0.000 F 
ENDBRANCH  23  26
ENDBRANCH   8  20
BRANCH   1  30
ATOM     30  O   UNL     1      -1.976  10.965  16.830  0.00  0.00    +0.000 OA
BRANCH  30  32
ATOM     31  C   UNL     1      -3.007  10.052  14.927  0.00  0.00    +0.000 C 
ATOM     32  C   UNL     1      -3.129  11.115  16.000  0.00  0.00    +0.000 C 
ENDBRANCH  30  32
ENDBRANCH   1  30
TORSDOF 6
ENDMDL
MODEL 9
REMARK VINA RESULT:      -7.1      1.334      2.006
REMARK  Name = 
REMARK  7 active torsions:
REMARK  status: ('A' for Active; 'I' for Inactive)
REMARK    1  A    between atoms: C_1  and  C_2
REMARK    2  A    between atoms: C_2  and  O_3
REMARK    3  A    between atoms: O_3  and  C_4
REMARK    4  A    between atoms: C_8  and  C_9
REMARK    5  A    between atoms: C_12  and  C_13
REMARK    6  A    between atoms: C_21  and  C_22
REMARK    7  A    between atoms: C_25  and  C_26
REMARK                            x       y       z     vdW  Elec       q    Type
REMARK                         _______ _______ _______ _____ _____    ______ ____
ROOT
ATOM      1  C   UNL     1      -1.434  11.441  19.487  0.00  0.00    +0.000 C 
ATOM      2  O   UNL     1      -2.525  11.700  19.981  0.00  0.00    +0.000 OA
ATOM      3  N   UNL     1      -0.392  10.793  20.155  0.00  0.00    +0.000 N 
ATOM      4  N   UNL     1       0.337   9.852  19.412  0.00  0.00    +0.000 NA
ATOM      5  C   UNL     1       1.059   9.045  20.137  0.00  0.00    +0.000 C 
ATOM      6  N   UNL     1       1.034   9.088  21.518  0.00  0.00    +0.000 N 
ATOM      7  N   UNL     1       0.669  10.203  22.198  0.00  0.00    +0.000 NA
ATOM      8  C   UNL     1      -0.015  11.057  21.484  0.00  0.00    +0.000 C 
ATOM      9  H   UNL     1       1.535   8.383  22.049  0.00  0.00    +0.000 HD
ENDROOT
BRANCH   5  10
ATOM     10  C   UNL     1       1.978   8.091  19.449  0.00  0.00    +0.000 A 
ATOM     11  C   UNL     1       2.523   8.425  18.206  0.00  0.00    +0.000 A 
ATOM     12  C   UNL     1       3.281   7.494  17.493  0.00  0.00    +0.000 A 
ATOM     13  C   UNL     1       3.498   6.209  18.009  0.00  0.00    +0.000 A 
ATOM     14  C   UNL     1       2.965   5.882  19.266  0.00  0.00    +0.000 A 
ATOM     15  C   UNL     1       2.205   6.815  19.982  0.00  0.00    +0.000 A 
BRANCH  13  16
ATOM     16  C   UNL     1       4.260   5.178  17.211  0.00  0.00    +0.000 C 
ATOM     17  F   UNL     1       5.377   4.721  17.846  0.00  0.00    +0.000 F 
ATOM     18  F   UNL     1       3.512   4.077  16.931  0.00  0.00    +0.000 F 
ATOM     19  F   UNL     1       4.688   5.661  16.012  0.00  0.00    +0.000 F 
ENDBRANCH  13  16
ENDBRANCH   5  10
BRANCH   8  20
ATOM     20  C   UNL     1      -0.304  12.397  22.078  0.00  0.00    +0.000 A 
ATOM     21  C   UNL     1      -1.327  12.585  23.020  0.00  0.00    +0.000 A 
ATOM     22  C   UNL     1      -1.671  13.869  23.446  0.00  0.00    +0.000 A 
ATOM     23  C   UNL     1      -1.032  14.993  22.908  0.00  0.00    +0.000 A 
ATOM     24  C   UNL     1      -0.033  14.804  21.941  0.00  0.00    +0.000 A 
ATOM     25  C   UNL     1       0.327  13.520  21.531  0.00  0.00    +0.000 A 
BRANCH  23  26
ATOM     26  C   UNL     1      -1.418  16.390  23.328  0.00  0.00    +0.000 C 
ATOM     27  F   UNL     1      -1.423  16.571  24.679  0.00  0.00    +0.000 F 
ATOM     28  F   UNL     1      -0.580  17.337  22.826  0.00  0.00    +0.000 F 
ATOM     29  F   UNL     1      -2.667  16.731  22.903  0.00  0.00    +0.000 F 
ENDBRANCH  23  26
ENDBRANCH   8  20
BRANCH   1  30
ATOM     30  O   UNL     1      -1.112  11.674  18.182  0.00  0.00    +0.000 OA
BRANCH  30  32
ATOM     31  C   UNL     1      -2.111  10.015  16.852  0.00  0.00    +0.000 C 
ATOM     32  C   UNL     1      -2.153  11.484  17.222  0.00  0.00    +0.000 C 
ENDBRANCH  30  32
ENDBRANCH   1  30
TORSDOF 6
ENDMDL
