MODEL 1
REMARK VINA RESULT:      -7.6      0.000      0.000
REMARK  Name = 
REMARK  7 active torsions:
REMARK  status: ('A' for Active; 'I' for Inactive)
REMARK    1  A    between atoms: C_1  and  O_2
REMARK    2  A    between atoms: O_2  and  C_3
REMARK    3  A    between atoms: C_6  and  N_7
REMARK    4  A    between atoms: N_7  and  S_17
REMARK    5  A    between atoms: C_8  and  C_10
REMARK    6  A    between atoms: C_14  and  C_15
REMARK    7  A    between atoms: S_17  and  C_20
REMARK                            x       y       z     vdW  Elec       q    Type
REMARK                         _______ _______ _______ _____ _____    ______ ____
ROOT
ATOM      1  N   UNL     1       4.240   5.505  17.790  0.00  0.00    +0.000 N 
ATOM      2  C   UNL     1       3.999   4.158  18.202  0.00  0.00    +0.000 C 
ATOM      3  O   UNL     1       4.828   3.280  17.978  0.00  0.00    +0.000 OA
ENDROOT
BRANCH   2   4
ATOM      4  C   UNL     1       2.752   3.723  18.904  0.00  0.00    +0.000 A 
ATOM      5  C   UNL     1       1.617   3.512  18.096  0.00  0.00    +0.000 A 
ATOM      6  C   UNL     1       0.435   2.993  18.627  0.00  0.00    +0.000 A 
ATOM      7  C   UNL     1       0.376   2.648  19.973  0.00  0.00    +0.000 A 
ATOM      8  C   UNL     1       1.475   2.880  20.803  0.00  0.00    +0.000 A 
ATOM      9  C   UNL     1       1.471   2.443  22.240  0.00  0.00    +0.000 C 
ATOM     10  C   UNL     1       2.633   3.468  20.273  0.00  0.00    +0.000 A 
ENDBRANCH   2   4
BRANCH   1  14
ATOM     11  C   UNL     1       1.622   8.575  19.122  0.00  0.00    +0.000 A 
ATOM     12  C   UNL     1       2.122   7.604  19.992  0.00  0.00    +0.000 A 
ATOM     13  C   UNL     1       3.021   6.639  19.544  0.00  0.00    +0.000 A 
ATOM     14  C   UNL     1       3.435   6.620  18.208  0.00  0.00    +0.000 A 
ATOM     15  C   UNL     1       2.948   7.595  17.329  0.00  0.00    +0.000 A 
ATOM     16  C   UNL     1       2.047   8.578  17.789  0.00  0.00    +0.000 A 
BRANCH  11  18
ATOM     17  C   UNL     1      -0.004  10.294  18.835  0.00  0.00    +0.000 C 
ATOM     18  O   UNL     1       0.696   9.401  19.687  0.00  0.00    +0.000 OA
ENDBRANCH  11  18
ENDBRANCH   1  14
BRANCH   1  19
ATOM     19  S   UNL     1       5.837   5.974  17.383  0.00  0.00    +0.000 S 
ATOM     20  O   UNL     1       5.885   7.417  17.191  0.00  0.00    +0.000 OA
ATOM     21  O   UNL     1       6.746   5.342  18.319  0.00  0.00    +0.000 OA
BRANCH  19  22
ATOM     22  C   UNL     1       6.126   5.295  15.759  0.00  0.00    +0.000 A 
ATOM     23  C   UNL     1       7.421   5.334  15.229  0.00  0.00    +0.000 A 
ATOM     24  C   UNL     1       7.669   4.773  13.974  0.00  0.00    +0.000 A 
ATOM     25  C   UNL     1       6.628   4.170  13.266  0.00  0.00    +0.000 A 
ATOM     26 CL   UNL     1       6.938   3.484  11.717  0.00  0.00    +0.000 Cl
ATOM     27  C   UNL     1       5.342   4.113  13.803  0.00  0.00    +0.000 A 
ATOM     28  C   UNL     1       5.085   4.675  15.056  0.00  0.00    +0.000 A 
ENDBRANCH  19  22
ENDBRANCH   1  19
TORSDOF 5
ENDMDL
MODEL 2
REMARK VINA RESULT:      -7.6      0.467      1.040
REMARK  Name = 
REMARK  7 active torsions:
REMARK  status: ('A' for Active; 'I' for Inactive)
REMARK    1  A    between atoms: C_1  and  O_2
REMARK    2  A    between atoms: O_2  and  C_3
REMARK    3  A    between atoms: C_6  and  N_7
REMARK    4  A    between atoms: N_7  and  S_17
REMARK    5  A    between atoms: C_8  and  C_10
REMARK    6  A    between atoms: C_14  and  C_15
REMARK    7  A    between atoms: S_17  and  C_20
REMARK                            x       y       z     vdW  Elec       q    Type
REMARK                         _______ _______ _______ _____ _____    ______ ____
ROOT
ATOM      1  N   UNL     1       4.262   5.472  17.850  0.00  0.00    +0.000 N 
ATOM      2  C   UNL     1       4.024   4.125  18.266  0.00  0.00    +0.000 C 
ATOM      3  O   UNL     1       4.857   3.249  18.049  0.00  0.00    +0.000 OA
ENDROOT
BRANCH   2   4
ATOM      4  C   UNL     1       2.774   3.688  18.961  0.00  0.00    +0.000 A 
ATOM      5  C   UNL     1       1.660   3.420  18.142  0.00  0.00    +0.000 A 
ATOM      6  C   UNL     1       0.480   2.895  18.671  0.00  0.00    +0.000 A 
ATOM      7  C   UNL     1       0.404   2.599  20.029  0.00  0.00    +0.000 A 
ATOM      8  C   UNL     1       1.481   2.888  20.868  0.00  0.00    +0.000 A 
ATOM      9  C   UNL     1       1.460   2.506  22.320  0.00  0.00    +0.000 C 
ATOM     10  C   UNL     1       2.635   3.483  20.336  0.00  0.00    +0.000 A 
ENDBRANCH   2   4
BRANCH   1  14
ATOM     11  C   UNL     1       1.629   8.536  19.163  0.00  0.00    +0.000 A 
ATOM     12  C   UNL     1       2.150   7.586  20.043  0.00  0.00    +0.000 A 
ATOM     13  C   UNL     1       3.054   6.624  19.600  0.00  0.00    +0.000 A 
ATOM     14  C   UNL     1       3.451   6.585  18.259  0.00  0.00    +0.000 A 
ATOM     15  C   UNL     1       2.942   7.539  17.370  0.00  0.00    +0.000 A 
ATOM     16  C   UNL     1       2.037   8.521  17.824  0.00  0.00    +0.000 A 
BRANCH  11  18
ATOM     17  C   UNL     1       0.647   9.429  21.142  0.00  0.00    +0.000 C 
ATOM     18  O   UNL     1       0.702   9.362  19.726  0.00  0.00    +0.000 OA
ENDBRANCH  11  18
ENDBRANCH   1  14
BRANCH   1  19
ATOM     19  S   UNL     1       5.861   5.945  17.451  0.00  0.00    +0.000 S 
ATOM     20  O   UNL     1       5.893   7.379  17.197  0.00  0.00    +0.000 OA
ATOM     21  O   UNL     1       6.761   5.367  18.430  0.00  0.00    +0.000 OA
BRANCH  19  22
ATOM     22  C   UNL     1       6.188   5.200  15.864  0.00  0.00    +0.000 A 
ATOM     23  C   UNL     1       5.143   4.565  15.184  0.00  0.00    +0.000 A 
ATOM     24  C   UNL     1       5.376   4.010  13.924  0.00  0.00    +0.000 A 
ATOM     25  C   UNL     1       6.644   4.103  13.349  0.00  0.00    +0.000 A 
ATOM     26 CL   UNL     1       6.927   3.413  11.797  0.00  0.00    +0.000 Cl
ATOM     27  C   UNL     1       7.682   4.754  14.017  0.00  0.00    +0.000 A 
ATOM     28  C   UNL     1       7.457   5.308  15.280  0.00  0.00    +0.000 A 
ENDBRANCH  19  22
ENDBRANCH   1  19
TORSDOF 5
ENDMDL
MODEL 3
REMARK VINA RESULT:      -6.9      5.215      8.522
REMARK  Name = 
REMARK  7 active torsions:
REMARK  status: ('A' for Active; 'I' for Inactive)
REMARK    1  A    between atoms: C_1  and  O_2
REMARK    2  A    between atoms: O_2  and  C_3
REMARK    3  A    between atoms: C_6  and  N_7
REMARK    4  A    between atoms: N_7  and  S_17
REMARK    5  A    between atoms: C_8  and  C_10
REMARK    6  A    between atoms: C_14  and  C_15
REMARK    7  A    between atoms: S_17  and  C_20
REMARK                            x       y       z     vdW  Elec       q    Type
REMARK                         _______ _______ _______ _____ _____    ______ ____
ROOT
ATOM      1  N   UNL     1      -0.585  11.291  19.351  0.00  0.00    +0.000 N 
ATOM      2  C   UNL     1      -1.583  10.446  18.775  0.00  0.00    +0.000 C 
ATOM      3  O   UNL     1      -1.516   9.226  18.903  0.00  0.00    +0.000 OA
ENDROOT
BRANCH   2   4
ATOM      4  C   UNL     1      -2.741  10.963  17.982  0.00  0.00    +0.000 A 
ATOM      5  C   UNL     1      -2.673  10.793  16.585  0.00  0.00    +0.000 A 
ATOM      6  C   UNL     1      -3.747  11.130  15.761  0.00  0.00    +0.000 A 
ATOM      7  C   UNL     1      -4.923  11.618  16.323  0.00  0.00    +0.000 A 
ATOM      8  C   UNL     1      -5.004  11.829  17.700  0.00  0.00    +0.000 A 
ATOM      9  C   UNL     1      -6.284  12.275  18.345  0.00  0.00    +0.000 C 
ATOM     10  C   UNL     1      -3.893  11.553  18.511  0.00  0.00    +0.000 A 
ENDBRANCH   2   4
BRANCH   1  14
ATOM     11  C   UNL     1      -0.611  15.530  19.633  0.00  0.00    +0.000 A 
ATOM     12  C   UNL     1       0.019  14.866  18.579  0.00  0.00    +0.000 A 
ATOM     13  C   UNL     1      -0.032  13.478  18.478  0.00  0.00    +0.000 A 
ATOM     14  C   UNL     1      -0.709  12.720  19.440  0.00  0.00    +0.000 A 
ATOM     15  C   UNL     1      -1.353  13.376  20.496  0.00  0.00    +0.000 A 
ATOM     16  C   UNL     1      -1.310  14.783  20.588  0.00  0.00    +0.000 A 
BRANCH  11  18
ATOM     17  C   UNL     1       0.927  17.349  19.562  0.00  0.00    +0.000 C 
ATOM     18  O   UNL     1      -0.409  16.879  19.637  0.00  0.00    +0.000 OA
ENDBRANCH  11  18
ENDBRANCH   1  14
BRANCH   1  19
ATOM     19  S   UNL     1       0.441  10.651  20.566  0.00  0.00    +0.000 S 
ATOM     20  O   UNL     1       1.463  11.634  20.904  0.00  0.00    +0.000 OA
ATOM     21  O   UNL     1      -0.391  10.090  21.612  0.00  0.00    +0.000 OA
BRANCH  19  22
ATOM     22  C   UNL     1       1.336   9.327  19.775  0.00  0.00    +0.000 A 
ATOM     23  C   UNL     1       1.541   8.133  20.476  0.00  0.00    +0.000 A 
ATOM     24  C   UNL     1       2.207   7.075  19.856  0.00  0.00    +0.000 A 
ATOM     25  C   UNL     1       2.652   7.211  18.540  0.00  0.00    +0.000 A 
ATOM     26 CL   UNL     1       3.477   5.904  17.781  0.00  0.00    +0.000 Cl
ATOM     27  C   UNL     1       2.429   8.392  17.832  0.00  0.00    +0.000 A 
ATOM     28  C   UNL     1       1.767   9.458  18.448  0.00  0.00    +0.000 A 
ENDBRANCH  19  22
ENDBRANCH   1  19
TORSDOF 5
ENDMDL
MODEL 4
REMARK VINA RESULT:      -6.9      5.201      8.537
REMARK  Name = 
REMARK  7 active torsions:
REMARK  status: ('A' for Active; 'I' for Inactive)
REMARK    1  A    between atoms: C_1  and  O_2
REMARK    2  A    between atoms: O_2  and  C_3
REMARK    3  A    between atoms: C_6  and  N_7
REMARK    4  A    between atoms: N_7  and  S_17
REMARK    5  A    between atoms: C_8  and  C_10
REMARK    6  A    between atoms: C_14  and  C_15
REMARK    7  A    between atoms: S_17  and  C_20
REMARK                            x       y       z     vdW  Elec       q    Type
REMARK                         _______ _______ _______ _____ _____    ______ ____
ROOT
ATOM      1  N   UNL     1      -0.547  11.293  19.483  0.00  0.00    +0.000 N 
ATOM      2  C   UNL     1      -1.613  10.508  18.943  0.00  0.00    +0.000 C 
ATOM      3  O   UNL     1      -1.612   9.286  19.069  0.00  0.00    +0.000 OA
ENDROOT
BRANCH   2   4
ATOM      4  C   UNL     1      -2.767  11.093  18.194  0.00  0.00    +0.000 A 
ATOM      5  C   UNL     1      -2.729  10.977  16.790  0.00  0.00    +0.000 A 
ATOM      6  C   UNL     1      -3.807  11.381  16.000  0.00  0.00    +0.000 A 
ATOM      7  C   UNL     1      -4.955  11.884  16.603  0.00  0.00    +0.000 A 
ATOM      8  C   UNL     1      -5.005  12.043  17.989  0.00  0.00    +0.000 A 
ATOM      9  C   UNL     1      -6.257  12.505  18.675  0.00  0.00    +0.000 C 
ATOM     10  C   UNL     1      -3.888  11.700  18.767  0.00  0.00    +0.000 A 
ENDBRANCH   2   4
BRANCH   1  14
ATOM     11  C   UNL     1      -0.997  15.509  19.741  0.00  0.00    +0.000 A 
ATOM     12  C   UNL     1      -1.527  14.652  20.708  0.00  0.00    +0.000 A 
ATOM     13  C   UNL     1      -1.321  13.277  20.631  0.00  0.00    +0.000 A 
ATOM     14  C   UNL     1      -0.584  12.727  19.576  0.00  0.00    +0.000 A 
ATOM     15  C   UNL     1      -0.039  13.578  18.607  0.00  0.00    +0.000 A 
ATOM     16  C   UNL     1      -0.240  14.972  18.695  0.00  0.00    +0.000 A 
BRANCH  11  18
ATOM     17  C   UNL     1      -1.461  17.628  18.752  0.00  0.00    +0.000 C 
ATOM     18  O   UNL     1      -1.347  16.817  19.911  0.00  0.00    +0.000 OA
ENDBRANCH  11  18
ENDBRANCH   1  14
BRANCH   1  19
ATOM     19  S   UNL     1       0.484  10.592  20.659  0.00  0.00    +0.000 S 
ATOM     20  O   UNL     1       1.514  11.552  21.034  0.00  0.00    +0.000 OA
ATOM     21  O   UNL     1      -0.344   9.988  21.684  0.00  0.00    +0.000 OA
BRANCH  19  22
ATOM     22  C   UNL     1       1.365   9.300  19.801  0.00  0.00    +0.000 A 
ATOM     23  C   UNL     1       1.591   8.084  20.455  0.00  0.00    +0.000 A 
ATOM     24  C   UNL     1       2.246   7.050  19.782  0.00  0.00    +0.000 A 
ATOM     25  C   UNL     1       2.660   7.235  18.462  0.00  0.00    +0.000 A 
ATOM     26 CL   UNL     1       3.472   5.959  17.638  0.00  0.00    +0.000 Cl
ATOM     27  C   UNL     1       2.416   8.440  17.802  0.00  0.00    +0.000 A 
ATOM     28  C   UNL     1       1.764   9.480  18.470  0.00  0.00    +0.000 A 
ENDBRANCH  19  22
ENDBRANCH   1  19
TORSDOF 5
ENDMDL
MODEL 5
REMARK VINA RESULT:      -6.9      7.588      9.972
REMARK  Name = 
REMARK  7 active torsions:
REMARK  status: ('A' for Active; 'I' for Inactive)
REMARK    1  A    between atoms: C_1  and  O_2
REMARK    2  A    between atoms: O_2  and  C_3
REMARK    3  A    between atoms: C_6  and  N_7
REMARK    4  A    between atoms: N_7  and  S_17
REMARK    5  A    between atoms: C_8  and  C_10
REMARK    6  A    between atoms: C_14  and  C_15
REMARK    7  A    between atoms: S_17  and  C_20
REMARK                            x       y       z     vdW  Elec       q    Type
REMARK                         _______ _______ _______ _____ _____    ______ ____
ROOT
ATOM      1  N   UNL     1      -0.087  13.670  20.087  0.00  0.00    +0.000 N 
ATOM      2  C   UNL     1       0.520  13.136  21.265  0.00  0.00    +0.000 C 
ATOM      3  O   UNL     1       1.279  13.825  21.942  0.00  0.00    +0.000 OA
ENDROOT
BRANCH   2   4
ATOM      4  C   UNL     1       0.298  11.736  21.744  0.00  0.00    +0.000 A 
ATOM      5  C   UNL     1      -0.700  11.557  22.722  0.00  0.00    +0.000 A 
ATOM      6  C   UNL     1      -1.071  10.283  23.154  0.00  0.00    +0.000 A 
ATOM      7  C   UNL     1      -0.470   9.161  22.592  0.00  0.00    +0.000 A 
ATOM      8  C   UNL     1       0.546   9.312  21.647  0.00  0.00    +0.000 A 
ATOM      9  C   UNL     1       1.156   8.122  20.964  0.00  0.00    +0.000 C 
ATOM     10  C   UNL     1       0.960  10.599  21.273  0.00  0.00    +0.000 A 
ENDBRANCH   2   4
BRANCH   1  14
ATOM     11  C   UNL     1      -3.266  11.531  18.251  0.00  0.00    +0.000 A 
ATOM     12  C   UNL     1      -3.450  12.255  19.430  0.00  0.00    +0.000 A 
ATOM     13  C   UNL     1      -2.407  12.993  19.985  0.00  0.00    +0.000 A 
ATOM     14  C   UNL     1      -1.149  13.015  19.373  0.00  0.00    +0.000 A 
ATOM     15  C   UNL     1      -0.956  12.300  18.185  0.00  0.00    +0.000 A 
ATOM     16  C   UNL     1      -2.018  11.564  17.619  0.00  0.00    +0.000 A 
BRANCH  11  18
ATOM     17  C   UNL     1      -5.610  11.143  18.440  0.00  0.00    +0.000 C 
ATOM     18  O   UNL     1      -4.354  10.801  17.874  0.00  0.00    +0.000 OA
ENDBRANCH  11  18
ENDBRANCH   1  14
BRANCH   1  19
ATOM     19  S   UNL     1      -0.105  15.369  19.862  0.00  0.00    +0.000 S 
ATOM     20  O   UNL     1      -0.771  15.684  18.605  0.00  0.00    +0.000 OA
ATOM     21  O   UNL     1      -0.562  15.984  21.092  0.00  0.00    +0.000 OA
BRANCH  19  22
ATOM     22  C   UNL     1       1.599  15.825  19.594  0.00  0.00    +0.000 A 
ATOM     23  C   UNL     1       2.317  15.193  18.573  0.00  0.00    +0.000 A 
ATOM     24  C   UNL     1       3.640  15.565  18.328  0.00  0.00    +0.000 A 
ATOM     25  C   UNL     1       4.230  16.572  19.094  0.00  0.00    +0.000 A 
ATOM     26 CL   UNL     1       5.864  17.024  18.791  0.00  0.00    +0.000 Cl
ATOM     27  C   UNL     1       3.508  17.217  20.099  0.00  0.00    +0.000 A 
ATOM     28  C   UNL     1       2.185  16.846  20.352  0.00  0.00    +0.000 A 
ENDBRANCH  19  22
ENDBRANCH   1  19
TORSDOF 5
ENDMDL
MODEL 6
REMARK VINA RESULT:      -6.8      5.971      9.428
REMARK  Name = 
REMARK  7 active torsions:
REMARK  status: ('A' for Active; 'I' for Inactive)
REMARK    1  A    between atoms: C_1  and  O_2
REMARK    2  A    between atoms: O_2  and  C_3
REMARK    3  A    between atoms: C_6  and  N_7
REMARK    4  A    between atoms: N_7  and  S_17
REMARK    5  A    between atoms: C_8  and  C_10
REMARK    6  A    between atoms: C_14  and  C_15
REMARK    7  A    between atoms: S_17  and  C_20
REMARK                            x       y       z     vdW  Elec       q    Type
REMARK                         _______ _______ _______ _____ _____    ______ ____
ROOT
ATOM      1  N   UNL     1      -0.275  11.020  20.480  0.00  0.00    +0.000 N 
ATOM      2  C   UNL     1       0.752  10.110  20.883  0.00  0.00    +0.000 C 
ATOM      3  O   UNL     1       1.214  10.155  22.020  0.00  0.00    +0.000 OA
ENDROOT
BRANCH   2   4
ATOM      4  C   UNL     1       1.336   9.074  19.976  0.00  0.00    +0.000 A 
ATOM      5  C   UNL     1       1.655   9.491  18.669  0.00  0.00    +0.000 A 
ATOM      6  C   UNL     1       2.311   8.642  17.776  0.00  0.00    +0.000 A 
ATOM      7  C   UNL     1       2.687   7.367  18.186  0.00  0.00    +0.000 A 
ATOM      8  C   UNL     1       2.352   6.916  19.464  0.00  0.00    +0.000 A 
ATOM      9  C   UNL     1       2.814   5.578  19.964  0.00  0.00    +0.000 C 
ATOM     10  C   UNL     1       1.629   7.753  20.327  0.00  0.00    +0.000 A 
ENDBRANCH   2   4
BRANCH   1  14
ATOM     11  C   UNL     1      -2.631  10.920  16.947  0.00  0.00    +0.000 A 
ATOM     12  C   UNL     1      -1.741  11.964  17.209  0.00  0.00    +0.000 A 
ATOM     13  C   UNL     1      -0.939  11.948  18.348  0.00  0.00    +0.000 A 
ATOM     14  C   UNL     1      -1.018  10.888  19.257  0.00  0.00    +0.000 A 
ATOM     15  C   UNL     1      -1.899   9.831  18.999  0.00  0.00    +0.000 A 
ATOM     16  C   UNL     1      -2.701   9.844  17.838  0.00  0.00    +0.000 A 
BRANCH  11  18
ATOM     17  C   UNL     1      -3.124  10.319  14.693  0.00  0.00    +0.000 C 
ATOM     18  O   UNL     1      -3.399  11.114  15.836  0.00  0.00    +0.000 OA
ENDBRANCH  11  18
ENDBRANCH   1  14
BRANCH   1  19
ATOM     19  S   UNL     1      -1.152  11.865  21.686  0.00  0.00    +0.000 S 
ATOM     20  O   UNL     1      -2.458  12.241  21.161  0.00  0.00    +0.000 OA
ATOM     21  O   UNL     1      -1.062  11.113  22.922  0.00  0.00    +0.000 OA
BRANCH  19  22
ATOM     22  C   UNL     1      -0.289  13.413  21.895  0.00  0.00    +0.000 A 
ATOM     23  C   UNL     1      -0.800  14.357  22.792  0.00  0.00    +0.000 A 
ATOM     24  C   UNL     1      -0.116  15.558  22.993  0.00  0.00    +0.000 A 
ATOM     25  C   UNL     1       1.076  15.800  22.308  0.00  0.00    +0.000 A 
ATOM     26 CL   UNL     1       1.914  17.283  22.556  0.00  0.00    +0.000 Cl
ATOM     27  C   UNL     1       1.597  14.849  21.429  0.00  0.00    +0.000 A 
ATOM     28  C   UNL     1       0.915  13.648  21.220  0.00  0.00    +0.000 A 
ENDBRANCH  19  22
ENDBRANCH   1  19
TORSDOF 5
ENDMDL
MODEL 7
REMARK VINA RESULT:      -6.8      6.145     10.730
REMARK  Name = 
REMARK  7 active torsions:
REMARK  status: ('A' for Active; 'I' for Inactive)
REMARK    1  A    between atoms: C_1  and  O_2
REMARK    2  A    between atoms: O_2  and  C_3
REMARK    3  A    between atoms: C_6  and  N_7
REMARK    4  A    between atoms: N_7  and  S_17
REMARK    5  A    between atoms: C_8  and  C_10
REMARK    6  A    between atoms: C_14  and  C_15
REMARK    7  A    between atoms: S_17  and  C_20
REMARK                            x       y       z     vdW  Elec       q    Type
REMARK                         _______ _______ _______ _____ _____    ______ ____
ROOT
ATOM      1  N   UNL     1      -0.292  12.332  20.126  0.00  0.00    +0.000 N 
ATOM      2  C   UNL     1      -1.465  12.845  19.491  0.00  0.00    +0.000 C 
ATOM      3  O   UNL     1      -1.778  14.026  19.619  0.00  0.00    +0.000 OA
ENDROOT
BRANCH   2   4
ATOM      4  C   UNL     1      -2.383  12.007  18.658  0.00  0.00    +0.000 A 
ATOM      5  C   UNL     1      -3.701  11.859  19.133  0.00  0.00    +0.000 A 
ATOM      6  C   UNL     1      -4.673  11.197  18.379  0.00  0.00    +0.000 A 
ATOM      7  C   UNL     1      -4.349  10.697  17.122  0.00  0.00    +0.000 A 
ATOM      8  C   UNL     1      -3.041  10.800  16.644  0.00  0.00    +0.000 A 
ATOM      9  C   UNL     1      -2.681  10.344  15.260  0.00  0.00    +0.000 C 
ATOM     10  C   UNL     1      -2.057  11.403  17.441  0.00  0.00    +0.000 A 
ENDBRANCH   2   4
BRANCH   1  14
ATOM     11  C   UNL     1       1.529   8.533  19.582  0.00  0.00    +0.000 A 
ATOM     12  C   UNL     1       0.753   8.824  20.706  0.00  0.00    +0.000 A 
ATOM     13  C   UNL     1       0.122  10.058  20.837  0.00  0.00    +0.000 A 
ATOM     14  C   UNL     1       0.261  11.036  19.846  0.00  0.00    +0.000 A 
ATOM     15  C   UNL     1       1.028  10.752  18.710  0.00  0.00    +0.000 A 
ATOM     16  C   UNL     1       1.657   9.496  18.575  0.00  0.00    +0.000 A 
BRANCH  11  18
ATOM     17  C   UNL     1       2.604   6.755  18.414  0.00  0.00    +0.000 C 
ATOM     18  O   UNL     1       2.143   7.317  19.633  0.00  0.00    +0.000 OA
ENDBRANCH  11  18
ENDBRANCH   1  14
BRANCH   1  19
ATOM     19  S   UNL     1       0.891  13.435  20.693  0.00  0.00    +0.000 S 
ATOM     20  O   UNL     1       2.018  12.695  21.245  0.00  0.00    +0.000 OA
ATOM     21  O   UNL     1       1.118  14.426  19.660  0.00  0.00    +0.000 OA
BRANCH  19  22
ATOM     22  C   UNL     1       0.148  14.238  22.102  0.00  0.00    +0.000 A 
ATOM     23  C   UNL     1       0.462  15.577  22.363  0.00  0.00    +0.000 A 
ATOM     24  C   UNL     1      -0.141  16.229  23.440  0.00  0.00    +0.000 A 
ATOM     25  C   UNL     1      -1.059  15.546  24.239  0.00  0.00    +0.000 A 
ATOM     26 CL   UNL     1      -1.796  16.353  25.569  0.00  0.00    +0.000 Cl
ATOM     27  C   UNL     1      -1.389  14.218  23.967  0.00  0.00    +0.000 A 
ATOM     28  C   UNL     1      -0.786  13.557  22.893  0.00  0.00    +0.000 A 
ENDBRANCH  19  22
ENDBRANCH   1  19
TORSDOF 5
ENDMDL
MODEL 8
REMARK VINA RESULT:      -6.8      6.165      9.673
REMARK  Name = 
REMARK  7 active torsions:
REMARK  status: ('A' for Active; 'I' for Inactive)
REMARK    1  A    between atoms: C_1  and  O_2
REMARK    2  A    between atoms: O_2  and  C_3
REMARK    3  A    between atoms: C_6  and  N_7
REMARK    4  A    between atoms: N_7  and  S_17
REMARK    5  A    between atoms: C_8  and  C_10
REMARK    6  A    between atoms: C_14  and  C_15
REMARK    7  A    between atoms: S_17  and  C_20
REMARK                            x       y       z     vdW  Elec       q    Type
REMARK                         _______ _______ _______ _____ _____    ______ ____
ROOT
ATOM      1  N   UNL     1      -0.676  11.383  19.971  0.00  0.00    +0.000 N 
ATOM      2  C   UNL     1       0.443  10.643  20.465  0.00  0.00    +0.000 C 
ATOM      3  O   UNL     1       0.931  10.908  21.560  0.00  0.00    +0.000 OA
ENDROOT
BRANCH   2   4
ATOM      4  C   UNL     1       1.098   9.535  19.703  0.00  0.00    +0.000 A 
ATOM      5  C   UNL     1       1.564   9.850  18.411  0.00  0.00    +0.000 A 
ATOM      6  C   UNL     1       2.293   8.927  17.659  0.00  0.00    +0.000 A 
ATOM      7  C   UNL     1       2.594   7.681  18.198  0.00  0.00    +0.000 A 
ATOM      8  C   UNL     1       2.114   7.331  19.461  0.00  0.00    +0.000 A 
ATOM      9  C   UNL     1       2.491   6.027  20.103  0.00  0.00    +0.000 C 
ATOM     10  C   UNL     1       1.322   8.240  20.179  0.00  0.00    +0.000 A 
ENDBRANCH   2   4
BRANCH   1  14
ATOM     11  C   UNL     1      -3.113  10.517  16.601  0.00  0.00    +0.000 A 
ATOM     12  C   UNL     1      -2.327  11.669  16.665  0.00  0.00    +0.000 A 
ATOM     13  C   UNL     1      -1.495  11.905  17.756  0.00  0.00    +0.000 A 
ATOM     14  C   UNL     1      -1.438  10.994  18.816  0.00  0.00    +0.000 A 
ATOM     15  C   UNL     1      -2.214   9.830  18.758  0.00  0.00    +0.000 A 
ATOM     16  C   UNL     1      -3.047   9.588  17.645  0.00  0.00    +0.000 A 
BRANCH  11  18
ATOM     17  C   UNL     1      -3.351  10.098  14.267  0.00  0.00    +0.000 C 
ATOM     18  O   UNL     1      -3.930  10.464  15.510  0.00  0.00    +0.000 OA
ENDBRANCH  11  18
ENDBRANCH   1  14
BRANCH   1  19
ATOM     19  S   UNL     1      -1.596  12.324  21.069  0.00  0.00    +0.000 S 
ATOM     20  O   UNL     1      -2.879  12.657  20.466  0.00  0.00    +0.000 OA
ATOM     21  O   UNL     1      -1.556  11.676  22.365  0.00  0.00    +0.000 OA
BRANCH  19  22
ATOM     22  C   UNL     1      -0.736  13.883  21.184  0.00  0.00    +0.000 A 
ATOM     23  C   UNL     1      -0.619  14.679  20.039  0.00  0.00    +0.000 A 
ATOM     24  C   UNL     1       0.018  15.918  20.122  0.00  0.00    +0.000 A 
ATOM     25  C   UNL     1       0.523  16.358  21.347  0.00  0.00    +0.000 A 
ATOM     26 CL   UNL     1       1.312  17.885  21.444  0.00  0.00    +0.000 Cl
ATOM     27  C   UNL     1       0.388  15.574  22.494  0.00  0.00    +0.000 A 
ATOM     28  C   UNL     1      -0.245  14.331  22.417  0.00  0.00    +0.000 A 
ENDBRANCH  19  22
ENDBRANCH   1  19
TORSDOF 5
ENDMDL
MODEL 9
REMARK VINA RESULT:      -6.7      7.084      9.437
REMARK  Name = 
REMARK  7 active torsions:
REMARK  status: ('A' for Active; 'I' for Inactive)
REMARK    1  A    between atoms: C_1  and  O_2
REMARK    2  A    between atoms: O_2  and  C_3
REMARK    3  A    between atoms: C_6  and  N_7
REMARK    4  A    between atoms: N_7  and  S_17
REMARK    5  A    between atoms: C_8  and  C_10
REMARK    6  A    between atoms: C_14  and  C_15
REMARK    7  A    between atoms: S_17  and  C_20
REMARK                            x       y       z     vdW  Elec       q    Type
REMARK                         _______ _______ _______ _____ _____    ______ ____
ROOT
ATOM      1  N   UNL     1       0.040  13.108  19.897  0.00  0.00    +0.000 N 
ATOM      2  C   UNL     1       0.786  12.540  20.976  0.00  0.00    +0.000 C 
ATOM      3  O   UNL     1       1.697  13.171  21.505  0.00  0.00    +0.000 OA
ENDROOT
BRANCH   2   4
ATOM      4  C   UNL     1       0.534  11.169  21.519  0.00  0.00    +0.000 A 
ATOM      5  C   UNL     1      -0.444  11.063  22.528  0.00  0.00    +0.000 A 
ATOM      6  C   UNL     1      -0.843   9.820  23.022  0.00  0.00    +0.000 A 
ATOM      7  C   UNL     1      -0.291   8.657  22.495  0.00  0.00    +0.000 A 
ATOM      8  C   UNL     1       0.706   8.736  21.520  0.00  0.00    +0.000 A 
ATOM      9  C   UNL     1       1.261   7.500  20.874  0.00  0.00    +0.000 C 
ATOM     10  C   UNL     1       1.149   9.993  21.082  0.00  0.00    +0.000 A 
ENDBRANCH   2   4
BRANCH   1  14
ATOM     11  C   UNL     1      -3.493  11.596  18.086  0.00  0.00    +0.000 A 
ATOM     12  C   UNL     1      -2.232  11.395  17.521  0.00  0.00    +0.000 A 
ATOM     13  C   UNL     1      -1.083  11.853  18.161  0.00  0.00    +0.000 A 
ATOM     14  C   UNL     1      -1.171  12.534  19.380  0.00  0.00    +0.000 A 
ATOM     15  C   UNL     1      -2.430  12.733  19.960  0.00  0.00    +0.000 A 
ATOM     16  C   UNL     1      -3.591  12.256  19.316  0.00  0.00    +0.000 A 
BRANCH  11  18
ATOM     17  C   UNL     1      -5.829  11.623  17.615  0.00  0.00    +0.000 C 
ATOM     18  O   UNL     1      -4.524  11.159  17.308  0.00  0.00    +0.000 OA
ENDBRANCH  11  18
ENDBRANCH   1  14
BRANCH   1  19
ATOM     19  S   UNL     1       0.122  14.800  19.635  0.00  0.00    +0.000 S 
ATOM     20  O   UNL     1      -0.543  15.128  18.381  0.00  0.00    +0.000 OA
ATOM     21  O   UNL     1      -0.278  15.467  20.858  0.00  0.00    +0.000 OA
BRANCH  19  22
ATOM     22  C   UNL     1       1.846  15.145  19.333  0.00  0.00    +0.000 A 
ATOM     23  C   UNL     1       2.520  14.417  18.346  0.00  0.00    +0.000 A 
ATOM     24  C   UNL     1       3.859  14.702  18.073  0.00  0.00    +0.000 A 
ATOM     25  C   UNL     1       4.510  15.717  18.777  0.00  0.00    +0.000 A 
ATOM     26 CL   UNL     1       6.163  16.061  18.440  0.00  0.00    +0.000 Cl
ATOM     27  C   UNL     1       3.832  16.457  19.747  0.00  0.00    +0.000 A 
ATOM     28  C   UNL     1       2.493  16.174  20.028  0.00  0.00    +0.000 A 
ENDBRANCH  19  22
ENDBRANCH   1  19
TORSDOF 5
ENDMDL
