MODEL 1
REMARK VINA RESULT:      -6.9      0.000      0.000
REMARK  Name = 
REMARK  8 active torsions:
REMARK  status: ('A' for Active; 'I' for Inactive)
REMARK    1  A    between atoms: C_1  and  C_2
REMARK    2  A    between atoms: C_2  and  O_3
REMARK    3  A    between atoms: O_3  and  C_4
REMARK    4  A    between atoms: C_4  and  C_6
REMARK    5  A    between atoms: N_8  and  C_9
REMARK    6  A    between atoms: C_9  and  C_10
REMARK    7  A    between atoms: N_20  and  C_21
REMARK    8  A    between atoms: C_22  and  C_23
REMARK                            x       y       z     vdW  Elec       q    Type
REMARK                         _______ _______ _______ _____ _____    ______ ____
ROOT
ATOM      1  C   UNL     1       2.709   4.759  18.258  0.00  0.00    +0.000 C 
ATOM      2  C   UNL     1       2.433   6.077  18.141  0.00  0.00    +0.000 C 
ATOM      3  N   UNL     1       3.446   7.017  17.804  0.00  0.00    +0.000 N 
ATOM      4  S   UNL     1       4.922   6.503  17.224  0.00  0.00    +0.000 S 
ATOM      5  O   UNL     1       5.930   7.450  17.653  0.00  0.00    +0.000 OA
ATOM      6  O   UNL     1       4.778   6.149  15.831  0.00  0.00    +0.000 OA
ATOM      7  N   UNL     1       5.118   5.111  18.121  0.00  0.00    +0.000 NA
ATOM      8  C   UNL     1       6.502   4.703  18.392  0.00  0.00    +0.000 C 
ATOM      9  C   UNL     1       4.047   4.081  18.037  0.00  0.00    +0.000 C 
ATOM     10  C   UNL     1       4.362   2.958  19.051  0.00  0.00    +0.000 C 
ENDROOT
BRANCH   1  11
ATOM     11  C   UNL     1       1.535   3.893  18.606  0.00  0.00    +0.000 C 
ATOM     12  O   UNL     1       1.052   3.060  17.857  0.00  0.00    +0.000 OA
BRANCH  11  13
ATOM     13  O   UNL     1       1.109   4.140  19.875  0.00  0.00    +0.000 OA
BRANCH  13  15
ATOM     14  C   UNL     1       2.106   3.148  21.834  0.00  0.00    +0.000 C 
ATOM     15  C   UNL     1       1.032   3.026  20.773  0.00  0.00    +0.000 C 
ENDBRANCH  13  15
ENDBRANCH  11  13
ENDBRANCH   1  11
BRANCH   3  16
ATOM     16  C   UNL     1       3.087   8.438  17.573  0.00  0.00    +0.000 C 
BRANCH  16  17
ATOM     17  C   UNL     1       1.853   8.841  18.356  0.00  0.00    +0.000 A 
ATOM     18  C   UNL     1       0.765   9.442  17.705  0.00  0.00    +0.000 A 
ATOM     19  C   UNL     1      -0.278  10.014  18.436  0.00  0.00    +0.000 A 
ATOM     20  C   UNL     1      -0.266   9.957  19.828  0.00  0.00    +0.000 A 
ATOM     21  C   UNL     1       0.770   9.292  20.479  0.00  0.00    +0.000 A 
ATOM     22 BR   UNL     1       0.769   9.182  22.367  0.00  0.00    +0.000 Br
ATOM     23  C   UNL     1       1.826   8.736  19.754  0.00  0.00    +0.000 A 
ENDBRANCH  16  17
ENDBRANCH   3  16
TORSDOF 5
ENDMDL
MODEL 2
REMARK VINA RESULT:      -6.8      2.281      4.374
REMARK  Name = 
REMARK  8 active torsions:
REMARK  status: ('A' for Active; 'I' for Inactive)
REMARK    1  A    between atoms: C_1  and  C_2
REMARK    2  A    between atoms: C_2  and  O_3
REMARK    3  A    between atoms: O_3  and  C_4
REMARK    4  A    between atoms: C_4  and  C_6
REMARK    5  A    between atoms: N_8  and  C_9
REMARK    6  A    between atoms: C_9  and  C_10
REMARK    7  A    between atoms: N_20  and  C_21
REMARK    8  A    between atoms: C_22  and  C_23
REMARK                            x       y       z     vdW  Elec       q    Type
REMARK                         _______ _______ _______ _____ _____    ______ ____
ROOT
ATOM      1  C   UNL     1       4.362   4.429  18.883  0.00  0.00    +0.000 C 
ATOM      2  C   UNL     1       3.877   5.551  19.462  0.00  0.00    +0.000 C 
ATOM      3  N   UNL     1       2.617   5.558  20.120  0.00  0.00    +0.000 N 
ATOM      4  S   UNL     1       1.846   4.126  20.490  0.00  0.00    +0.000 S 
ATOM      5  O   UNL     1       0.418   4.356  20.436  0.00  0.00    +0.000 OA
ATOM      6  O   UNL     1       2.464   3.554  21.664  0.00  0.00    +0.000 OA
ATOM      7  N   UNL     1       2.265   3.217  19.157  0.00  0.00    +0.000 NA
ATOM      8  C   UNL     1       1.323   2.160  18.770  0.00  0.00    +0.000 C 
ATOM      9  C   UNL     1       3.714   3.059  18.860  0.00  0.00    +0.000 C 
ATOM     10  C   UNL     1       3.863   2.314  17.514  0.00  0.00    +0.000 C 
ENDROOT
BRANCH   1  11
ATOM     11  C   UNL     1       5.708   4.578  18.240  0.00  0.00    +0.000 C 
ATOM     12  O   UNL     1       6.761   4.270  18.773  0.00  0.00    +0.000 OA
BRANCH  11  13
ATOM     13  O   UNL     1       5.591   5.070  16.976  0.00  0.00    +0.000 OA
BRANCH  13  15
ATOM     14  C   UNL     1       6.147   3.988  14.894  0.00  0.00    +0.000 C 
ATOM     15  C   UNL     1       6.662   4.802  16.062  0.00  0.00    +0.000 C 
ENDBRANCH  13  15
ENDBRANCH  11  13
ENDBRANCH   1  11
BRANCH   3  16
ATOM     16  C   UNL     1       2.166   6.773  20.840  0.00  0.00    +0.000 C 
BRANCH  16  17
ATOM     17  C   UNL     1       1.758   7.876  19.883  0.00  0.00    +0.000 A 
ATOM     18  C   UNL     1       2.242   7.886  18.566  0.00  0.00    +0.000 A 
ATOM     19  C   UNL     1       2.055   9.000  17.745  0.00  0.00    +0.000 A 
ATOM     20  C   UNL     1       1.347  10.103  18.217  0.00  0.00    +0.000 A 
ATOM     21  C   UNL     1       0.794  10.068  19.495  0.00  0.00    +0.000 A 
ATOM     22 BR   UNL     1      -0.198  11.550  20.124  0.00  0.00    +0.000 Br
ATOM     23  C   UNL     1       0.995   8.966  20.328  0.00  0.00    +0.000 A 
ENDBRANCH  16  17
ENDBRANCH   3  16
TORSDOF 5
ENDMDL
MODEL 3
REMARK VINA RESULT:      -6.8      1.036      1.431
REMARK  Name = 
REMARK  8 active torsions:
REMARK  status: ('A' for Active; 'I' for Inactive)
REMARK    1  A    between atoms: C_1  and  C_2
REMARK    2  A    between atoms: C_2  and  O_3
REMARK    3  A    between atoms: O_3  and  C_4
REMARK    4  A    between atoms: C_4  and  C_6
REMARK    5  A    between atoms: N_8  and  C_9
REMARK    6  A    between atoms: C_9  and  C_10
REMARK    7  A    between atoms: N_20  and  C_21
REMARK    8  A    between atoms: C_22  and  C_23
REMARK                            x       y       z     vdW  Elec       q    Type
REMARK                         _______ _______ _______ _____ _____    ______ ____
ROOT
ATOM      1  C   UNL     1       2.746   4.404  18.290  0.00  0.00    +0.000 C 
ATOM      2  C   UNL     1       2.333   5.680  18.113  0.00  0.00    +0.000 C 
ATOM      3  N   UNL     1       3.255   6.719  17.808  0.00  0.00    +0.000 N 
ATOM      4  S   UNL     1       4.813   6.359  17.336  0.00  0.00    +0.000 S 
ATOM      5  O   UNL     1       5.680   7.424  17.794  0.00  0.00    +0.000 OA
ATOM      6  O   UNL     1       4.799   5.956  15.948  0.00  0.00    +0.000 OA
ATOM      7  N   UNL     1       5.105   5.021  18.288  0.00  0.00    +0.000 NA
ATOM      8  C   UNL     1       6.505   4.778  18.655  0.00  0.00    +0.000 C 
ATOM      9  C   UNL     1       4.162   3.876  18.172  0.00  0.00    +0.000 C 
ATOM     10  C   UNL     1       4.534   2.822  19.240  0.00  0.00    +0.000 C 
ENDROOT
BRANCH   1  11
ATOM     11  C   UNL     1       1.655   3.421  18.594  0.00  0.00    +0.000 C 
ATOM     12  O   UNL     1       1.384   2.459  17.893  0.00  0.00    +0.000 OA
BRANCH  11  13
ATOM     13  O   UNL     1       1.037   3.729  19.766  0.00  0.00    +0.000 OA
BRANCH  13  15
ATOM     14  C   UNL     1       2.128   3.312  21.876  0.00  0.00    +0.000 C 
ATOM     15  C   UNL     1       1.155   2.787  20.841  0.00  0.00    +0.000 C 
ENDBRANCH  13  15
ENDBRANCH  11  13
ENDBRANCH   1  11
BRANCH   3  16
ATOM     16  C   UNL     1       2.757   8.083  17.509  0.00  0.00    +0.000 C 
BRANCH  16  17
ATOM     17  C   UNL     1       1.924   8.640  18.647  0.00  0.00    +0.000 A 
ATOM     18  C   UNL     1       1.985   8.057  19.921  0.00  0.00    +0.000 A 
ATOM     19  C   UNL     1       1.071   8.414  20.915  0.00  0.00    +0.000 A 
ATOM     20  C   UNL     1       0.108   9.389  20.659  0.00  0.00    +0.000 A 
ATOM     21  C   UNL     1       0.093  10.030  19.423  0.00  0.00    +0.000 A 
ATOM     22 BR   UNL     1      -1.190  11.378  19.086  0.00  0.00    +0.000 Br
ATOM     23  C   UNL     1       0.991   9.662  18.418  0.00  0.00    +0.000 A 
ENDBRANCH  16  17
ENDBRANCH   3  16
TORSDOF 5
ENDMDL
MODEL 4
REMARK VINA RESULT:      -6.8      2.217      4.389
REMARK  Name = 
REMARK  8 active torsions:
REMARK  status: ('A' for Active; 'I' for Inactive)
REMARK    1  A    between atoms: C_1  and  C_2
REMARK    2  A    between atoms: C_2  and  O_3
REMARK    3  A    between atoms: O_3  and  C_4
REMARK    4  A    between atoms: C_4  and  C_6
REMARK    5  A    between atoms: N_8  and  C_9
REMARK    6  A    between atoms: C_9  and  C_10
REMARK    7  A    between atoms: N_20  and  C_21
REMARK    8  A    between atoms: C_22  and  C_23
REMARK                            x       y       z     vdW  Elec       q    Type
REMARK                         _______ _______ _______ _____ _____    ______ ____
ROOT
ATOM      1  C   UNL     1       4.424   4.657  18.991  0.00  0.00    +0.000 C 
ATOM      2  C   UNL     1       3.841   5.733  19.566  0.00  0.00    +0.000 C 
ATOM      3  N   UNL     1       2.545   5.649  20.147  0.00  0.00    +0.000 N 
ATOM      4  S   UNL     1       1.838   4.167  20.434  0.00  0.00    +0.000 S 
ATOM      5  O   UNL     1       0.405   4.317  20.299  0.00  0.00    +0.000 OA
ATOM      6  O   UNL     1       2.418   3.597  21.629  0.00  0.00    +0.000 OA
ATOM      7  N   UNL     1       2.387   3.320  19.106  0.00  0.00    +0.000 NA
ATOM      8  C   UNL     1       1.533   2.224  18.636  0.00  0.00    +0.000 C 
ATOM      9  C   UNL     1       3.858   3.253  18.894  0.00  0.00    +0.000 C 
ATOM     10  C   UNL     1       4.129   2.556  17.541  0.00  0.00    +0.000 C 
ENDROOT
BRANCH   1  11
ATOM     11  C   UNL     1       5.794   4.900  18.433  0.00  0.00    +0.000 C 
ATOM     12  O   UNL     1       6.797   4.307  18.796  0.00  0.00    +0.000 OA
BRANCH  11  13
ATOM     13  O   UNL     1       5.760   5.842  17.452  0.00  0.00    +0.000 OA
BRANCH  13  15
ATOM     14  C   UNL     1       7.540   7.465  17.564  0.00  0.00    +0.000 C 
ATOM     15  C   UNL     1       7.009   6.230  16.867  0.00  0.00    +0.000 C 
ENDBRANCH  13  15
ENDBRANCH  11  13
ENDBRANCH   1  11
BRANCH   3  16
ATOM     16  C   UNL     1       1.983   6.817  20.869  0.00  0.00    +0.000 C 
BRANCH  16  17
ATOM     17  C   UNL     1       1.660   7.959  19.926  0.00  0.00    +0.000 A 
ATOM     18  C   UNL     1       2.148   7.953  18.611  0.00  0.00    +0.000 A 
ATOM     19  C   UNL     1       2.045   9.089  17.805  0.00  0.00    +0.000 A 
ATOM     20  C   UNL     1       1.416  10.233  18.290  0.00  0.00    +0.000 A 
ATOM     21  C   UNL     1       0.857  10.220  19.566  0.00  0.00    +0.000 A 
ATOM     22 BR   UNL     1      -0.029  11.760  20.213  0.00  0.00    +0.000 Br
ATOM     23  C   UNL     1       0.975   9.094  20.384  0.00  0.00    +0.000 A 
ENDBRANCH  16  17
ENDBRANCH   3  16
TORSDOF 5
ENDMDL
MODEL 5
REMARK VINA RESULT:      -6.5      2.183      4.183
REMARK  Name = 
REMARK  8 active torsions:
REMARK  status: ('A' for Active; 'I' for Inactive)
REMARK    1  A    between atoms: C_1  and  C_2
REMARK    2  A    between atoms: C_2  and  O_3
REMARK    3  A    between atoms: O_3  and  C_4
REMARK    4  A    between atoms: C_4  and  C_6
REMARK    5  A    between atoms: N_8  and  C_9
REMARK    6  A    between atoms: C_9  and  C_10
REMARK    7  A    between atoms: N_20  and  C_21
REMARK    8  A    between atoms: C_22  and  C_23
REMARK                            x       y       z     vdW  Elec       q    Type
REMARK                         _______ _______ _______ _____ _____    ______ ____
ROOT
ATOM      1  C   UNL     1       4.118   4.361  18.509  0.00  0.00    +0.000 C 
ATOM      2  C   UNL     1       3.798   5.505  19.156  0.00  0.00    +0.000 C 
ATOM      3  N   UNL     1       2.628   5.597  19.959  0.00  0.00    +0.000 N 
ATOM      4  S   UNL     1       1.791   4.224  20.399  0.00  0.00    +0.000 S 
ATOM      5  O   UNL     1       0.390   4.569  20.517  0.00  0.00    +0.000 OA
ATOM      6  O   UNL     1       2.493   3.577  21.484  0.00  0.00    +0.000 OA
ATOM      7  N   UNL     1       1.974   3.314  19.014  0.00  0.00    +0.000 NA
ATOM      8  C   UNL     1       0.910   2.346  18.727  0.00  0.00    +0.000 C 
ATOM      9  C   UNL     1       3.361   3.048  18.545  0.00  0.00    +0.000 C 
ATOM     10  C   UNL     1       3.289   2.324  17.181  0.00  0.00    +0.000 C 
ENDROOT
BRANCH   1  11
ATOM     11  C   UNL     1       5.387   4.416  17.713  0.00  0.00    +0.000 C 
ATOM     12  O   UNL     1       5.439   4.686  16.524  0.00  0.00    +0.000 OA
BRANCH  11  13
ATOM     13  O   UNL     1       6.467   4.159  18.500  0.00  0.00    +0.000 OA
BRANCH  13  15
ATOM     14  C   UNL     1       7.879   6.022  19.095  0.00  0.00    +0.000 C 
ATOM     15  C   UNL     1       7.692   4.831  18.178  0.00  0.00    +0.000 C 
ENDBRANCH  13  15
ENDBRANCH  11  13
ENDBRANCH   1  11
BRANCH   3  16
ATOM     16  C   UNL     1       2.367   6.828  20.744  0.00  0.00    +0.000 C 
BRANCH  16  17
ATOM     17  C   UNL     1       1.772   7.927  19.885  0.00  0.00    +0.000 A 
ATOM     18  C   UNL     1       2.159   8.067  18.544  0.00  0.00    +0.000 A 
ATOM     19  C   UNL     1       1.791   9.196  17.808  0.00  0.00    +0.000 A 
ATOM     20  C   UNL     1       0.996  10.180  18.392  0.00  0.00    +0.000 A 
ATOM     21  C   UNL     1       0.540  10.009  19.696  0.00  0.00    +0.000 A 
ATOM     22 BR   UNL     1      -0.569  11.326  20.478  0.00  0.00    +0.000 Br
ATOM     23  C   UNL     1       0.922   8.893  20.444  0.00  0.00    +0.000 A 
ENDBRANCH  16  17
ENDBRANCH   3  16
TORSDOF 5
ENDMDL
MODEL 6
REMARK VINA RESULT:      -6.5      2.863      5.548
REMARK  Name = 
REMARK  8 active torsions:
REMARK  status: ('A' for Active; 'I' for Inactive)
REMARK    1  A    between atoms: C_1  and  C_2
REMARK    2  A    between atoms: C_2  and  O_3
REMARK    3  A    between atoms: O_3  and  C_4
REMARK    4  A    between atoms: C_4  and  C_6
REMARK    5  A    between atoms: N_8  and  C_9
REMARK    6  A    between atoms: C_9  and  C_10
REMARK    7  A    between atoms: N_20  and  C_21
REMARK    8  A    between atoms: C_22  and  C_23
REMARK                            x       y       z     vdW  Elec       q    Type
REMARK                         _______ _______ _______ _____ _____    ______ ____
ROOT
ATOM      1  C   UNL     1       2.302   5.640  19.355  0.00  0.00    +0.000 C 
ATOM      2  C   UNL     1       3.310   5.927  18.500  0.00  0.00    +0.000 C 
ATOM      3  N   UNL     1       3.877   4.927  17.663  0.00  0.00    +0.000 N 
ATOM      4  S   UNL     1       3.115   3.458  17.462  0.00  0.00    +0.000 S 
ATOM      5  O   UNL     1       4.131   2.449  17.245  0.00  0.00    +0.000 OA
ATOM      6  O   UNL     1       2.019   3.623  16.534  0.00  0.00    +0.000 OA
ATOM      7  N   UNL     1       2.499   3.236  18.996  0.00  0.00    +0.000 NA
ATOM      8  C   UNL     1       2.317   1.845  19.428  0.00  0.00    +0.000 C 
ATOM      9  C   UNL     1       1.616   4.301  19.543  0.00  0.00    +0.000 C 
ATOM     10  C   UNL     1       1.287   3.961  21.014  0.00  0.00    +0.000 C 
ENDROOT
BRANCH   1  11
ATOM     11  C   UNL     1       1.803   6.801  20.162  0.00  0.00    +0.000 C 
ATOM     12  O   UNL     1       1.102   6.696  21.154  0.00  0.00    +0.000 OA
BRANCH  11  13
ATOM     13  O   UNL     1       2.266   7.977  19.657  0.00  0.00    +0.000 OA
BRANCH  13  15
ATOM     14  C   UNL     1       1.479   9.400  17.875  0.00  0.00    +0.000 C 
ATOM     15  C   UNL     1       1.295   8.976  19.317  0.00  0.00    +0.000 C 
ENDBRANCH  13  15
ENDBRANCH  11  13
ENDBRANCH   1  11
BRANCH   3  16
ATOM     16  C   UNL     1       4.902   5.299  16.658  0.00  0.00    +0.000 C 
BRANCH  16  17
ATOM     17  C   UNL     1       6.182   5.781  17.312  0.00  0.00    +0.000 A 
ATOM     18  C   UNL     1       6.903   4.935  18.167  0.00  0.00    +0.000 A 
ATOM     19  C   UNL     1       7.954   5.429  18.943  0.00  0.00    +0.000 A 
ATOM     20  C   UNL     1       8.324   6.769  18.842  0.00  0.00    +0.000 A 
ATOM     21  C   UNL     1       7.666   7.596  17.936  0.00  0.00    +0.000 A 
ATOM     22 BR   UNL     1       8.190   9.406  17.772  0.00  0.00    +0.000 Br
ATOM     23  C   UNL     1       6.600   7.113  17.173  0.00  0.00    +0.000 A 
ENDBRANCH  16  17
ENDBRANCH   3  16
TORSDOF 5
ENDMDL
MODEL 7
REMARK VINA RESULT:      -6.4      3.999      6.268
REMARK  Name = 
REMARK  8 active torsions:
REMARK  status: ('A' for Active; 'I' for Inactive)
REMARK    1  A    between atoms: C_1  and  C_2
REMARK    2  A    between atoms: C_2  and  O_3
REMARK    3  A    between atoms: O_3  and  C_4
REMARK    4  A    between atoms: C_4  and  C_6
REMARK    5  A    between atoms: N_8  and  C_9
REMARK    6  A    between atoms: C_9  and  C_10
REMARK    7  A    between atoms: N_20  and  C_21
REMARK    8  A    between atoms: C_22  and  C_23
REMARK                            x       y       z     vdW  Elec       q    Type
REMARK                         _______ _______ _______ _____ _____    ______ ____
ROOT
ATOM      1  C   UNL     1       3.771   3.865  17.745  0.00  0.00    +0.000 C 
ATOM      2  C   UNL     1       4.941   3.618  17.112  0.00  0.00    +0.000 C 
ATOM      3  N   UNL     1       5.856   4.666  16.815  0.00  0.00    +0.000 N 
ATOM      4  S   UNL     1       5.682   6.168  17.516  0.00  0.00    +0.000 S 
ATOM      5  O   UNL     1       6.173   7.161  16.583  0.00  0.00    +0.000 OA
ATOM      6  O   UNL     1       6.178   6.111  18.872  0.00  0.00    +0.000 OA
ATOM      7  N   UNL     1       4.019   6.283  17.550  0.00  0.00    +0.000 NA
ATOM      8  C   UNL     1       3.460   7.639  17.493  0.00  0.00    +0.000 C 
ATOM      9  C   UNL     1       3.269   5.204  18.248  0.00  0.00    +0.000 C 
ATOM     10  C   UNL     1       1.756   5.433  18.028  0.00  0.00    +0.000 C 
ENDROOT
BRANCH   1  11
ATOM     11  C   UNL     1       2.920   2.657  17.998  0.00  0.00    +0.000 C 
ATOM     12  O   UNL     1       2.029   2.279  17.254  0.00  0.00    +0.000 OA
BRANCH  11  13
ATOM     13  O   UNL     1       3.297   2.028  19.144  0.00  0.00    +0.000 OA
BRANCH  13  15
ATOM     14  C   UNL     1       1.540   2.640  20.678  0.00  0.00    +0.000 C 
ATOM     15  C   UNL     1       3.024   2.696  20.383  0.00  0.00    +0.000 C 
ENDBRANCH  13  15
ENDBRANCH  11  13
ENDBRANCH   1  11
BRANCH   3  16
ATOM     16  C   UNL     1       7.178   4.346  16.223  0.00  0.00    +0.000 C 
BRANCH  16  17
ATOM     17  C   UNL     1       7.138   4.378  14.708  0.00  0.00    +0.000 A 
ATOM     18  C   UNL     1       8.041   5.177  13.991  0.00  0.00    +0.000 A 
ATOM     19  C   UNL     1       7.878   5.386  12.620  0.00  0.00    +0.000 A 
ATOM     20  C   UNL     1       6.832   4.766  11.940  0.00  0.00    +0.000 A 
ATOM     21  C   UNL     1       5.980   3.907  12.629  0.00  0.00    +0.000 A 
ATOM     22 BR   UNL     1       4.581   3.037  11.699  0.00  0.00    +0.000 Br
ATOM     23  C   UNL     1       6.125   3.710  14.003  0.00  0.00    +0.000 A 
ENDBRANCH  16  17
ENDBRANCH   3  16
TORSDOF 5
ENDMDL
MODEL 8
REMARK VINA RESULT:      -6.3      2.184      4.442
REMARK  Name = 
REMARK  8 active torsions:
REMARK  status: ('A' for Active; 'I' for Inactive)
REMARK    1  A    between atoms: C_1  and  C_2
REMARK    2  A    between atoms: C_2  and  O_3
REMARK    3  A    between atoms: O_3  and  C_4
REMARK    4  A    between atoms: C_4  and  C_6
REMARK    5  A    between atoms: N_8  and  C_9
REMARK    6  A    between atoms: C_9  and  C_10
REMARK    7  A    between atoms: N_20  and  C_21
REMARK    8  A    between atoms: C_22  and  C_23
REMARK                            x       y       z     vdW  Elec       q    Type
REMARK                         _______ _______ _______ _____ _____    ______ ____
ROOT
ATOM      1  C   UNL     1       5.541   4.950  18.277  0.00  0.00    +0.000 C 
ATOM      2  C   UNL     1       4.832   5.735  19.120  0.00  0.00    +0.000 C 
ATOM      3  N   UNL     1       3.467   5.464  19.410  0.00  0.00    +0.000 N 
ATOM      4  S   UNL     1       2.784   4.002  18.990  0.00  0.00    +0.000 S 
ATOM      5  O   UNL     1       1.385   4.225  18.696  0.00  0.00    +0.000 OA
ATOM      6  O   UNL     1       3.193   3.003  19.951  0.00  0.00    +0.000 OA
ATOM      7  N   UNL     1       3.568   3.719  17.545  0.00  0.00    +0.000 NA
ATOM      8  C   UNL     1       2.843   2.907  16.561  0.00  0.00    +0.000 C 
ATOM      9  C   UNL     1       5.056   3.706  17.561  0.00  0.00    +0.000 C 
ATOM     10  C   UNL     1       5.563   3.577  16.106  0.00  0.00    +0.000 C 
ENDROOT
BRANCH   1  11
ATOM     11  C   UNL     1       6.971   5.358  18.082  0.00  0.00    +0.000 C 
ATOM     12  O   UNL     1       7.846   4.613  17.673  0.00  0.00    +0.000 OA
BRANCH  11  13
ATOM     13  O   UNL     1       7.148   6.671  18.391  0.00  0.00    +0.000 OA
BRANCH  13  15
ATOM     14  C   UNL     1       8.101   8.842  17.946  0.00  0.00    +0.000 C 
ATOM     15  C   UNL     1       7.619   7.536  17.350  0.00  0.00    +0.000 C 
ENDBRANCH  13  15
ENDBRANCH  11  13
ENDBRANCH   1  11
BRANCH   3  16
ATOM     16  C   UNL     1       2.752   6.276  20.424  0.00  0.00    +0.000 C 
BRANCH  16  17
ATOM     17  C   UNL     1       2.050   7.466  19.799  0.00  0.00    +0.000 A 
ATOM     18  C   UNL     1       2.232   7.763  18.440  0.00  0.00    +0.000 A 
ATOM     19  C   UNL     1       1.773   8.969  17.905  0.00  0.00    +0.000 A 
ATOM     20  C   UNL     1       1.092   9.876  18.713  0.00  0.00    +0.000 A 
ATOM     21  C   UNL     1       0.837   9.553  20.044  0.00  0.00    +0.000 A 
ATOM     22 BR   UNL     1      -0.120  10.767  21.133  0.00  0.00    +0.000 Br
ATOM     23  C   UNL     1       1.310   8.358  20.590  0.00  0.00    +0.000 A 
ENDBRANCH  16  17
ENDBRANCH   3  16
TORSDOF 5
ENDMDL
MODEL 9
REMARK VINA RESULT:      -6.2      3.384      6.091
REMARK  Name = 
REMARK  8 active torsions:
REMARK  status: ('A' for Active; 'I' for Inactive)
REMARK    1  A    between atoms: C_1  and  C_2
REMARK    2  A    between atoms: C_2  and  O_3
REMARK    3  A    between atoms: O_3  and  C_4
REMARK    4  A    between atoms: C_4  and  C_6
REMARK    5  A    between atoms: N_8  and  C_9
REMARK    6  A    between atoms: C_9  and  C_10
REMARK    7  A    between atoms: N_20  and  C_21
REMARK    8  A    between atoms: C_22  and  C_23
REMARK                            x       y       z     vdW  Elec       q    Type
REMARK                         _______ _______ _______ _____ _____    ______ ____
ROOT
ATOM      1  C   UNL     1       2.879   5.623  19.525  0.00  0.00    +0.000 C 
ATOM      2  C   UNL     1       4.230   5.581  19.501  0.00  0.00    +0.000 C 
ATOM      3  N   UNL     1       4.933   4.348  19.581  0.00  0.00    +0.000 N 
ATOM      4  S   UNL     1       4.132   2.900  19.377  0.00  0.00    +0.000 S 
ATOM      5  O   UNL     1       4.796   1.899  20.185  0.00  0.00    +0.000 OA
ATOM      6  O   UNL     1       3.905   2.687  17.966  0.00  0.00    +0.000 OA
ATOM      7  N   UNL     1       2.680   3.265  20.112  0.00  0.00    +0.000 NA
ATOM      8  C   UNL     1       1.951   2.138  20.706  0.00  0.00    +0.000 C 
ATOM      9  C   UNL     1       1.929   4.444  19.603  0.00  0.00    +0.000 C 
ATOM     10  C   UNL     1       0.704   4.680  20.517  0.00  0.00    +0.000 C 
ENDROOT
BRANCH   1  11
ATOM     11  C   UNL     1       2.285   6.996  19.420  0.00  0.00    +0.000 C 
ATOM     12  O   UNL     1       1.997   7.693  20.379  0.00  0.00    +0.000 OA
BRANCH  11  13
ATOM     13  O   UNL     1       2.144   7.366  18.118  0.00  0.00    +0.000 OA
BRANCH  13  15
ATOM     14  C   UNL     1       1.001   9.476  17.869  0.00  0.00    +0.000 C 
ATOM     15  C   UNL     1       2.330   8.752  17.804  0.00  0.00    +0.000 C 
ENDBRANCH  13  15
ENDBRANCH  11  13
ENDBRANCH   1  11
BRANCH   3  16
ATOM     16  C   UNL     1       6.409   4.328  19.438  0.00  0.00    +0.000 C 
BRANCH  16  17
ATOM     17  C   UNL     1       6.862   5.045  18.181  0.00  0.00    +0.000 A 
ATOM     18  C   UNL     1       7.379   6.347  18.254  0.00  0.00    +0.000 A 
ATOM     19  C   UNL     1       7.594   7.096  17.095  0.00  0.00    +0.000 A 
ATOM     20  C   UNL     1       7.332   6.539  15.846  0.00  0.00    +0.000 A 
ATOM     21  C   UNL     1       6.896   5.219  15.761  0.00  0.00    +0.000 A 
ATOM     22 BR   UNL     1       6.575   4.449  14.064  0.00  0.00    +0.000 Br
ATOM     23  C   UNL     1       6.659   4.471  16.916  0.00  0.00    +0.000 A 
ENDBRANCH  16  17
ENDBRANCH   3  16
TORSDOF 5
ENDMDL
