MODEL 1
REMARK VINA RESULT:      -6.4      0.000      0.000
REMARK  Name = 
REMARK  8 active torsions:
REMARK  status: ('A' for Active; 'I' for Inactive)
REMARK    1  A    between atoms: C_1  and  C_2
REMARK    2  A    between atoms: C_2  and  C_3
REMARK    3  A    between atoms: C_2  and  C_4
REMARK    4  A    between atoms: C_7  and  N_8
REMARK    5  A    between atoms: N_11  and  C_12
REMARK    6  A    between atoms: C_12  and  C_13
REMARK    7  A    between atoms: C_13  and  S_14
REMARK    8  A    between atoms: S_14  and  C_15
REMARK                            x       y       z     vdW  Elec       q    Type
REMARK                         _______ _______ _______ _____ _____    ______ ____
ROOT
ATOM      1  N   UNL     1       5.471   4.039  17.395  0.00  0.00    +0.000 NA
ATOM      2  C   UNL     1       4.824   4.071  16.056  0.00  0.00    +0.000 C 
ATOM      3  C   UNL     1       5.086   5.334  15.183  0.00  0.00    +0.000 C 
ATOM      4  N   UNL     1       6.499   5.757  15.056  0.00  0.00    +0.000 NA
ATOM      5  C   UNL     1       7.060   5.805  16.428  0.00  0.00    +0.000 C 
ATOM      6  C   UNL     1       6.882   4.478  17.209  0.00  0.00    +0.000 C 
ENDROOT
BRANCH   1  10
ATOM      7  C   UNL     1       2.079   3.323  19.056  0.00  0.00    +0.000 C 
ATOM      8  C   UNL     1       2.162   4.405  17.959  0.00  0.00    +0.000 C 
ATOM      9  C   UNL     1       3.354   5.384  18.004  0.00  0.00    +0.000 C 
ATOM     10  C   UNL     1       4.737   4.809  18.434  0.00  0.00    +0.000 C 
ATOM     11  C   UNL     1       4.457   3.983  19.701  0.00  0.00    +0.000 C 
ATOM     12  C   UNL     1       3.483   2.833  19.436  0.00  0.00    +0.000 C 
BRANCH   7  14
ATOM     13  C   UNL     1       1.479   2.730  21.559  0.00  0.00    +0.000 C 
ATOM     14  C   UNL     1       1.188   3.575  20.320  0.00  0.00    +0.000 C 
ATOM     15  C   UNL     1       1.113   5.047  20.735  0.00  0.00    +0.000 C 
ENDBRANCH   7  14
ENDBRANCH   1  10
BRANCH   4  16
ATOM     16  C   UNL     1       7.324   4.869  14.206  0.00  0.00    +0.000 C 
BRANCH  16  17
ATOM     17  C   UNL     1       6.622   3.586  13.773  0.00  0.00    +0.000 C 
BRANCH  17  18
ATOM     18  S   UNL     1       6.529   3.512  11.990  0.00  0.00    +0.000 S 
ATOM     19  C   UNL     1       4.778   3.549  11.700  0.00  0.00    +0.000 C 
ATOM     20  O   UNL     1       7.096   4.725  11.449  0.00  0.00    +0.000 OA
ATOM     21  O   UNL     1       7.005   2.208  11.567  0.00  0.00    +0.000 OA
ENDBRANCH  17  18
ENDBRANCH  16  17
ENDBRANCH   4  16
TORSDOF 5
ENDMDL
MODEL 2
REMARK VINA RESULT:      -6.0      0.840      1.017
REMARK  Name = 
REMARK  8 active torsions:
REMARK  status: ('A' for Active; 'I' for Inactive)
REMARK    1  A    between atoms: C_1  and  C_2
REMARK    2  A    between atoms: C_2  and  C_3
REMARK    3  A    between atoms: C_2  and  C_4
REMARK    4  A    between atoms: C_7  and  N_8
REMARK    5  A    between atoms: N_11  and  C_12
REMARK    6  A    between atoms: C_12  and  C_13
REMARK    7  A    between atoms: C_13  and  S_14
REMARK    8  A    between atoms: S_14  and  C_15
REMARK                            x       y       z     vdW  Elec       q    Type
REMARK                         _______ _______ _______ _____ _____    ______ ____
ROOT
ATOM      1  N   UNL     1       5.624   4.012  17.579  0.00  0.00    +0.000 NA
ATOM      2  C   UNL     1       4.863   4.030  16.301  0.00  0.00    +0.000 C 
ATOM      3  C   UNL     1       5.026   5.296  15.408  0.00  0.00    +0.000 C 
ATOM      4  N   UNL     1       6.415   5.741  15.158  0.00  0.00    +0.000 NA
ATOM      5  C   UNL     1       7.093   5.802  16.476  0.00  0.00    +0.000 C 
ATOM      6  C   UNL     1       7.006   4.473  17.271  0.00  0.00    +0.000 C 
ENDROOT
BRANCH   1  10
ATOM      7  C   UNL     1       2.086   3.672  19.045  0.00  0.00    +0.000 C 
ATOM      8  C   UNL     1       2.390   4.839  18.083  0.00  0.00    +0.000 C 
ATOM      9  C   UNL     1       3.716   5.604  18.275  0.00  0.00    +0.000 C 
ATOM     10  C   UNL     1       4.971   4.772  18.678  0.00  0.00    +0.000 C 
ATOM     11  C   UNL     1       4.505   3.868  19.832  0.00  0.00    +0.000 C 
ATOM     12  C   UNL     1       3.377   2.924  19.407  0.00  0.00    +0.000 C 
BRANCH   7  14
ATOM     13  C   UNL     1       1.299   2.926  21.453  0.00  0.00    +0.000 C 
ATOM     14  C   UNL     1       1.186   3.924  20.303  0.00  0.00    +0.000 C 
ATOM     15  C   UNL     1       1.306   5.342  20.867  0.00  0.00    +0.000 C 
ENDBRANCH   7  14
ENDBRANCH   1  10
BRANCH   4  16
ATOM     16  C   UNL     1       7.178   4.865  14.240  0.00  0.00    +0.000 C 
BRANCH  16  17
ATOM     17  C   UNL     1       6.454   3.580  13.855  0.00  0.00    +0.000 C 
BRANCH  17  18
ATOM     18  S   UNL     1       6.317   3.465  12.077  0.00  0.00    +0.000 S 
ATOM     19  C   UNL     1       7.216   4.896  11.534  0.00  0.00    +0.000 C 
ATOM     20  O   UNL     1       7.037   2.292  11.635  0.00  0.00    +0.000 OA
ATOM     21  O   UNL     1       4.927   3.671  11.716  0.00  0.00    +0.000 OA
ENDBRANCH  17  18
ENDBRANCH  16  17
ENDBRANCH   4  16
TORSDOF 5
ENDMDL
MODEL 3
REMARK VINA RESULT:      -5.8      4.872      6.411
REMARK  Name = 
REMARK  8 active torsions:
REMARK  status: ('A' for Active; 'I' for Inactive)
REMARK    1  A    between atoms: C_1  and  C_2
REMARK    2  A    between atoms: C_2  and  C_3
REMARK    3  A    between atoms: C_2  and  C_4
REMARK    4  A    between atoms: C_7  and  N_8
REMARK    5  A    between atoms: N_11  and  C_12
REMARK    6  A    between atoms: C_12  and  C_13
REMARK    7  A    between atoms: C_13  and  S_14
REMARK    8  A    between atoms: S_14  and  C_15
REMARK                            x       y       z     vdW  Elec       q    Type
REMARK                         _______ _______ _______ _____ _____    ______ ____
ROOT
ATOM      1  N   UNL     1       1.738   7.474  19.095  0.00  0.00    +0.000 NA
ATOM      2  C   UNL     1       2.228   7.516  17.691  0.00  0.00    +0.000 C 
ATOM      3  C   UNL     1       3.736   7.200  17.467  0.00  0.00    +0.000 C 
ATOM      4  N   UNL     1       4.252   5.982  18.131  0.00  0.00    +0.000 NA
ATOM      5  C   UNL     1       3.821   6.047  19.548  0.00  0.00    +0.000 C 
ATOM      6  C   UNL     1       2.291   6.238  19.713  0.00  0.00    +0.000 C 
ENDROOT
BRANCH   1  10
ATOM      7  C   UNL     1      -0.676  10.004  20.693  0.00  0.00    +0.000 C 
ATOM      8  C   UNL     1       0.024  10.370  19.367  0.00  0.00    +0.000 C 
ATOM      9  C   UNL     1       1.525  10.042  19.232  0.00  0.00    +0.000 C 
ATOM     10  C   UNL     1       2.028   8.711  19.868  0.00  0.00    +0.000 C 
ATOM     11  C   UNL     1       1.425   8.684  21.283  0.00  0.00    +0.000 C 
ATOM     12  C   UNL     1      -0.105   8.696  21.259  0.00  0.00    +0.000 C 
BRANCH   7  14
ATOM     13  C   UNL     1      -1.864  12.203  21.545  0.00  0.00    +0.000 C 
ATOM     14  C   UNL     1      -0.843  11.096  21.803  0.00  0.00    +0.000 C 
ATOM     15  C   UNL     1      -1.085  10.519  23.200  0.00  0.00    +0.000 C 
ENDBRANCH   7  14
ENDBRANCH   1  10
BRANCH   4  16
ATOM     16  C   UNL     1       3.788   4.715  17.521  0.00  0.00    +0.000 C 
BRANCH  16  17
ATOM     17  C   UNL     1       4.386   3.461  18.149  0.00  0.00    +0.000 C 
BRANCH  17  18
ATOM     18  S   UNL     1       3.123   2.211  18.340  0.00  0.00    +0.000 S 
ATOM     19  C   UNL     1       2.507   2.540  19.972  0.00  0.00    +0.000 C 
ATOM     20  O   UNL     1       2.061   2.483  17.399  0.00  0.00    +0.000 OA
ATOM     21  O   UNL     1       3.773   0.914  18.381  0.00  0.00    +0.000 OA
ENDBRANCH  17  18
ENDBRANCH  16  17
ENDBRANCH   4  16
TORSDOF 5
ENDMDL
MODEL 4
REMARK VINA RESULT:      -5.8      4.988      6.373
REMARK  Name = 
REMARK  8 active torsions:
REMARK  status: ('A' for Active; 'I' for Inactive)
REMARK    1  A    between atoms: C_1  and  C_2
REMARK    2  A    between atoms: C_2  and  C_3
REMARK    3  A    between atoms: C_2  and  C_4
REMARK    4  A    between atoms: C_7  and  N_8
REMARK    5  A    between atoms: N_11  and  C_12
REMARK    6  A    between atoms: C_12  and  C_13
REMARK    7  A    between atoms: C_13  and  S_14
REMARK    8  A    between atoms: S_14  and  C_15
REMARK                            x       y       z     vdW  Elec       q    Type
REMARK                         _______ _______ _______ _____ _____    ______ ____
ROOT
ATOM      1  N   UNL     1       1.777   7.385  19.069  0.00  0.00    +0.000 NA
ATOM      2  C   UNL     1       2.269   7.384  17.665  0.00  0.00    +0.000 C 
ATOM      3  C   UNL     1       3.790   7.121  17.457  0.00  0.00    +0.000 C 
ATOM      4  N   UNL     1       4.353   5.956  18.176  0.00  0.00    +0.000 NA
ATOM      5  C   UNL     1       3.915   6.066  19.588  0.00  0.00    +0.000 C 
ATOM      6  C   UNL     1       2.378   6.201  19.743  0.00  0.00    +0.000 C 
ENDROOT
BRANCH   1  10
ATOM      7  C   UNL     1      -0.742   9.853  20.601  0.00  0.00    +0.000 C 
ATOM      8  C   UNL     1      -0.080  10.200  19.251  0.00  0.00    +0.000 C 
ATOM      9  C   UNL     1       1.435   9.943  19.106  0.00  0.00    +0.000 C 
ATOM     10  C   UNL     1       2.014   8.666  19.786  0.00  0.00    +0.000 C 
ATOM     11  C   UNL     1       1.432   8.667  21.211  0.00  0.00    +0.000 C 
ATOM     12  C   UNL     1      -0.096   8.601  21.211  0.00  0.00    +0.000 C 
BRANCH   7  14
ATOM     13  C   UNL     1      -0.981  10.556  23.136  0.00  0.00    +0.000 C 
ATOM     14  C   UNL     1      -0.949  10.981  21.669  0.00  0.00    +0.000 C 
ATOM     15  C   UNL     1       0.021  12.155  21.517  0.00  0.00    +0.000 C 
ENDBRANCH   7  14
ENDBRANCH   1  10
BRANCH   4  16
ATOM     16  C   UNL     1       3.943   4.645  17.622  0.00  0.00    +0.000 C 
BRANCH  16  17
ATOM     17  C   UNL     1       4.608   3.447  18.290  0.00  0.00    +0.000 C 
BRANCH  17  18
ATOM     18  S   UNL     1       3.365   2.324  18.911  0.00  0.00    +0.000 S 
ATOM     19  C   UNL     1       1.911   2.847  18.037  0.00  0.00    +0.000 C 
ATOM     20  O   UNL     1       3.692   0.987  18.472  0.00  0.00    +0.000 OA
ATOM     21  O   UNL     1       3.149   2.620  20.315  0.00  0.00    +0.000 OA
ENDBRANCH  17  18
ENDBRANCH  16  17
ENDBRANCH   4  16
TORSDOF 5
ENDMDL
MODEL 5
REMARK VINA RESULT:      -5.7      7.656      9.725
REMARK  Name = 
REMARK  8 active torsions:
REMARK  status: ('A' for Active; 'I' for Inactive)
REMARK    1  A    between atoms: C_1  and  C_2
REMARK    2  A    between atoms: C_2  and  C_3
REMARK    3  A    between atoms: C_2  and  C_4
REMARK    4  A    between atoms: C_7  and  N_8
REMARK    5  A    between atoms: N_11  and  C_12
REMARK    6  A    between atoms: C_12  and  C_13
REMARK    7  A    between atoms: C_13  and  S_14
REMARK    8  A    between atoms: S_14  and  C_15
REMARK                            x       y       z     vdW  Elec       q    Type
REMARK                         _______ _______ _______ _____ _____    ______ ____
ROOT
ATOM      1  N   UNL     1       1.948   8.212  19.968  0.00  0.00    +0.000 NA
ATOM      2  C   UNL     1       1.553   9.502  19.341  0.00  0.00    +0.000 C 
ATOM      3  C   UNL     1       0.044   9.881  19.414  0.00  0.00    +0.000 C 
ATOM      4  N   UNL     1      -0.593   9.767  20.745  0.00  0.00    +0.000 NA
ATOM      5  C   UNL     1      -0.249   8.425  21.274  0.00  0.00    +0.000 C 
ATOM      6  C   UNL     1       1.276   8.148  21.295  0.00  0.00    +0.000 C 
ENDROOT
BRANCH   1  10
ATOM      7  C   UNL     1       4.382   5.526  18.686  0.00  0.00    +0.000 C 
ATOM      8  C   UNL     1       3.914   6.636  17.721  0.00  0.00    +0.000 C 
ATOM      9  C   UNL     1       2.419   7.014  17.731  0.00  0.00    +0.000 C 
ATOM     10  C   UNL     1       1.692   7.025  19.110  0.00  0.00    +0.000 C 
ATOM     11  C   UNL     1       2.089   5.702  19.788  0.00  0.00    +0.000 C 
ATOM     12  C   UNL     1       3.600   5.596  20.005  0.00  0.00    +0.000 C 
BRANCH   7  14
ATOM     13  C   UNL     1       4.424   2.936  19.198  0.00  0.00    +0.000 C 
ATOM     14  C   UNL     1       4.514   4.055  18.163  0.00  0.00    +0.000 C 
ATOM     15  C   UNL     1       3.569   3.730  17.003  0.00  0.00    +0.000 C 
ENDBRANCH   7  14
ENDBRANCH   1  10
BRANCH   4  16
ATOM     16  C   UNL     1      -0.175  10.810  21.710  0.00  0.00    +0.000 C 
BRANCH  16  17
ATOM     17  C   UNL     1      -0.975  10.819  23.008  0.00  0.00    +0.000 C 
BRANCH  17  18
ATOM     18  S   UNL     1      -2.050  12.245  23.054  0.00  0.00    +0.000 S 
ATOM     19  C   UNL     1      -2.390  12.520  21.333  0.00  0.00    +0.000 C 
ATOM     20  O   UNL     1      -3.287  11.868  23.697  0.00  0.00    +0.000 OA
ATOM     21  O   UNL     1      -1.277  13.380  23.523  0.00  0.00    +0.000 OA
ENDBRANCH  17  18
ENDBRANCH  16  17
ENDBRANCH   4  16
TORSDOF 5
ENDMDL
MODEL 6
REMARK VINA RESULT:      -5.7      6.124      8.242
REMARK  Name = 
REMARK  8 active torsions:
REMARK  status: ('A' for Active; 'I' for Inactive)
REMARK    1  A    between atoms: C_1  and  C_2
REMARK    2  A    between atoms: C_2  and  C_3
REMARK    3  A    between atoms: C_2  and  C_4
REMARK    4  A    between atoms: C_7  and  N_8
REMARK    5  A    between atoms: N_11  and  C_12
REMARK    6  A    between atoms: C_12  and  C_13
REMARK    7  A    between atoms: C_13  and  S_14
REMARK    8  A    between atoms: S_14  and  C_15
REMARK                            x       y       z     vdW  Elec       q    Type
REMARK                         _______ _______ _______ _____ _____    ______ ____
ROOT
ATOM      1  N   UNL     1       2.571   6.963  18.327  0.00  0.00    +0.000 NA
ATOM      2  C   UNL     1       1.781   6.937  19.586  0.00  0.00    +0.000 C 
ATOM      3  C   UNL     1       1.702   8.269  20.390  0.00  0.00    +0.000 C 
ATOM      4  N   UNL     1       1.348   9.478  19.614  0.00  0.00    +0.000 NA
ATOM      5  C   UNL     1       2.237   9.504  18.427  0.00  0.00    +0.000 C 
ATOM      6  C   UNL     1       2.182   8.199  17.592  0.00  0.00    +0.000 C 
ENDROOT
BRANCH   1  10
ATOM      7  C   UNL     1       5.063   4.475  16.783  0.00  0.00    +0.000 C 
ATOM      8  C   UNL     1       4.585   4.254  18.234  0.00  0.00    +0.000 C 
ATOM      9  C   UNL     1       4.514   5.484  19.163  0.00  0.00    +0.000 C 
ATOM     10  C   UNL     1       4.037   6.829  18.536  0.00  0.00    +0.000 C 
ATOM     11  C   UNL     1       4.842   6.976  17.233  0.00  0.00    +0.000 C 
ATOM     12  C   UNL     1       4.572   5.830  16.256  0.00  0.00    +0.000 C 
BRANCH   7  14
ATOM     13  C   UNL     1       7.069   4.780  15.092  0.00  0.00    +0.000 C 
ATOM     14  C   UNL     1       6.566   4.219  16.421  0.00  0.00    +0.000 C 
ATOM     15  C   UNL     1       7.542   4.626  17.528  0.00  0.00    +0.000 C 
ENDBRANCH   7  14
ENDBRANCH   1  10
BRANCH   4  16
ATOM     16  C   UNL     1      -0.068   9.531  19.183  0.00  0.00    +0.000 C 
BRANCH  16  17
ATOM     17  C   UNL     1      -0.843  10.727  19.725  0.00  0.00    +0.000 C 
BRANCH  17  18
ATOM     18  S   UNL     1      -1.802  11.477  18.417  0.00  0.00    +0.000 S 
ATOM     19  C   UNL     1      -1.882  10.177  17.211  0.00  0.00    +0.000 C 
ATOM     20  O   UNL     1      -3.140  11.715  18.905  0.00  0.00    +0.000 OA
ATOM     21  O   UNL     1      -1.014  12.549  17.837  0.00  0.00    +0.000 OA
ENDBRANCH  17  18
ENDBRANCH  16  17
ENDBRANCH   4  16
TORSDOF 5
ENDMDL
MODEL 7
REMARK VINA RESULT:      -5.7      5.398      7.092
REMARK  Name = 
REMARK  8 active torsions:
REMARK  status: ('A' for Active; 'I' for Inactive)
REMARK    1  A    between atoms: C_1  and  C_2
REMARK    2  A    between atoms: C_2  and  C_3
REMARK    3  A    between atoms: C_2  and  C_4
REMARK    4  A    between atoms: C_7  and  N_8
REMARK    5  A    between atoms: N_11  and  C_12
REMARK    6  A    between atoms: C_12  and  C_13
REMARK    7  A    between atoms: C_13  and  S_14
REMARK    8  A    between atoms: S_14  and  C_15
REMARK                            x       y       z     vdW  Elec       q    Type
REMARK                         _______ _______ _______ _____ _____    ______ ____
ROOT
ATOM      1  N   UNL     1       2.143   8.183  19.611  0.00  0.00    +0.000 NA
ATOM      2  C   UNL     1       2.105   7.206  20.732  0.00  0.00    +0.000 C 
ATOM      3  C   UNL     1       1.748   5.735  20.366  0.00  0.00    +0.000 C 
ATOM      4  N   UNL     1       2.491   5.148  19.228  0.00  0.00    +0.000 NA
ATOM      5  C   UNL     1       2.407   6.119  18.111  0.00  0.00    +0.000 C 
ATOM      6  C   UNL     1       2.893   7.540  18.497  0.00  0.00    +0.000 C 
ENDROOT
BRANCH   1  10
ATOM      7  C   UNL     1       0.869  11.799  19.319  0.00  0.00    +0.000 C 
ATOM      8  C   UNL     1       0.460  10.957  20.547  0.00  0.00    +0.000 C 
ATOM      9  C   UNL     1       0.031   9.495  20.305  0.00  0.00    +0.000 C 
ATOM     10  C   UNL     1       0.803   8.692  19.215  0.00  0.00    +0.000 C 
ATOM     11  C   UNL     1       0.857   9.622  17.990  0.00  0.00    +0.000 C 
ATOM     12  C   UNL     1       1.599  10.927  18.288  0.00  0.00    +0.000 C 
BRANCH   7  14
ATOM     13  C   UNL     1      -1.571  12.152  18.372  0.00  0.00    +0.000 C 
ATOM     14  C   UNL     1      -0.188  12.739  18.644  0.00  0.00    +0.000 C 
ATOM     15  C   UNL     1      -0.355  14.084  19.356  0.00  0.00    +0.000 C 
ENDBRANCH   7  14
ENDBRANCH   1  10
BRANCH   4  16
ATOM     16  C   UNL     1       3.910   4.842  19.523  0.00  0.00    +0.000 C 
BRANCH  16  17
ATOM     17  C   UNL     1       4.739   4.473  18.298  0.00  0.00    +0.000 C 
BRANCH  17  18
ATOM     18  S   UNL     1       6.403   5.100  18.474  0.00  0.00    +0.000 S 
ATOM     19  C   UNL     1       6.337   6.616  17.553  0.00  0.00    +0.000 C 
ATOM     20  O   UNL     1       6.625   5.432  19.863  0.00  0.00    +0.000 OA
ATOM     21  O   UNL     1       7.300   4.208  17.765  0.00  0.00    +0.000 OA
ENDBRANCH  17  18
ENDBRANCH  16  17
ENDBRANCH   4  16
TORSDOF 5
ENDMDL
MODEL 8
REMARK VINA RESULT:      -5.7      8.231     10.506
REMARK  Name = 
REMARK  8 active torsions:
REMARK  status: ('A' for Active; 'I' for Inactive)
REMARK    1  A    between atoms: C_1  and  C_2
REMARK    2  A    between atoms: C_2  and  C_3
REMARK    3  A    between atoms: C_2  and  C_4
REMARK    4  A    between atoms: C_7  and  N_8
REMARK    5  A    between atoms: N_11  and  C_12
REMARK    6  A    between atoms: C_12  and  C_13
REMARK    7  A    between atoms: C_13  and  S_14
REMARK    8  A    between atoms: S_14  and  C_15
REMARK                            x       y       z     vdW  Elec       q    Type
REMARK                         _______ _______ _______ _____ _____    ______ ____
ROOT
ATOM      1  N   UNL     1       0.560   8.462  20.297  0.00  0.00    +0.000 NA
ATOM      2  C   UNL     1      -0.164   8.352  21.591  0.00  0.00    +0.000 C 
ATOM      3  C   UNL     1       0.187   9.407  22.681  0.00  0.00    +0.000 C 
ATOM      4  N   UNL     1       0.195  10.820  22.241  0.00  0.00    +0.000 NA
ATOM      5  C   UNL     1       1.014  10.884  21.008  0.00  0.00    +0.000 C 
ATOM      6  C   UNL     1       0.542   9.899  19.907  0.00  0.00    +0.000 C 
ENDROOT
BRANCH   1  10
ATOM      7  C   UNL     1       1.943   5.408  18.415  0.00  0.00    +0.000 C 
ATOM      8  C   UNL     1       1.587   5.269  19.911  0.00  0.00    +0.000 C 
ATOM      9  C   UNL     1       2.016   6.406  20.860  0.00  0.00    +0.000 C 
ATOM     10  C   UNL     1       1.922   7.865  20.319  0.00  0.00    +0.000 C 
ATOM     11  C   UNL     1       2.577   7.824  18.928  0.00  0.00    +0.000 C 
ATOM     12  C   UNL     1       1.849   6.875  17.974  0.00  0.00    +0.000 C 
BRANCH   7  14
ATOM     13  C   UNL     1       4.407   4.553  18.830  0.00  0.00    +0.000 C 
ATOM     14  C   UNL     1       3.235   4.715  17.864  0.00  0.00    +0.000 C 
ATOM     15  C   UNL     1       2.968   3.369  17.184  0.00  0.00    +0.000 C 
ENDBRANCH   7  14
ENDBRANCH   1  10
BRANCH   4  16
ATOM     16  C   UNL     1      -1.151  11.382  21.982  0.00  0.00    +0.000 C 
BRANCH  16  17
ATOM     17  C   UNL     1      -1.483  12.620  22.807  0.00  0.00    +0.000 C 
BRANCH  17  18
ATOM     18  S   UNL     1      -3.252  12.764  23.009  0.00  0.00    +0.000 S 
ATOM     19  C   UNL     1      -3.426  14.395  23.688  0.00  0.00    +0.000 C 
ATOM     20  O   UNL     1      -3.867  12.758  21.701  0.00  0.00    +0.000 OA
ATOM     21  O   UNL     1      -3.668  11.827  24.036  0.00  0.00    +0.000 OA
ENDBRANCH  17  18
ENDBRANCH  16  17
ENDBRANCH   4  16
TORSDOF 5
ENDMDL
MODEL 9
REMARK VINA RESULT:      -5.6      6.662      8.384
REMARK  Name = 
REMARK  8 active torsions:
REMARK  status: ('A' for Active; 'I' for Inactive)
REMARK    1  A    between atoms: C_1  and  C_2
REMARK    2  A    between atoms: C_2  and  C_3
REMARK    3  A    between atoms: C_2  and  C_4
REMARK    4  A    between atoms: C_7  and  N_8
REMARK    5  A    between atoms: N_11  and  C_12
REMARK    6  A    between atoms: C_12  and  C_13
REMARK    7  A    between atoms: C_13  and  S_14
REMARK    8  A    between atoms: S_14  and  C_15
REMARK                            x       y       z     vdW  Elec       q    Type
REMARK                         _______ _______ _______ _____ _____    ______ ____
ROOT
ATOM      1  N   UNL     1       2.388   7.649  19.418  0.00  0.00    +0.000 NA
ATOM      2  C   UNL     1       2.298   8.528  18.222  0.00  0.00    +0.000 C 
ATOM      3  C   UNL     1       0.930   9.227  17.969  0.00  0.00    +0.000 C 
ATOM      4  N   UNL     1       0.326   9.917  19.131  0.00  0.00    +0.000 NA
ATOM      5  C   UNL     1       0.350   8.958  20.262  0.00  0.00    +0.000 C 
ATOM      6  C   UNL     1       1.763   8.387  20.550  0.00  0.00    +0.000 C 
ENDROOT
BRANCH   1  10
ATOM      7  C   UNL     1       4.173   4.341  18.614  0.00  0.00    +0.000 C 
ATOM      8  C   UNL     1       3.440   5.091  17.482  0.00  0.00    +0.000 C 
ATOM      9  C   UNL     1       2.046   5.675  17.792  0.00  0.00    +0.000 C 
ATOM     10  C   UNL     1       1.825   6.289  19.207  0.00  0.00    +0.000 C 
ATOM     11  C   UNL     1       2.389   5.251  20.192  0.00  0.00    +0.000 C 
ATOM     12  C   UNL     1       3.881   4.996  19.970  0.00  0.00    +0.000 C 
BRANCH   7  14
ATOM     13  C   UNL     1       4.341   2.128  20.046  0.00  0.00    +0.000 C 
ATOM     14  C   UNL     1       4.080   2.778  18.688  0.00  0.00    +0.000 C 
ATOM     15  C   UNL     1       2.778   2.213  18.114  0.00  0.00    +0.000 C 
ENDBRANCH   7  14
ENDBRANCH   1  10
BRANCH   4  16
ATOM     16  C   UNL     1       1.014  11.169  19.518  0.00  0.00    +0.000 C 
BRANCH  16  17
ATOM     17  C   UNL     1       0.208  12.064  20.454  0.00  0.00    +0.000 C 
BRANCH  17  18
ATOM     18  S   UNL     1      -0.865  13.132  19.506  0.00  0.00    +0.000 S 
ATOM     19  C   UNL     1      -2.403  12.245  19.534  0.00  0.00    +0.000 C 
ATOM     20  O   UNL     1      -1.049  14.365  20.236  0.00  0.00    +0.000 OA
ATOM     21  O   UNL     1      -0.400  13.136  18.132  0.00  0.00    +0.000 OA
ENDBRANCH  17  18
ENDBRANCH  16  17
ENDBRANCH   4  16
TORSDOF 5
ENDMDL
