MODEL 1
REMARK VINA RESULT:      -8.1      0.000      0.000
REMARK  Name = 
REMARK  8 active torsions:
REMARK  status: ('A' for Active; 'I' for Inactive)
REMARK    1  A    between atoms: C_1  and  O_2
REMARK    2  A    between atoms: O_2  and  C_3
REMARK    3  A    between atoms: C_8  and  N_9
REMARK    4  A    between atoms: C_13  and  C_15
REMARK    5  A    between atoms: N_17  and  C_18
REMARK    6  A    between atoms: C_18  and  C_19
REMARK    7  A    between atoms: C_18  and  C_20
REMARK    8  A    between atoms: C_22  and  C_23
REMARK                            x       y       z     vdW  Elec       q    Type
REMARK                         _______ _______ _______ _____ _____    ______ ____
ROOT
ATOM      1  N   UNL     1       1.722   8.526  19.248  0.00  0.00    +0.000 N 
ATOM      2  C   UNL     1       2.035   7.535  20.288  0.00  0.00    +0.000 C 
ATOM      3  C   UNL     1       2.159   6.141  19.647  0.00  0.00    +0.000 C 
ATOM      4  N   UNL     1       3.067   6.135  18.489  0.00  0.00    +0.000 N 
ATOM      5  C   UNL     1       3.907   5.047  18.331  0.00  0.00    +0.000 C 
ATOM      6  O   UNL     1       3.886   4.100  19.133  0.00  0.00    +0.000 OA
ATOM      7  C   UNL     1       2.790   7.190  17.488  0.00  0.00    +0.000 C 
ATOM      8  C   UNL     1       2.670   8.581  18.133  0.00  0.00    +0.000 C 
ENDROOT
BRANCH   1  14
ATOM      9  C   UNL     1       0.352  10.106  20.584  0.00  0.00    +0.000 A 
ATOM     10  C   UNL     1      -0.681  11.038  20.620  0.00  0.00    +0.000 A 
ATOM     11  C   UNL     1      -1.401  11.363  19.475  0.00  0.00    +0.000 A 
ATOM     12  C   UNL     1      -1.090  10.734  18.282  0.00  0.00    +0.000 A 
ATOM     13  C   UNL     1      -0.052   9.801  18.232  0.00  0.00    +0.000 A 
ATOM     14  C   UNL     1       0.702   9.452  19.369  0.00  0.00    +0.000 A 
BRANCH   9  16
ATOM     15  C   UNL     1       0.235   9.520  22.876  0.00  0.00    +0.000 C 
ATOM     16  O   UNL     1       1.049   9.823  21.742  0.00  0.00    +0.000 OA
ENDBRANCH   9  16
ENDBRANCH   1  14
BRANCH   5  17
ATOM     17  C   UNL     1       4.874   5.042  17.168  0.00  0.00    +0.000 C 
ATOM     18  C   UNL     1       4.645   3.870  16.238  0.00  0.00    +0.000 C 
ATOM     19  N   UNL     1       5.910   3.700  15.496  0.00  0.00    +0.000 NA
ATOM     20  C   UNL     1       6.974   4.095  16.451  0.00  0.00    +0.000 C 
ATOM     21  C   UNL     1       6.339   4.911  17.599  0.00  0.00    +0.000 C 
BRANCH  21  22
ATOM     22  C   UNL     1       7.050   6.233  17.878  0.00  0.00    +0.000 A 
ATOM     23  C   UNL     1       8.009   6.376  18.892  0.00  0.00    +0.000 A 
ATOM     24  C   UNL     1       8.620   7.603  19.142  0.00  0.00    +0.000 A 
ATOM     25  C   UNL     1       8.296   8.705  18.366  0.00  0.00    +0.000 A 
ATOM     26 CL   UNL     1       9.028  10.225  18.697  0.00  0.00    +0.000 Cl
ATOM     27  C   UNL     1       7.378   8.585  17.325  0.00  0.00    +0.000 A 
ATOM     28  C   UNL     1       6.763   7.355  17.078  0.00  0.00    +0.000 A 
ENDBRANCH  21  22
BRANCH  19  29
ATOM     29  C   UNL     1       5.944   4.440  14.215  0.00  0.00    +0.000 C 
ATOM     30  C   UNL     1       7.300   5.123  13.964  0.00  0.00    +0.000 C 
ATOM     31  C   UNL     1       5.711   3.489  13.025  0.00  0.00    +0.000 C 
ENDBRANCH  19  29
ENDBRANCH   5  17
TORSDOF 5
ENDMDL
MODEL 2
REMARK VINA RESULT:      -7.7      0.971      1.074
REMARK  Name = 
REMARK  8 active torsions:
REMARK  status: ('A' for Active; 'I' for Inactive)
REMARK    1  A    between atoms: C_1  and  O_2
REMARK    2  A    between atoms: O_2  and  C_3
REMARK    3  A    between atoms: C_8  and  N_9
REMARK    4  A    between atoms: C_13  and  C_15
REMARK    5  A    between atoms: N_17  and  C_18
REMARK    6  A    between atoms: C_18  and  C_19
REMARK    7  A    between atoms: C_18  and  C_20
REMARK    8  A    between atoms: C_22  and  C_23
REMARK                            x       y       z     vdW  Elec       q    Type
REMARK                         _______ _______ _______ _____ _____    ______ ____
ROOT
ATOM      1  N   UNL     1       1.457   9.101  18.898  0.00  0.00    +0.000 N 
ATOM      2  C   UNL     1       1.812   8.308  20.085  0.00  0.00    +0.000 C 
ATOM      3  C   UNL     1       1.982   6.832  19.684  0.00  0.00    +0.000 C 
ATOM      4  N   UNL     1       2.883   6.665  18.532  0.00  0.00    +0.000 N 
ATOM      5  C   UNL     1       3.761   5.595  18.547  0.00  0.00    +0.000 C 
ATOM      6  O   UNL     1       3.778   4.794  19.496  0.00  0.00    +0.000 OA
ATOM      7  C   UNL     1       2.563   7.528  17.373  0.00  0.00    +0.000 C 
ATOM      8  C   UNL     1       2.397   9.002  17.780  0.00  0.00    +0.000 C 
ENDROOT
BRANCH   1  14
ATOM      9  C   UNL     1       0.371  11.212  19.618  0.00  0.00    +0.000 A 
ATOM     10  C   UNL     1      -0.722  12.071  19.529  0.00  0.00    +0.000 A 
ATOM     11  C   UNL     1      -1.810  11.773  18.715  0.00  0.00    +0.000 A 
ATOM     12  C   UNL     1      -1.808  10.594  17.991  0.00  0.00    +0.000 A 
ATOM     13  C   UNL     1      -0.715   9.727  18.067  0.00  0.00    +0.000 A 
ATOM     14  C   UNL     1       0.406   9.998  18.876  0.00  0.00    +0.000 A 
BRANCH   9  16
ATOM     15  C   UNL     1       1.555  12.948  20.710  0.00  0.00    +0.000 C 
ATOM     16  O   UNL     1       1.435  11.553  20.429  0.00  0.00    +0.000 OA
ENDBRANCH   9  16
ENDBRANCH   1  14
BRANCH   5  17
ATOM     17  C   UNL     1       4.721   5.430  17.391  0.00  0.00    +0.000 C 
ATOM     18  C   UNL     1       4.407   4.208  16.555  0.00  0.00    +0.000 C 
ATOM     19  N   UNL     1       5.654   3.891  15.832  0.00  0.00    +0.000 NA
ATOM     20  C   UNL     1       6.746   4.284  16.755  0.00  0.00    +0.000 C 
ATOM     21  C   UNL     1       6.175   5.230  17.834  0.00  0.00    +0.000 C 
BRANCH  21  22
ATOM     22  C   UNL     1       6.978   6.516  18.009  0.00  0.00    +0.000 A 
ATOM     23  C   UNL     1       8.046   6.623  18.913  0.00  0.00    +0.000 A 
ATOM     24  C   UNL     1       8.742   7.820  19.073  0.00  0.00    +0.000 A 
ATOM     25  C   UNL     1       8.394   8.925  18.313  0.00  0.00    +0.000 A 
ATOM     26 CL   UNL     1       9.235  10.409  18.534  0.00  0.00    +0.000 Cl
ATOM     27  C   UNL     1       7.366   8.839  17.377  0.00  0.00    +0.000 A 
ATOM     28  C   UNL     1       6.666   7.640  17.221  0.00  0.00    +0.000 A 
ENDBRANCH  21  22
BRANCH  19  29
ATOM     29  C   UNL     1       5.736   4.523  14.497  0.00  0.00    +0.000 C 
ATOM     30  C   UNL     1       7.144   5.060  14.184  0.00  0.00    +0.000 C 
ATOM     31  C   UNL     1       5.404   3.508  13.386  0.00  0.00    +0.000 C 
ENDBRANCH  19  29
ENDBRANCH   5  17
TORSDOF 5
ENDMDL
MODEL 3
REMARK VINA RESULT:      -7.4      2.933      4.887
REMARK  Name = 
REMARK  8 active torsions:
REMARK  status: ('A' for Active; 'I' for Inactive)
REMARK    1  A    between atoms: C_1  and  O_2
REMARK    2  A    between atoms: O_2  and  C_3
REMARK    3  A    between atoms: C_8  and  N_9
REMARK    4  A    between atoms: C_13  and  C_15
REMARK    5  A    between atoms: N_17  and  C_18
REMARK    6  A    between atoms: C_18  and  C_19
REMARK    7  A    between atoms: C_18  and  C_20
REMARK    8  A    between atoms: C_22  and  C_23
REMARK                            x       y       z     vdW  Elec       q    Type
REMARK                         _______ _______ _______ _____ _____    ______ ____
ROOT
ATOM      1  N   UNL     1       0.026  10.406  20.486  0.00  0.00    +0.000 N 
ATOM      2  C   UNL     1       0.095  10.602  19.031  0.00  0.00    +0.000 C 
ATOM      3  C   UNL     1       1.444  10.080  18.505  0.00  0.00    +0.000 C 
ATOM      4  N   UNL     1       1.731   8.711  18.963  0.00  0.00    +0.000 N 
ATOM      5  C   UNL     1       2.321   7.839  18.065  0.00  0.00    +0.000 C 
ATOM      6  O   UNL     1       2.610   8.203  16.914  0.00  0.00    +0.000 OA
ATOM      7  C   UNL     1       1.579   8.507  20.422  0.00  0.00    +0.000 C 
ATOM      8  C   UNL     1       0.229   9.029  20.939  0.00  0.00    +0.000 C 
ENDROOT
BRANCH   1  14
ATOM      9  C   UNL     1       0.095  12.752  21.291  0.00  0.00    +0.000 A 
ATOM     10  C   UNL     1      -0.346  13.702  22.209  0.00  0.00    +0.000 A 
ATOM     11  C   UNL     1      -1.238  13.367  23.222  0.00  0.00    +0.000 A 
ATOM     12  C   UNL     1      -1.682  12.061  23.325  0.00  0.00    +0.000 A 
ATOM     13  C   UNL     1      -1.251  11.100  22.407  0.00  0.00    +0.000 A 
ATOM     14  C   UNL     1      -0.353  11.403  21.365  0.00  0.00    +0.000 A 
BRANCH   9  16
ATOM     15  C   UNL     1       2.315  13.353  20.724  0.00  0.00    +0.000 C 
ATOM     16  O   UNL     1       0.971  13.131  20.294  0.00  0.00    +0.000 OA
ENDBRANCH   9  16
ENDBRANCH   1  14
BRANCH   5  17
ATOM     17  C   UNL     1       2.587   6.416  18.504  0.00  0.00    +0.000 C 
ATOM     18  C   UNL     1       2.086   6.147  19.907  0.00  0.00    +0.000 C 
ATOM     19  N   UNL     1       2.836   4.965  20.376  0.00  0.00    +0.000 NA
ATOM     20  C   UNL     1       4.169   5.075  19.735  0.00  0.00    +0.000 C 
ATOM     21  C   UNL     1       4.078   6.065  18.554  0.00  0.00    +0.000 C 
BRANCH  21  22
ATOM     22  C   UNL     1       4.656   5.520  17.250  0.00  0.00    +0.000 A 
ATOM     23  C   UNL     1       5.144   6.355  16.233  0.00  0.00    +0.000 A 
ATOM     24  C   UNL     1       5.639   5.829  15.041  0.00  0.00    +0.000 A 
ATOM     25  C   UNL     1       5.674   4.456  14.857  0.00  0.00    +0.000 A 
ATOM     26 CL   UNL     1       6.258   3.810  13.373  0.00  0.00    +0.000 Cl
ATOM     27  C   UNL     1       5.237   3.600  15.865  0.00  0.00    +0.000 A 
ATOM     28  C   UNL     1       4.736   4.129  17.057  0.00  0.00    +0.000 A 
ENDBRANCH  21  22
BRANCH  19  29
ATOM     29  C   UNL     1       2.142   3.686  20.109  0.00  0.00    +0.000 C 
ATOM     30  C   UNL     1       3.118   2.546  19.764  0.00  0.00    +0.000 C 
ATOM     31  C   UNL     1       1.353   3.219  21.347  0.00  0.00    +0.000 C 
ENDBRANCH  19  29
ENDBRANCH   5  17
TORSDOF 5
ENDMDL
MODEL 4
REMARK VINA RESULT:      -7.4      3.308      9.238
REMARK  Name = 
REMARK  8 active torsions:
REMARK  status: ('A' for Active; 'I' for Inactive)
REMARK    1  A    between atoms: C_1  and  O_2
REMARK    2  A    between atoms: O_2  and  C_3
REMARK    3  A    between atoms: C_8  and  N_9
REMARK    4  A    between atoms: C_13  and  C_15
REMARK    5  A    between atoms: N_17  and  C_18
REMARK    6  A    between atoms: C_18  and  C_19
REMARK    7  A    between atoms: C_18  and  C_20
REMARK    8  A    between atoms: C_22  and  C_23
REMARK                            x       y       z     vdW  Elec       q    Type
REMARK                         _______ _______ _______ _____ _____    ______ ____
ROOT
ATOM      1  N   UNL     1       2.528   7.013  18.281  0.00  0.00    +0.000 N 
ATOM      2  C   UNL     1       1.661   6.654  19.414  0.00  0.00    +0.000 C 
ATOM      3  C   UNL     1       1.677   7.789  20.453  0.00  0.00    +0.000 C 
ATOM      4  N   UNL     1       1.401   9.104  19.851  0.00  0.00    +0.000 N 
ATOM      5  C   UNL     1       0.603   9.985  20.558  0.00  0.00    +0.000 C 
ATOM      6  O   UNL     1       0.144   9.681  21.671  0.00  0.00    +0.000 OA
ATOM      7  C   UNL     1       2.226   9.419  18.662  0.00  0.00    +0.000 C 
ATOM      8  C   UNL     1       2.204   8.282  17.627  0.00  0.00    +0.000 C 
ENDROOT
BRANCH   1  14
ATOM      9  C   UNL     1       3.243   4.798  17.421  0.00  0.00    +0.000 A 
ATOM     10  C   UNL     1       4.257   4.007  16.887  0.00  0.00    +0.000 A 
ATOM     11  C   UNL     1       5.532   4.519  16.667  0.00  0.00    +0.000 A 
ATOM     12  C   UNL     1       5.796   5.836  16.999  0.00  0.00    +0.000 A 
ATOM     13  C   UNL     1       4.786   6.641  17.530  0.00  0.00    +0.000 A 
ATOM     14  C   UNL     1       3.483   6.160  17.761  0.00  0.00    +0.000 A 
BRANCH   9  16
ATOM     15  C   UNL     1       1.983   2.891  18.041  0.00  0.00    +0.000 C 
ATOM     16  O   UNL     1       1.989   4.253  17.611  0.00  0.00    +0.000 OA
ENDBRANCH   9  16
ENDBRANCH   1  14
BRANCH   5  17
ATOM     17  C   UNL     1       0.276  11.325  19.938  0.00  0.00    +0.000 C 
ATOM     18  C   UNL     1       0.834  12.479  20.742  0.00  0.00    +0.000 C 
ATOM     19  N   UNL     1       0.041  13.659  20.344  0.00  0.00    +0.000 NA
ATOM     20  C   UNL     1      -1.315  13.133  20.056  0.00  0.00    +0.000 C 
ATOM     21  C   UNL     1      -1.228  11.605  19.854  0.00  0.00    +0.000 C 
BRANCH  21  22
ATOM     22  C   UNL     1      -1.906  11.114  18.577  0.00  0.00    +0.000 A 
ATOM     23  C   UNL     1      -1.323  10.156  17.733  0.00  0.00    +0.000 A 
ATOM     24  C   UNL     1      -1.952   9.749  16.558  0.00  0.00    +0.000 A 
ATOM     25  C   UNL     1      -3.188  10.278  16.220  0.00  0.00    +0.000 A 
ATOM     26 CL   UNL     1      -3.948   9.796  14.754  0.00  0.00    +0.000 Cl
ATOM     27  C   UNL     1      -3.811  11.198  17.059  0.00  0.00    +0.000 A 
ATOM     28  C   UNL     1      -3.177  11.609  18.234  0.00  0.00    +0.000 A 
ENDBRANCH  21  22
BRANCH  19  29
ATOM     29  C   UNL     1       0.642  14.421  19.228  0.00  0.00    +0.000 C 
ATOM     30  C   UNL     1      -0.152  15.695  18.887  0.00  0.00    +0.000 C 
ATOM     31  C   UNL     1       2.068  14.884  19.584  0.00  0.00    +0.000 C 
ENDBRANCH  19  29
ENDBRANCH   5  17
TORSDOF 5
ENDMDL
MODEL 5
REMARK VINA RESULT:      -7.2      2.831      4.641
REMARK  Name = 
REMARK  8 active torsions:
REMARK  status: ('A' for Active; 'I' for Inactive)
REMARK    1  A    between atoms: C_1  and  O_2
REMARK    2  A    between atoms: O_2  and  C_3
REMARK    3  A    between atoms: C_8  and  N_9
REMARK    4  A    between atoms: C_13  and  C_15
REMARK    5  A    between atoms: N_17  and  C_18
REMARK    6  A    between atoms: C_18  and  C_19
REMARK    7  A    between atoms: C_18  and  C_20
REMARK    8  A    between atoms: C_22  and  C_23
REMARK                            x       y       z     vdW  Elec       q    Type
REMARK                         _______ _______ _______ _____ _____    ______ ____
ROOT
ATOM      1  N   UNL     1      -0.284  10.307  19.978  0.00  0.00    +0.000 N 
ATOM      2  C   UNL     1       0.111  10.590  18.590  0.00  0.00    +0.000 C 
ATOM      3  C   UNL     1       1.554  10.109  18.359  0.00  0.00    +0.000 C 
ATOM      4  N   UNL     1       1.757   8.717  18.792  0.00  0.00    +0.000 N 
ATOM      5  C   UNL     1       2.554   7.904  18.005  0.00  0.00    +0.000 C 
ATOM      6  O   UNL     1       3.090   8.338  16.974  0.00  0.00    +0.000 OA
ATOM      7  C   UNL     1       1.282   8.427  20.164  0.00  0.00    +0.000 C 
ATOM      8  C   UNL     1      -0.162   8.907  20.388  0.00  0.00    +0.000 C 
ENDROOT
BRANCH   1  14
ATOM      9  C   UNL     1      -0.549  11.430  22.175  0.00  0.00    +0.000 A 
ATOM     10  C   UNL     1      -1.180  12.413  22.934  0.00  0.00    +0.000 A 
ATOM     11  C   UNL     1      -2.143  13.247  22.377  0.00  0.00    +0.000 A 
ATOM     12  C   UNL     1      -2.487  13.086  21.046  0.00  0.00    +0.000 A 
ATOM     13  C   UNL     1      -1.857  12.108  20.273  0.00  0.00    +0.000 A 
ATOM     14  C   UNL     1      -0.874  11.248  20.801  0.00  0.00    +0.000 A 
BRANCH   9  16
ATOM     15  C   UNL     1      -0.101   9.582  23.587  0.00  0.00    +0.000 C 
ATOM     16  O   UNL     1       0.411  10.632  22.765  0.00  0.00    +0.000 OA
ENDBRANCH   9  16
ENDBRANCH   1  14
BRANCH   5  17
ATOM     17  C   UNL     1       2.742   6.460  18.414  0.00  0.00    +0.000 C 
ATOM     18  C   UNL     1       2.229   6.189  19.812  0.00  0.00    +0.000 C 
ATOM     19  N   UNL     1       2.914   4.958  20.253  0.00  0.00    +0.000 NA
ATOM     20  C   UNL     1       4.250   5.008  19.611  0.00  0.00    +0.000 C 
ATOM     21  C   UNL     1       4.211   6.026  18.451  0.00  0.00    +0.000 C 
BRANCH  21  22
ATOM     22  C   UNL     1       4.755   5.478  17.135  0.00  0.00    +0.000 A 
ATOM     23  C   UNL     1       5.253   6.308  16.118  0.00  0.00    +0.000 A 
ATOM     24  C   UNL     1       5.716   5.780  14.915  0.00  0.00    +0.000 A 
ATOM     25  C   UNL     1       5.710   4.409  14.717  0.00  0.00    +0.000 A 
ATOM     26 CL   UNL     1       6.255   3.762  13.219  0.00  0.00    +0.000 Cl
ATOM     27  C   UNL     1       5.262   3.556  15.723  0.00  0.00    +0.000 A 
ATOM     28  C   UNL     1       4.794   4.087  16.927  0.00  0.00    +0.000 A 
ENDBRANCH  21  22
BRANCH  19  29
ATOM     29  C   UNL     1       2.150   3.725  19.962  0.00  0.00    +0.000 C 
ATOM     30  C   UNL     1       3.063   2.530  19.631  0.00  0.00    +0.000 C 
ATOM     31  C   UNL     1       1.306   3.300  21.179  0.00  0.00    +0.000 C 
ENDBRANCH  19  29
ENDBRANCH   5  17
TORSDOF 5
ENDMDL
MODEL 6
REMARK VINA RESULT:      -7.1      1.015      1.899
REMARK  Name = 
REMARK  8 active torsions:
REMARK  status: ('A' for Active; 'I' for Inactive)
REMARK    1  A    between atoms: C_1  and  O_2
REMARK    2  A    between atoms: O_2  and  C_3
REMARK    3  A    between atoms: C_8  and  N_9
REMARK    4  A    between atoms: C_13  and  C_15
REMARK    5  A    between atoms: N_17  and  C_18
REMARK    6  A    between atoms: C_18  and  C_19
REMARK    7  A    between atoms: C_18  and  C_20
REMARK    8  A    between atoms: C_22  and  C_23
REMARK                            x       y       z     vdW  Elec       q    Type
REMARK                         _______ _______ _______ _____ _____    ______ ____
ROOT
ATOM      1  N   UNL     1       1.711   8.847  19.443  0.00  0.00    +0.000 N 
ATOM      2  C   UNL     1       1.968   7.819  20.463  0.00  0.00    +0.000 C 
ATOM      3  C   UNL     1       1.972   6.429  19.802  0.00  0.00    +0.000 C 
ATOM      4  N   UNL     1       2.853   6.372  18.625  0.00  0.00    +0.000 N 
ATOM      5  C   UNL     1       3.604   5.225  18.434  0.00  0.00    +0.000 C 
ATOM      6  O   UNL     1       3.527   4.271  19.224  0.00  0.00    +0.000 OA
ATOM      7  C   UNL     1       2.638   7.460  17.644  0.00  0.00    +0.000 C 
ATOM      8  C   UNL     1       2.638   8.845  18.310  0.00  0.00    +0.000 C 
ENDROOT
BRANCH   1  14
ATOM      9  C   UNL     1      -0.267  10.126  18.663  0.00  0.00    +0.000 A 
ATOM     10  C   UNL     1      -1.189  11.142  18.901  0.00  0.00    +0.000 A 
ATOM     11  C   UNL     1      -1.131  11.912  20.058  0.00  0.00    +0.000 A 
ATOM     12  C   UNL     1      -0.128  11.670  20.980  0.00  0.00    +0.000 A 
ATOM     13  C   UNL     1       0.799  10.650  20.756  0.00  0.00    +0.000 A 
ATOM     14  C   UNL     1       0.768   9.845  19.599  0.00  0.00    +0.000 A 
BRANCH   9  16
ATOM     15  C   UNL     1      -1.567   9.586  16.758  0.00  0.00    +0.000 C 
ATOM     16  O   UNL     1      -0.369   9.377  17.507  0.00  0.00    +0.000 OA
ENDBRANCH   9  16
ENDBRANCH   1  14
BRANCH   5  17
ATOM     17  C   UNL     1       4.545   5.163  17.252  0.00  0.00    +0.000 C 
ATOM     18  C   UNL     1       4.247   3.990  16.343  0.00  0.00    +0.000 C 
ATOM     19  N   UNL     1       5.487   3.757  15.577  0.00  0.00    +0.000 NA
ATOM     20  C   UNL     1       6.587   4.120  16.504  0.00  0.00    +0.000 C 
ATOM     21  C   UNL     1       6.012   4.977  17.652  0.00  0.00    +0.000 C 
BRANCH  21  22
ATOM     22  C   UNL     1       6.783   6.271  17.898  0.00  0.00    +0.000 A 
ATOM     23  C   UNL     1       6.492   7.465  17.219  0.00  0.00    +0.000 A 
ATOM     24  C   UNL     1       7.233   8.623  17.443  0.00  0.00    +0.000 A 
ATOM     25  C   UNL     1       8.265   8.613  18.368  0.00  0.00    +0.000 A 
ATOM     26 CL   UNL     1       9.197  10.037  18.620  0.00  0.00    +0.000 Cl
ATOM     27  C   UNL     1       8.551   7.456  19.088  0.00  0.00    +0.000 A 
ATOM     28  C   UNL     1       7.811   6.293  18.860  0.00  0.00    +0.000 A 
ENDBRANCH  21  22
BRANCH  19  29
ATOM     29  C   UNL     1       5.523   4.477  14.286  0.00  0.00    +0.000 C 
ATOM     30  C   UNL     1       6.911   5.071  13.980  0.00  0.00    +0.000 C 
ATOM     31  C   UNL     1       5.193   3.528  13.117  0.00  0.00    +0.000 C 
ENDBRANCH  19  29
ENDBRANCH   5  17
TORSDOF 5
ENDMDL
MODEL 7
REMARK VINA RESULT:      -7.0      1.108      1.763
REMARK  Name = 
REMARK  8 active torsions:
REMARK  status: ('A' for Active; 'I' for Inactive)
REMARK    1  A    between atoms: C_1  and  O_2
REMARK    2  A    between atoms: O_2  and  C_3
REMARK    3  A    between atoms: C_8  and  N_9
REMARK    4  A    between atoms: C_13  and  C_15
REMARK    5  A    between atoms: N_17  and  C_18
REMARK    6  A    between atoms: C_18  and  C_19
REMARK    7  A    between atoms: C_18  and  C_20
REMARK    8  A    between atoms: C_22  and  C_23
REMARK                            x       y       z     vdW  Elec       q    Type
REMARK                         _______ _______ _______ _____ _____    ______ ____
ROOT
ATOM      1  N   UNL     1       1.953   8.522  19.351  0.00  0.00    +0.000 N 
ATOM      2  C   UNL     1       2.133   7.404  20.289  0.00  0.00    +0.000 C 
ATOM      3  C   UNL     1       2.143   6.076  19.511  0.00  0.00    +0.000 C 
ATOM      4  N   UNL     1       3.085   6.097  18.381  0.00  0.00    +0.000 N 
ATOM      5  C   UNL     1       3.821   4.952  18.130  0.00  0.00    +0.000 C 
ATOM      6  O   UNL     1       3.680   3.935  18.829  0.00  0.00    +0.000 OA
ATOM      7  C   UNL     1       2.947   7.270  17.488  0.00  0.00    +0.000 C 
ATOM      8  C   UNL     1       2.940   8.593  18.272  0.00  0.00    +0.000 C 
ENDROOT
BRANCH   1  14
ATOM      9  C   UNL     1       1.065  10.793  18.894  0.00  0.00    +0.000 A 
ATOM     10  C   UNL     1       0.081  11.749  19.132  0.00  0.00    +0.000 A 
ATOM     11  C   UNL     1      -0.972  11.499  20.006  0.00  0.00    +0.000 A 
ATOM     12  C   UNL     1      -1.031  10.281  20.660  0.00  0.00    +0.000 A 
ATOM     13  C   UNL     1      -0.053   9.312  20.426  0.00  0.00    +0.000 A 
ATOM     14  C   UNL     1       1.024   9.527  19.543  0.00  0.00    +0.000 A 
BRANCH   9  16
ATOM     15  C   UNL     1       2.575  12.419  18.066  0.00  0.00    +0.000 C 
ATOM     16  O   UNL     1       2.085  11.079  18.009  0.00  0.00    +0.000 OA
ENDBRANCH   9  16
ENDBRANCH   1  14
BRANCH   5  17
ATOM     17  C   UNL     1       4.823   4.967  16.998  0.00  0.00    +0.000 C 
ATOM     18  C   UNL     1       4.627   3.809  16.044  0.00  0.00    +0.000 C 
ATOM     19  N   UNL     1       5.915   3.655  15.338  0.00  0.00    +0.000 NA
ATOM     20  C   UNL     1       6.947   4.040  16.331  0.00  0.00    +0.000 C 
ATOM     21  C   UNL     1       6.275   4.836  17.470  0.00  0.00    +0.000 C 
BRANCH  21  22
ATOM     22  C   UNL     1       6.971   6.157  17.790  0.00  0.00    +0.000 A 
ATOM     23  C   UNL     1       6.716   7.338  17.077  0.00  0.00    +0.000 A 
ATOM     24  C   UNL     1       7.388   8.522  17.374  0.00  0.00    +0.000 A 
ATOM     25  C   UNL     1       8.312   8.549  18.406  0.00  0.00    +0.000 A 
ATOM     26 CL   UNL     1       9.163  10.004  18.749  0.00  0.00    +0.000 Cl
ATOM     27  C   UNL     1       8.557   7.403  19.160  0.00  0.00    +0.000 A 
ATOM     28  C   UNL     1       7.885   6.216  18.858  0.00  0.00    +0.000 A 
ENDBRANCH  21  22
BRANCH  19  29
ATOM     29  C   UNL     1       5.984   4.413  14.070  0.00  0.00    +0.000 C 
ATOM     30  C   UNL     1       7.339   5.118  13.877  0.00  0.00    +0.000 C 
ATOM     31  C   UNL     1       5.807   3.477  12.859  0.00  0.00    +0.000 C 
ENDBRANCH  19  29
ENDBRANCH   5  17
TORSDOF 5
ENDMDL
MODEL 8
REMARK VINA RESULT:      -7.0      4.194     10.256
REMARK  Name = 
REMARK  8 active torsions:
REMARK  status: ('A' for Active; 'I' for Inactive)
REMARK    1  A    between atoms: C_1  and  O_2
REMARK    2  A    between atoms: O_2  and  C_3
REMARK    3  A    between atoms: C_8  and  N_9
REMARK    4  A    between atoms: C_13  and  C_15
REMARK    5  A    between atoms: N_17  and  C_18
REMARK    6  A    between atoms: C_18  and  C_19
REMARK    7  A    between atoms: C_18  and  C_20
REMARK    8  A    between atoms: C_22  and  C_23
REMARK                            x       y       z     vdW  Elec       q    Type
REMARK                         _______ _______ _______ _____ _____    ______ ____
ROOT
ATOM      1  N   UNL     1       1.462   8.537  19.588  0.00  0.00    +0.000 N 
ATOM      2  C   UNL     1       0.829   8.400  20.908  0.00  0.00    +0.000 C 
ATOM      3  C   UNL     1       0.992   9.713  21.695  0.00  0.00    +0.000 C 
ATOM      4  N   UNL     1       0.565  10.888  20.919  0.00  0.00    +0.000 N 
ATOM      5  C   UNL     1      -0.124  11.887  21.584  0.00  0.00    +0.000 C 
ATOM      6  O   UNL     1      -0.361  11.801  22.799  0.00  0.00    +0.000 OA
ATOM      7  C   UNL     1       1.148  10.971  19.560  0.00  0.00    +0.000 C 
ATOM      8  C   UNL     1       0.979   9.658  18.779  0.00  0.00    +0.000 C 
ENDROOT
BRANCH   1  14
ATOM      9  C   UNL     1       2.509   6.287  19.590  0.00  0.00    +0.000 A 
ATOM     10  C   UNL     1       3.402   5.397  19.000  0.00  0.00    +0.000 A 
ATOM     11  C   UNL     1       4.151   5.759  17.885  0.00  0.00    +0.000 A 
ATOM     12  C   UNL     1       4.013   7.033  17.364  0.00  0.00    +0.000 A 
ATOM     13  C   UNL     1       3.116   7.933  17.944  0.00  0.00    +0.000 A 
ATOM     14  C   UNL     1       2.337   7.601  19.069  0.00  0.00    +0.000 A 
BRANCH   9  16
ATOM     15  C   UNL     1       1.331   4.526  20.648  0.00  0.00    +0.000 C 
ATOM     16  O   UNL     1       1.775   5.883  20.688  0.00  0.00    +0.000 OA
ENDBRANCH   9  16
ENDBRANCH   1  14
BRANCH   5  17
ATOM     17  C   UNL     1      -0.605  13.084  20.794  0.00  0.00    +0.000 C 
ATOM     18  C   UNL     1       0.293  14.288  20.975  0.00  0.00    +0.000 C 
ATOM     19  N   UNL     1      -0.531  15.456  20.604  0.00  0.00    +0.000 NA
ATOM     20  C   UNL     1      -1.911  15.100  21.013  0.00  0.00    +0.000 C 
ATOM     21  C   UNL     1      -1.994  13.572  21.220  0.00  0.00    +0.000 C 
BRANCH  21  22
ATOM     22  C   UNL     1      -3.161  12.916  20.486  0.00  0.00    +0.000 A 
ATOM     23  C   UNL     1      -4.480  12.972  20.962  0.00  0.00    +0.000 A 
ATOM     24  C   UNL     1      -5.521  12.337  20.285  0.00  0.00    +0.000 A 
ATOM     25  C   UNL     1      -5.261  11.655  19.108  0.00  0.00    +0.000 A 
ATOM     26 CL   UNL     1      -6.542  10.848  18.291  0.00  0.00    +0.000 Cl
ATOM     27  C   UNL     1      -3.970  11.617  18.588  0.00  0.00    +0.000 A 
ATOM     28  C   UNL     1      -2.927  12.249  19.269  0.00  0.00    +0.000 A 
ENDBRANCH  21  22
BRANCH  19  29
ATOM     29  C   UNL     1      -0.402  15.837  19.181  0.00  0.00    +0.000 C 
ATOM     30  C   UNL     1      -1.107  17.167  18.859  0.00  0.00    +0.000 C 
ATOM     31  C   UNL     1       1.078  16.029  18.794  0.00  0.00    +0.000 C 
ENDBRANCH  19  29
ENDBRANCH   5  17
TORSDOF 5
ENDMDL
MODEL 9
REMARK VINA RESULT:      -7.0      3.138      8.319
REMARK  Name = 
REMARK  8 active torsions:
REMARK  status: ('A' for Active; 'I' for Inactive)
REMARK    1  A    between atoms: C_1  and  O_2
REMARK    2  A    between atoms: O_2  and  C_3
REMARK    3  A    between atoms: C_8  and  N_9
REMARK    4  A    between atoms: C_13  and  C_15
REMARK    5  A    between atoms: N_17  and  C_18
REMARK    6  A    between atoms: C_18  and  C_19
REMARK    7  A    between atoms: C_18  and  C_20
REMARK    8  A    between atoms: C_22  and  C_23
REMARK                            x       y       z     vdW  Elec       q    Type
REMARK                         _______ _______ _______ _____ _____    ______ ____
ROOT
ATOM      1  N   UNL     1       3.031   5.970  18.867  0.00  0.00    +0.000 N 
ATOM      2  C   UNL     1       3.593   6.847  17.828  0.00  0.00    +0.000 C 
ATOM      3  C   UNL     1       2.539   7.886  17.407  0.00  0.00    +0.000 C 
ATOM      4  N   UNL     1       1.952   8.586  18.561  0.00  0.00    +0.000 N 
ATOM      5  C   UNL     1       1.704   9.942  18.437  0.00  0.00    +0.000 C 
ATOM      6  O   UNL     1       1.957  10.546  17.383  0.00  0.00    +0.000 OA
ATOM      7  C   UNL     1       1.463   7.693  19.636  0.00  0.00    +0.000 C 
ATOM      8  C   UNL     1       2.521   6.659  20.053  0.00  0.00    +0.000 C 
ENDROOT
BRANCH   1  14
ATOM      9  C   UNL     1       4.287   3.843  19.096  0.00  0.00    +0.000 A 
ATOM     10  C   UNL     1       4.279   2.451  19.035  0.00  0.00    +0.000 A 
ATOM     11  C   UNL     1       3.126   1.750  18.701  0.00  0.00    +0.000 A 
ATOM     12  C   UNL     1       1.970   2.452  18.411  0.00  0.00    +0.000 A 
ATOM     13  C   UNL     1       1.963   3.847  18.475  0.00  0.00    +0.000 A 
ATOM     14  C   UNL     1       3.110   4.591  18.814  0.00  0.00    +0.000 A 
BRANCH   9  16
ATOM     15  C   UNL     1       6.405   4.634  18.389  0.00  0.00    +0.000 C 
ATOM     16  O   UNL     1       5.451   4.498  19.444  0.00  0.00    +0.000 OA
ENDBRANCH   9  16
ENDBRANCH   1  14
BRANCH   5  17
ATOM     17  C   UNL     1       1.138  10.686  19.626  0.00  0.00    +0.000 C 
ATOM     18  C   UNL     1      -0.195  10.125  20.071  0.00  0.00    +0.000 C 
ATOM     19  N   UNL     1      -0.842  11.204  20.843  0.00  0.00    +0.000 NA
ATOM     20  C   UNL     1      -0.390  12.462  20.201  0.00  0.00    +0.000 C 
ATOM     21  C   UNL     1       0.856  12.165  19.338  0.00  0.00    +0.000 C 
BRANCH  21  22
ATOM     22  C   UNL     1       2.026  13.109  19.604  0.00  0.00    +0.000 A 
ATOM     23  C   UNL     1       2.496  13.385  20.897  0.00  0.00    +0.000 A 
ATOM     24  C   UNL     1       3.547  14.274  21.110  0.00  0.00    +0.000 A 
ATOM     25  C   UNL     1       4.163  14.884  20.029  0.00  0.00    +0.000 A 
ATOM     26 CL   UNL     1       5.441  16.004  20.298  0.00  0.00    +0.000 Cl
ATOM     27  C   UNL     1       3.748  14.599  18.731  0.00  0.00    +0.000 A 
ATOM     28  C   UNL     1       2.690  13.711  18.519  0.00  0.00    +0.000 A 
ENDBRANCH  21  22
BRANCH  19  29
ATOM     29  C   UNL     1      -0.566  11.135  22.294  0.00  0.00    +0.000 C 
ATOM     30  C   UNL     1      -1.653  11.829  23.136  0.00  0.00    +0.000 C 
ATOM     31  C   UNL     1      -0.516   9.672  22.776  0.00  0.00    +0.000 C 
ENDBRANCH  19  29
ENDBRANCH   5  17
TORSDOF 5
ENDMDL
