MODEL 1
REMARK VINA RESULT:      -6.4      0.000      0.000
REMARK  Name = 
REMARK  10 active torsions:
REMARK  status: ('A' for Active; 'I' for Inactive)
REMARK    1  A    between atoms: C_1  and  C_2
REMARK    2  A    between atoms: C_2  and  C_3
REMARK    3  A    between atoms: C_3  and  C_5
REMARK    4  A    between atoms: C_11  and  O_12
REMARK    5  A    between atoms: O_12  and  C_13
REMARK    6  A    between atoms: C_13  and  C_14
REMARK    7  A    between atoms: N_16  and  C_17
REMARK    8  A    between atoms: C_17  and  C_18
REMARK    9  A    between atoms: C_17  and  C_19
REMARK   10  A    between atoms: C_17  and  C_20
REMARK                            x       y       z     vdW  Elec       q    Type
REMARK                         _______ _______ _______ _____ _____    ______ ____
ROOT
ATOM      1  C   UNL     1       1.490   4.708  19.635  0.00  0.00    +0.000 A 
ATOM      2  C   UNL     1       1.257   5.753  20.554  0.00  0.00    +0.000 A 
ATOM      3  C   UNL     1       1.694   7.048  20.294  0.00  0.00    +0.000 A 
ATOM      4 BR   UNL     1       1.398   8.418  21.561  0.00  0.00    +0.000 Br
ATOM      5  C   UNL     1       2.345   7.339  19.106  0.00  0.00    +0.000 A 
ATOM      6  C   UNL     1       2.575   6.321  18.180  0.00  0.00    +0.000 A 
ATOM      7  C   UNL     1       2.184   4.995  18.441  0.00  0.00    +0.000 A 
ENDROOT
BRANCH   1   8
ATOM      8  C   UNL     1       0.969   3.358  20.055  0.00  0.00    +0.000 C 
ATOM      9  O   UNL     1       0.233   2.745  19.280  0.00  0.00    +0.000 OA
BRANCH   8  11
ATOM     10  C   UNL     1       2.838   2.553  21.553  0.00  0.00    +0.000 C 
ATOM     11  C   UNL     1       1.338   2.769  21.400  0.00  0.00    +0.000 C 
ENDBRANCH   8  11
ENDBRANCH   1   8
BRANCH   7  12
ATOM     12  O   UNL     1       2.454   3.979  17.558  0.00  0.00    +0.000 OA
BRANCH  12  13
ATOM     13  C   UNL     1       3.653   3.237  17.800  0.00  0.00    +0.000 C 
BRANCH  13  14
ATOM     14  C   UNL     1       4.906   3.945  17.289  0.00  0.00    +0.000 C 
ATOM     15  O   UNL     1       5.179   3.968  16.091  0.00  0.00    +0.000 OA
ATOM     16  N   UNL     1       5.668   4.530  18.271  0.00  0.00    +0.000 N 
ATOM     17  H   UNL     1       5.325   4.422  19.217  0.00  0.00    +0.000 HD
BRANCH  16  18
ATOM     18  C   UNL     1       6.880   5.323  18.056  0.00  0.00    +0.000 C 
ATOM     19  C   UNL     1       6.543   6.636  17.325  0.00  0.00    +0.000 C 
ATOM     20  C   UNL     1       7.475   5.674  19.431  0.00  0.00    +0.000 C 
ATOM     21  C   UNL     1       7.921   4.518  17.265  0.00  0.00    +0.000 C 
ENDBRANCH  16  18
ENDBRANCH  13  14
ENDBRANCH  12  13
ENDBRANCH   7  12
TORSDOF 6
ENDMDL
MODEL 2
REMARK VINA RESULT:      -6.4      2.775      5.940
REMARK  Name = 
REMARK  10 active torsions:
REMARK  status: ('A' for Active; 'I' for Inactive)
REMARK    1  A    between atoms: C_1  and  C_2
REMARK    2  A    between atoms: C_2  and  C_3
REMARK    3  A    between atoms: C_3  and  C_5
REMARK    4  A    between atoms: C_11  and  O_12
REMARK    5  A    between atoms: O_12  and  C_13
REMARK    6  A    between atoms: C_13  and  C_14
REMARK    7  A    between atoms: N_16  and  C_17
REMARK    8  A    between atoms: C_17  and  C_18
REMARK    9  A    between atoms: C_17  and  C_19
REMARK   10  A    between atoms: C_17  and  C_20
REMARK                            x       y       z     vdW  Elec       q    Type
REMARK                         _______ _______ _______ _____ _____    ______ ____
ROOT
ATOM      1  C   UNL     1       6.453   6.326  17.287  0.00  0.00    +0.000 A 
ATOM      2  C   UNL     1       6.937   7.651  17.236  0.00  0.00    +0.000 A 
ATOM      3  C   UNL     1       7.945   8.080  18.094  0.00  0.00    +0.000 A 
ATOM      4 BR   UNL     1       8.547   9.869  18.024  0.00  0.00    +0.000 Br
ATOM      5  C   UNL     1       8.513   7.198  18.999  0.00  0.00    +0.000 A 
ATOM      6  C   UNL     1       8.055   5.881  19.057  0.00  0.00    +0.000 A 
ATOM      7  C   UNL     1       7.005   5.437  18.233  0.00  0.00    +0.000 A 
ENDROOT
BRANCH   1   8
ATOM      8  C   UNL     1       5.356   6.008  16.306  0.00  0.00    +0.000 C 
ATOM      9  O   UNL     1       4.193   6.267  16.620  0.00  0.00    +0.000 OA
BRANCH   8  11
ATOM     10  C   UNL     1       7.078   4.798  14.906  0.00  0.00    +0.000 C 
ATOM     11  C   UNL     1       5.673   5.382  14.964  0.00  0.00    +0.000 C 
ENDBRANCH   8  11
ENDBRANCH   1   8
BRANCH   7  12
ATOM     12  O   UNL     1       6.514   4.158  18.321  0.00  0.00    +0.000 OA
BRANCH  12  13
ATOM     13  C   UNL     1       5.511   3.937  19.317  0.00  0.00    +0.000 C 
BRANCH  13  14
ATOM     14  C   UNL     1       4.165   3.522  18.724  0.00  0.00    +0.000 C 
ATOM     15  O   UNL     1       4.099   2.926  17.652  0.00  0.00    +0.000 OA
ATOM     16  N   UNL     1       3.077   3.873  19.487  0.00  0.00    +0.000 N 
ATOM     17  H   UNL     1       3.282   4.370  20.344  0.00  0.00    +0.000 HD
BRANCH  16  18
ATOM     18  C   UNL     1       1.681   3.545  19.189  0.00  0.00    +0.000 C 
ATOM     19  C   UNL     1       0.752   4.095  20.287  0.00  0.00    +0.000 C 
ATOM     20  C   UNL     1       1.304   4.214  17.856  0.00  0.00    +0.000 C 
ATOM     21  C   UNL     1       1.501   2.028  19.042  0.00  0.00    +0.000 C 
ENDBRANCH  16  18
ENDBRANCH  13  14
ENDBRANCH  12  13
ENDBRANCH   7  12
TORSDOF 6
ENDMDL
MODEL 3
REMARK VINA RESULT:      -6.4      3.170      4.140
REMARK  Name = 
REMARK  10 active torsions:
REMARK  status: ('A' for Active; 'I' for Inactive)
REMARK    1  A    between atoms: C_1  and  C_2
REMARK    2  A    between atoms: C_2  and  C_3
REMARK    3  A    between atoms: C_3  and  C_5
REMARK    4  A    between atoms: C_11  and  O_12
REMARK    5  A    between atoms: O_12  and  C_13
REMARK    6  A    between atoms: C_13  and  C_14
REMARK    7  A    between atoms: N_16  and  C_17
REMARK    8  A    between atoms: C_17  and  C_18
REMARK    9  A    between atoms: C_17  and  C_19
REMARK   10  A    between atoms: C_17  and  C_20
REMARK                            x       y       z     vdW  Elec       q    Type
REMARK                         _______ _______ _______ _____ _____    ______ ____
ROOT
ATOM      1  C   UNL     1       3.238   4.694  17.633  0.00  0.00    +0.000 A 
ATOM      2  C   UNL     1       2.529   5.813  18.121  0.00  0.00    +0.000 A 
ATOM      3  C   UNL     1       3.009   7.105  17.931  0.00  0.00    +0.000 A 
ATOM      4 BR   UNL     1       2.054   8.579  18.626  0.00  0.00    +0.000 Br
ATOM      5  C   UNL     1       4.185   7.316  17.231  0.00  0.00    +0.000 A 
ATOM      6  C   UNL     1       4.896   6.223  16.732  0.00  0.00    +0.000 A 
ATOM      7  C   UNL     1       4.455   4.905  16.952  0.00  0.00    +0.000 A 
ENDROOT
BRANCH   1   8
ATOM      8  C   UNL     1       2.603   3.359  17.921  0.00  0.00    +0.000 C 
ATOM      9  O   UNL     1       1.641   3.006  17.238  0.00  0.00    +0.000 OA
BRANCH   8  11
ATOM     10  C   UNL     1       3.827   1.223  18.494  0.00  0.00    +0.000 C 
ATOM     11  C   UNL     1       3.134   2.470  19.027  0.00  0.00    +0.000 C 
ENDBRANCH   8  11
ENDBRANCH   1   8
BRANCH   7  12
ATOM     12  O   UNL     1       5.176   3.824  16.509  0.00  0.00    +0.000 OA
BRANCH  12  13
ATOM     13  C   UNL     1       6.494   4.101  16.025  0.00  0.00    +0.000 C 
BRANCH  13  14
ATOM     14  C   UNL     1       6.533   4.363  14.521  0.00  0.00    +0.000 C 
ATOM     15  O   UNL     1       6.929   5.436  14.073  0.00  0.00    +0.000 OA
ATOM     16  N   UNL     1       6.095   3.313  13.751  0.00  0.00    +0.000 N 
ATOM     17  H   UNL     1       5.788   2.492  14.258  0.00  0.00    +0.000 HD
BRANCH  16  18
ATOM     18  C   UNL     1       6.086   3.269  12.287  0.00  0.00    +0.000 C 
ATOM     19  C   UNL     1       6.329   1.833  11.788  0.00  0.00    +0.000 C 
ATOM     20  C   UNL     1       4.699   3.723  11.801  0.00  0.00    +0.000 C 
ATOM     21  C   UNL     1       7.141   4.225  11.711  0.00  0.00    +0.000 C 
ENDBRANCH  16  18
ENDBRANCH  13  14
ENDBRANCH  12  13
ENDBRANCH   7  12
TORSDOF 6
ENDMDL
MODEL 4
REMARK VINA RESULT:      -6.4      3.221      6.504
REMARK  Name = 
REMARK  10 active torsions:
REMARK  status: ('A' for Active; 'I' for Inactive)
REMARK    1  A    between atoms: C_1  and  C_2
REMARK    2  A    between atoms: C_2  and  C_3
REMARK    3  A    between atoms: C_3  and  C_5
REMARK    4  A    between atoms: C_11  and  O_12
REMARK    5  A    between atoms: O_12  and  C_13
REMARK    6  A    between atoms: C_13  and  C_14
REMARK    7  A    between atoms: N_16  and  C_17
REMARK    8  A    between atoms: C_17  and  C_18
REMARK    9  A    between atoms: C_17  and  C_19
REMARK   10  A    between atoms: C_17  and  C_20
REMARK                            x       y       z     vdW  Elec       q    Type
REMARK                         _______ _______ _______ _____ _____    ______ ____
ROOT
ATOM      1  C   UNL     1       6.752   4.722  16.557  0.00  0.00    +0.000 A 
ATOM      2  C   UNL     1       7.382   5.011  15.328  0.00  0.00    +0.000 A 
ATOM      3  C   UNL     1       6.748   4.750  14.117  0.00  0.00    +0.000 A 
ATOM      4 BR   UNL     1       7.632   5.116  12.489  0.00  0.00    +0.000 Br
ATOM      5  C   UNL     1       5.467   4.223  14.101  0.00  0.00    +0.000 A 
ATOM      6  C   UNL     1       4.823   3.940  15.306  0.00  0.00    +0.000 A 
ATOM      7  C   UNL     1       5.462   4.152  16.542  0.00  0.00    +0.000 A 
ENDROOT
BRANCH   1   8
ATOM      8  C   UNL     1       7.562   5.050  17.784  0.00  0.00    +0.000 C 
ATOM      9  O   UNL     1       8.446   4.266  18.131  0.00  0.00    +0.000 OA
BRANCH   8  11
ATOM     10  C   UNL     1       7.860   7.557  17.901  0.00  0.00    +0.000 C 
ATOM     11  C   UNL     1       7.296   6.314  18.575  0.00  0.00    +0.000 C 
ENDBRANCH   8  11
ENDBRANCH   1   8
BRANCH   7  12
ATOM     12  O   UNL     1       4.855   3.827  17.729  0.00  0.00    +0.000 OA
BRANCH  12  13
ATOM     13  C   UNL     1       4.074   2.628  17.730  0.00  0.00    +0.000 C 
BRANCH  13  14
ATOM     14  C   UNL     1       2.907   2.678  18.714  0.00  0.00    +0.000 C 
ATOM     15  O   UNL     1       2.152   1.719  18.854  0.00  0.00    +0.000 OA
ATOM     16  N   UNL     1       2.794   3.863  19.400  0.00  0.00    +0.000 N 
ATOM     17  H   UNL     1       3.482   4.569  19.176  0.00  0.00    +0.000 HD
BRANCH  16  18
ATOM     18  C   UNL     1       1.810   4.157  20.445  0.00  0.00    +0.000 C 
ATOM     19  C   UNL     1       0.435   3.573  20.072  0.00  0.00    +0.000 C 
ATOM     20  C   UNL     1       2.281   3.492  21.750  0.00  0.00    +0.000 C 
ATOM     21  C   UNL     1       1.706   5.670  20.679  0.00  0.00    +0.000 C 
ENDBRANCH  16  18
ENDBRANCH  13  14
ENDBRANCH  12  13
ENDBRANCH   7  12
TORSDOF 6
ENDMDL
MODEL 5
REMARK VINA RESULT:      -6.3      3.151      4.094
REMARK  Name = 
REMARK  10 active torsions:
REMARK  status: ('A' for Active; 'I' for Inactive)
REMARK    1  A    between atoms: C_1  and  C_2
REMARK    2  A    between atoms: C_2  and  C_3
REMARK    3  A    between atoms: C_3  and  C_5
REMARK    4  A    between atoms: C_11  and  O_12
REMARK    5  A    between atoms: O_12  and  C_13
REMARK    6  A    between atoms: C_13  and  C_14
REMARK    7  A    between atoms: N_16  and  C_17
REMARK    8  A    between atoms: C_17  and  C_18
REMARK    9  A    between atoms: C_17  and  C_19
REMARK   10  A    between atoms: C_17  and  C_20
REMARK                            x       y       z     vdW  Elec       q    Type
REMARK                         _______ _______ _______ _____ _____    ______ ____
ROOT
ATOM      1  C   UNL     1       3.758   4.152  18.361  0.00  0.00    +0.000 A 
ATOM      2  C   UNL     1       3.010   5.097  19.096  0.00  0.00    +0.000 A 
ATOM      3  C   UNL     1       3.009   6.443  18.743  0.00  0.00    +0.000 A 
ATOM      4 BR   UNL     1       2.025   7.688  19.767  0.00  0.00    +0.000 Br
ATOM      5  C   UNL     1       3.726   6.874  17.638  0.00  0.00    +0.000 A 
ATOM      6  C   UNL     1       4.463   5.953  16.893  0.00  0.00    +0.000 A 
ATOM      7  C   UNL     1       4.517   4.596  17.258  0.00  0.00    +0.000 A 
ENDROOT
BRANCH   1   8
ATOM      8  C   UNL     1       3.670   2.735  18.865  0.00  0.00    +0.000 C 
ATOM      9  O   UNL     1       4.498   2.354  19.694  0.00  0.00    +0.000 OA
BRANCH   8  11
ATOM     10  C   UNL     1       1.190   2.267  18.736  0.00  0.00    +0.000 C 
ATOM     11  C   UNL     1       2.591   1.799  18.364  0.00  0.00    +0.000 C 
ENDBRANCH   8  11
ENDBRANCH   1   8
BRANCH   7  12
ATOM     12  O   UNL     1       5.282   3.694  16.561  0.00  0.00    +0.000 OA
BRANCH  12  13
ATOM     13  C   UNL     1       6.552   4.168  16.101  0.00  0.00    +0.000 C 
BRANCH  13  14
ATOM     14  C   UNL     1       6.572   4.456  14.601  0.00  0.00    +0.000 C 
ATOM     15  O   UNL     1       6.947   5.543  14.167  0.00  0.00    +0.000 OA
ATOM     16  N   UNL     1       6.144   3.412  13.818  0.00  0.00    +0.000 N 
ATOM     17  H   UNL     1       5.855   2.578  14.313  0.00  0.00    +0.000 HD
BRANCH  16  18
ATOM     18  C   UNL     1       6.121   3.393  12.353  0.00  0.00    +0.000 C 
ATOM     19  C   UNL     1       7.159   4.378  11.785  0.00  0.00    +0.000 C 
ATOM     20  C   UNL     1       6.491   1.976  11.885  0.00  0.00    +0.000 C 
ATOM     21  C   UNL     1       4.718   3.730  11.829  0.00  0.00    +0.000 C 
ENDBRANCH  16  18
ENDBRANCH  13  14
ENDBRANCH  12  13
ENDBRANCH   7  12
TORSDOF 6
ENDMDL
MODEL 6
REMARK VINA RESULT:      -6.3      3.302      6.654
REMARK  Name = 
REMARK  10 active torsions:
REMARK  status: ('A' for Active; 'I' for Inactive)
REMARK    1  A    between atoms: C_1  and  C_2
REMARK    2  A    between atoms: C_2  and  C_3
REMARK    3  A    between atoms: C_3  and  C_5
REMARK    4  A    between atoms: C_11  and  O_12
REMARK    5  A    between atoms: O_12  and  C_13
REMARK    6  A    between atoms: C_13  and  C_14
REMARK    7  A    between atoms: N_16  and  C_17
REMARK    8  A    between atoms: C_17  and  C_18
REMARK    9  A    between atoms: C_17  and  C_19
REMARK   10  A    between atoms: C_17  and  C_20
REMARK                            x       y       z     vdW  Elec       q    Type
REMARK                         _______ _______ _______ _____ _____    ______ ____
ROOT
ATOM      1  C   UNL     1       6.985   5.598  17.086  0.00  0.00    +0.000 A 
ATOM      2  C   UNL     1       7.286   5.632  15.708  0.00  0.00    +0.000 A 
ATOM      3  C   UNL     1       6.749   4.694  14.832  0.00  0.00    +0.000 A 
ATOM      4 BR   UNL     1       7.199   4.747  12.998  0.00  0.00    +0.000 Br
ATOM      5  C   UNL     1       5.882   3.720  15.300  0.00  0.00    +0.000 A 
ATOM      6  C   UNL     1       5.565   3.676  16.658  0.00  0.00    +0.000 A 
ATOM      7  C   UNL     1       6.132   4.584  17.570  0.00  0.00    +0.000 A 
ENDROOT
BRANCH   1   8
ATOM      8  C   UNL     1       7.646   6.670  17.913  0.00  0.00    +0.000 C 
ATOM      9  O   UNL     1       8.270   6.335  18.920  0.00  0.00    +0.000 OA
BRANCH   8  11
ATOM     10  C   UNL     1       8.491   9.019  18.309  0.00  0.00    +0.000 C 
ATOM     11  C   UNL     1       7.545   8.128  17.515  0.00  0.00    +0.000 C 
ENDBRANCH   8  11
ENDBRANCH   1   8
BRANCH   7  12
ATOM     12  O   UNL     1       5.865   4.514  18.915  0.00  0.00    +0.000 OA
BRANCH  12  13
ATOM     13  C   UNL     1       5.043   5.557  19.448  0.00  0.00    +0.000 C 
BRANCH  13  14
ATOM     14  C   UNL     1       3.551   5.310  19.231  0.00  0.00    +0.000 C 
ATOM     15  O   UNL     1       2.784   6.236  18.977  0.00  0.00    +0.000 OA
ATOM     16  N   UNL     1       3.171   3.995  19.347  0.00  0.00    +0.000 N 
ATOM     17  H   UNL     1       3.910   3.341  19.569  0.00  0.00    +0.000 HD
BRANCH  16  18
ATOM     18  C   UNL     1       1.821   3.471  19.126  0.00  0.00    +0.000 C 
ATOM     19  C   UNL     1       1.821   1.933  19.198  0.00  0.00    +0.000 C 
ATOM     20  C   UNL     1       0.909   4.008  20.242  0.00  0.00    +0.000 C 
ATOM     21  C   UNL     1       1.270   3.947  17.774  0.00  0.00    +0.000 C 
ENDBRANCH  16  18
ENDBRANCH  13  14
ENDBRANCH  12  13
ENDBRANCH   7  12
TORSDOF 6
ENDMDL
MODEL 7
REMARK VINA RESULT:      -6.3      4.088      6.322
REMARK  Name = 
REMARK  10 active torsions:
REMARK  status: ('A' for Active; 'I' for Inactive)
REMARK    1  A    between atoms: C_1  and  C_2
REMARK    2  A    between atoms: C_2  and  C_3
REMARK    3  A    between atoms: C_3  and  C_5
REMARK    4  A    between atoms: C_11  and  O_12
REMARK    5  A    between atoms: O_12  and  C_13
REMARK    6  A    between atoms: C_13  and  C_14
REMARK    7  A    between atoms: N_16  and  C_17
REMARK    8  A    between atoms: C_17  and  C_18
REMARK    9  A    between atoms: C_17  and  C_19
REMARK   10  A    between atoms: C_17  and  C_20
REMARK                            x       y       z     vdW  Elec       q    Type
REMARK                         _______ _______ _______ _____ _____    ______ ____
ROOT
ATOM      1  C   UNL     1       2.936   5.183  17.825  0.00  0.00    +0.000 A 
ATOM      2  C   UNL     1       3.862   4.409  17.093  0.00  0.00    +0.000 A 
ATOM      3  C   UNL     1       4.945   5.002  16.452  0.00  0.00    +0.000 A 
ATOM      4 BR   UNL     1       6.147   3.942  15.452  0.00  0.00    +0.000 Br
ATOM      5  C   UNL     1       5.148   6.369  16.546  0.00  0.00    +0.000 A 
ATOM      6  C   UNL     1       4.249   7.150  17.273  0.00  0.00    +0.000 A 
ATOM      7  C   UNL     1       3.121   6.580  17.891  0.00  0.00    +0.000 A 
ENDROOT
BRANCH   1   8
ATOM      8  C   UNL     1       1.810   4.407  18.457  0.00  0.00    +0.000 C 
ATOM      9  O   UNL     1       1.042   3.784  17.723  0.00  0.00    +0.000 OA
BRANCH   8  11
ATOM     10  C   UNL     1       1.101   3.058  20.473  0.00  0.00    +0.000 C 
ATOM     11  C   UNL     1       1.626   4.392  19.960  0.00  0.00    +0.000 C 
ENDBRANCH   8  11
ENDBRANCH   1   8
BRANCH   7  12
ATOM     12  O   UNL     1       2.204   7.349  18.564  0.00  0.00    +0.000 OA
BRANCH  12  13
ATOM     13  C   UNL     1       2.002   8.673  18.059  0.00  0.00    +0.000 C 
BRANCH  13  14
ATOM     14  C   UNL     1       1.197   9.557  19.010  0.00  0.00    +0.000 C 
ATOM     15  O   UNL     1       0.954   9.197  20.159  0.00  0.00    +0.000 OA
ATOM     16  N   UNL     1       0.787  10.749  18.465  0.00  0.00    +0.000 N 
ATOM     17  H   UNL     1       1.052  10.908  17.502  0.00  0.00    +0.000 HD
BRANCH  16  18
ATOM     18  C   UNL     1       0.058  11.807  19.170  0.00  0.00    +0.000 C 
ATOM     19  C   UNL     1      -0.058  13.063  18.286  0.00  0.00    +0.000 C 
ATOM     20  C   UNL     1      -1.360  11.295  19.472  0.00  0.00    +0.000 C 
ATOM     21  C   UNL     1       0.748  12.146  20.499  0.00  0.00    +0.000 C 
ENDBRANCH  16  18
ENDBRANCH  13  14
ENDBRANCH  12  13
ENDBRANCH   7  12
TORSDOF 6
ENDMDL
MODEL 8
REMARK VINA RESULT:      -6.3      3.140      4.060
REMARK  Name = 
REMARK  10 active torsions:
REMARK  status: ('A' for Active; 'I' for Inactive)
REMARK    1  A    between atoms: C_1  and  C_2
REMARK    2  A    between atoms: C_2  and  C_3
REMARK    3  A    between atoms: C_3  and  C_5
REMARK    4  A    between atoms: C_11  and  O_12
REMARK    5  A    between atoms: O_12  and  C_13
REMARK    6  A    between atoms: C_13  and  C_14
REMARK    7  A    between atoms: N_16  and  C_17
REMARK    8  A    between atoms: C_17  and  C_18
REMARK    9  A    between atoms: C_17  and  C_19
REMARK   10  A    between atoms: C_17  and  C_20
REMARK                            x       y       z     vdW  Elec       q    Type
REMARK                         _______ _______ _______ _____ _____    ______ ____
ROOT
ATOM      1  C   UNL     1       3.023   4.486  17.677  0.00  0.00    +0.000 A 
ATOM      2  C   UNL     1       2.342   5.602  18.207  0.00  0.00    +0.000 A 
ATOM      3  C   UNL     1       2.865   6.886  18.088  0.00  0.00    +0.000 A 
ATOM      4 BR   UNL     1       1.946   8.355  18.839  0.00  0.00    +0.000 Br
ATOM      5  C   UNL     1       4.060   7.093  17.418  0.00  0.00    +0.000 A 
ATOM      6  C   UNL     1       4.744   6.002  16.878  0.00  0.00    +0.000 A 
ATOM      7  C   UNL     1       4.258   4.690  17.026  0.00  0.00    +0.000 A 
ENDROOT
BRANCH   1   8
ATOM      8  C   UNL     1       2.341   3.160  17.889  0.00  0.00    +0.000 C 
ATOM      9  O   UNL     1       2.880   2.145  17.447  0.00  0.00    +0.000 OA
BRANCH   8  11
ATOM     10  C   UNL     1       1.196   2.706  20.096  0.00  0.00    +0.000 C 
ATOM     11  C   UNL     1       1.022   3.076  18.629  0.00  0.00    +0.000 C 
ENDBRANCH   8  11
ENDBRANCH   1   8
BRANCH   7  12
ATOM     12  O   UNL     1       4.951   3.609  16.542  0.00  0.00    +0.000 OA
BRANCH  12  13
ATOM     13  C   UNL     1       6.257   3.879  16.023  0.00  0.00    +0.000 C 
BRANCH  13  14
ATOM     14  C   UNL     1       6.245   4.230  14.536  0.00  0.00    +0.000 C 
ATOM     15  O   UNL     1       6.417   5.385  14.154  0.00  0.00    +0.000 OA
ATOM     16  N   UNL     1       6.030   3.159  13.702  0.00  0.00    +0.000 N 
ATOM     17  H   UNL     1       5.896   2.266  14.158  0.00  0.00    +0.000 HD
BRANCH  16  18
ATOM     18  C   UNL     1       6.033   3.200  12.238  0.00  0.00    +0.000 C 
ATOM     19  C   UNL     1       6.230   1.787  11.659  0.00  0.00    +0.000 C 
ATOM     20  C   UNL     1       4.668   3.729  11.769  0.00  0.00    +0.000 C 
ATOM     21  C   UNL     1       7.127   4.148  11.725  0.00  0.00    +0.000 C 
ENDBRANCH  16  18
ENDBRANCH  13  14
ENDBRANCH  12  13
ENDBRANCH   7  12
TORSDOF 6
ENDMDL
MODEL 9
REMARK VINA RESULT:      -6.3      4.076      6.295
REMARK  Name = 
REMARK  10 active torsions:
REMARK  status: ('A' for Active; 'I' for Inactive)
REMARK    1  A    between atoms: C_1  and  C_2
REMARK    2  A    between atoms: C_2  and  C_3
REMARK    3  A    between atoms: C_3  and  C_5
REMARK    4  A    between atoms: C_11  and  O_12
REMARK    5  A    between atoms: O_12  and  C_13
REMARK    6  A    between atoms: C_13  and  C_14
REMARK    7  A    between atoms: N_16  and  C_17
REMARK    8  A    between atoms: C_17  and  C_18
REMARK    9  A    between atoms: C_17  and  C_19
REMARK   10  A    between atoms: C_17  and  C_20
REMARK                            x       y       z     vdW  Elec       q    Type
REMARK                         _______ _______ _______ _____ _____    ______ ____
ROOT
ATOM      1  C   UNL     1       2.953   5.169  17.834  0.00  0.00    +0.000 A 
ATOM      2  C   UNL     1       3.853   4.389  17.076  0.00  0.00    +0.000 A 
ATOM      3  C   UNL     1       4.934   4.973  16.423  0.00  0.00    +0.000 A 
ATOM      4 BR   UNL     1       6.102   3.907  15.390  0.00  0.00    +0.000 Br
ATOM      5  C   UNL     1       5.160   6.335  16.530  0.00  0.00    +0.000 A 
ATOM      6  C   UNL     1       4.286   7.121  17.282  0.00  0.00    +0.000 A 
ATOM      7  C   UNL     1       3.160   6.561  17.913  0.00  0.00    +0.000 A 
ENDROOT
BRANCH   1   8
ATOM      8  C   UNL     1       1.826   4.402  18.476  0.00  0.00    +0.000 C 
ATOM      9  O   UNL     1       1.065   3.759  17.752  0.00  0.00    +0.000 OA
BRANCH   8  11
ATOM     10  C   UNL     1       1.168   3.079  20.527  0.00  0.00    +0.000 C 
ATOM     11  C   UNL     1       1.631   4.422  19.977  0.00  0.00    +0.000 C 
ENDBRANCH   8  11
ENDBRANCH   1   8
BRANCH   7  12
ATOM     12  O   UNL     1       2.268   7.336  18.611  0.00  0.00    +0.000 OA
BRANCH  12  13
ATOM     13  C   UNL     1       1.987   8.626  18.057  0.00  0.00    +0.000 C 
BRANCH  13  14
ATOM     14  C   UNL     1       1.185   9.519  19.003  0.00  0.00    +0.000 C 
ATOM     15  O   UNL     1       0.883   9.139  20.131  0.00  0.00    +0.000 OA
ATOM     16  N   UNL     1       0.850  10.743  18.478  0.00  0.00    +0.000 N 
ATOM     17  H   UNL     1       1.158  10.916  17.530  0.00  0.00    +0.000 HD
BRANCH  16  18
ATOM     18  C   UNL     1       0.143  11.813  19.186  0.00  0.00    +0.000 C 
ATOM     19  C   UNL     1      -1.218  11.311  19.703  0.00  0.00    +0.000 C 
ATOM     20  C   UNL     1       0.995  12.234  20.395  0.00  0.00    +0.000 C 
ATOM     21  C   UNL     1      -0.046  13.033  18.273  0.00  0.00    +0.000 C 
ENDBRANCH  16  18
ENDBRANCH  13  14
ENDBRANCH  12  13
ENDBRANCH   7  12
TORSDOF 6
ENDMDL
