MODEL 1
REMARK VINA RESULT:      -8.1      0.000      0.000
REMARK  Name = 
REMARK  7 active torsions:
REMARK  status: ('A' for Active; 'I' for Inactive)
REMARK    1  A    between atoms: C_1  and  C_2
REMARK    2  A    between atoms: C_3  and  C_4
REMARK    3  A    between atoms: N_6  and  C_7
REMARK    4  A    between atoms: C_7  and  C_8
REMARK    5  A    between atoms: C_11  and  S_12
REMARK    6  A    between atoms: N_13  and  C_14
REMARK    7  A    between atoms: C_24  and  N_25
REMARK                            x       y       z     vdW  Elec       q    Type
REMARK                         _______ _______ _______ _____ _____    ______ ____
ROOT
ATOM      1  C   UNL     1       2.926   7.006  18.650  0.00  0.00    +0.000 C 
ENDROOT
BRANCH   1   2
ATOM      2  C   UNL     1       3.026   5.694  19.347  0.00  0.00    +0.000 A 
ATOM      3  N   UNL     1       2.245   5.311  20.341  0.00  0.00    +0.000 NA
ATOM      4  N   UNL     1       2.552   4.020  20.659  0.00  0.00    +0.000 NA
ATOM      5  C   UNL     1       3.517   3.629  19.862  0.00  0.00    +0.000 A 
ATOM      6  N   UNL     1       3.869   4.640  18.979  0.00  0.00    +0.000 N 
BRANCH   6   7
ATOM      7  C   UNL     1       4.831   4.615  17.920  0.00  0.00    +0.000 A 
ATOM      8  C   UNL     1       4.440   4.292  16.609  0.00  0.00    +0.000 A 
ATOM      9  C   UNL     1       5.379   4.272  15.572  0.00  0.00    +0.000 A 
ATOM     10  C   UNL     1       6.702   4.594  15.835  0.00  0.00    +0.000 A 
ATOM     11  F   UNL     1       7.597   4.585  14.840  0.00  0.00    +0.000 F 
ATOM     12  C   UNL     1       7.109   4.923  17.121  0.00  0.00    +0.000 A 
ATOM     13  C   UNL     1       6.179   4.922  18.165  0.00  0.00    +0.000 A 
ENDBRANCH   6   7
BRANCH   5  14
ATOM     14  S   UNL     1       4.332   2.114  20.070  0.00  0.00    +0.000 S 
ATOM     15  H   UNL     1       5.464   2.455  19.436  0.00  0.00    +0.000 HD
ENDBRANCH   5  14
ENDBRANCH   1   2
BRANCH   1  18
ATOM     16  C   UNL     1       1.563   9.026  18.663  0.00  0.00    +0.000 C 
ATOM     17  O   UNL     1       2.022   9.361  17.573  0.00  0.00    +0.000 OA
ATOM     18  N   UNL     1       1.921   7.843  19.269  0.00  0.00    +0.000 N 
ATOM     19  H   UNL     1       1.487   7.520  20.127  0.00  0.00    +0.000 HD
BRANCH  16  22
ATOM     20  C   UNL     1       1.368   9.475  21.735  0.00  0.00    +0.000 C 
ATOM     21  C   UNL     1       0.446  10.104  20.723  0.00  0.00    +0.000 A 
ATOM     22  C   UNL     1       0.553   9.892  19.332  0.00  0.00    +0.000 A 
ATOM     23  C   UNL     1      -0.292  10.597  18.443  0.00  0.00    +0.000 A 
ATOM     24  C   UNL     1      -1.261  11.488  18.904  0.00  0.00    +0.000 A 
ATOM     25  C   UNL     1      -1.407  11.687  20.268  0.00  0.00    +0.000 A 
ATOM     26  C   UNL     1      -0.569  10.995  21.155  0.00  0.00    +0.000 A 
BRANCH  26  27
ATOM     27  N   UNL     1      -0.777  11.253  22.572  0.00  0.00    +0.000 N 
ATOM     28  O   UNL     1      -1.278  10.346  23.246  0.00  0.00    +0.000 OA
ATOM     29  O   UNL     1      -0.457  12.375  22.993  0.00  0.00    +0.000 OA
ENDBRANCH  26  27
ENDBRANCH  16  22
ENDBRANCH   1  18
TORSDOF 6
ENDMDL
MODEL 2
REMARK VINA RESULT:      -7.9      1.228      1.789
REMARK  Name = 
REMARK  7 active torsions:
REMARK  status: ('A' for Active; 'I' for Inactive)
REMARK    1  A    between atoms: C_1  and  C_2
REMARK    2  A    between atoms: C_3  and  C_4
REMARK    3  A    between atoms: N_6  and  C_7
REMARK    4  A    between atoms: C_7  and  C_8
REMARK    5  A    between atoms: C_11  and  S_12
REMARK    6  A    between atoms: N_13  and  C_14
REMARK    7  A    between atoms: C_24  and  N_25
REMARK                            x       y       z     vdW  Elec       q    Type
REMARK                         _______ _______ _______ _____ _____    ______ ____
ROOT
ATOM      1  C   UNL     1       2.769   7.428  18.864  0.00  0.00    +0.000 C 
ENDROOT
BRANCH   1   2
ATOM      2  C   UNL     1       2.705   6.128  19.586  0.00  0.00    +0.000 A 
ATOM      3  N   UNL     1       1.827   5.836  20.529  0.00  0.00    +0.000 NA
ATOM      4  N   UNL     1       1.998   4.531  20.888  0.00  0.00    +0.000 NA
ATOM      5  C   UNL     1       2.977   4.040  20.166  0.00  0.00    +0.000 A 
ATOM      6  N   UNL     1       3.476   4.998  19.294  0.00  0.00    +0.000 N 
BRANCH   6   7
ATOM      7  C   UNL     1       4.502   4.866  18.305  0.00  0.00    +0.000 A 
ATOM      8  C   UNL     1       5.847   5.100  18.639  0.00  0.00    +0.000 A 
ATOM      9  C   UNL     1       6.851   4.968  17.674  0.00  0.00    +0.000 A 
ATOM     10  C   UNL     1       6.520   4.582  16.384  0.00  0.00    +0.000 A 
ATOM     11  F   UNL     1       7.483   4.444  15.464  0.00  0.00    +0.000 F 
ATOM     12  C   UNL     1       5.199   4.338  16.034  0.00  0.00    +0.000 A 
ATOM     13  C   UNL     1       4.189   4.492  16.989  0.00  0.00    +0.000 A 
ENDBRANCH   6   7
BRANCH   5  14
ATOM     14  S   UNL     1       3.639   2.465  20.454  0.00  0.00    +0.000 S 
ATOM     15  H   UNL     1       2.740   1.781  19.731  0.00  0.00    +0.000 HD
ENDBRANCH   5  14
ENDBRANCH   1   2
BRANCH   1  18
ATOM     16  C   UNL     1       1.344   9.325  18.308  0.00  0.00    +0.000 C 
ATOM     17  O   UNL     1       2.145   9.699  17.455  0.00  0.00    +0.000 OA
ATOM     18  N   UNL     1       1.543   8.177  19.041  0.00  0.00    +0.000 N 
ATOM     19  H   UNL     1       0.849   7.818  19.687  0.00  0.00    +0.000 HD
BRANCH  16  22
ATOM     20  C   UNL     1       0.988  11.543  20.460  0.00  0.00    +0.000 C 
ATOM     21  C   UNL     1      -0.090  11.107  19.502  0.00  0.00    +0.000 A 
ATOM     22  C   UNL     1       0.092  10.102  18.529  0.00  0.00    +0.000 A 
ATOM     23  C   UNL     1      -0.941   9.820  17.604  0.00  0.00    +0.000 A 
ATOM     24  C   UNL     1      -2.161  10.495  17.640  0.00  0.00    +0.000 A 
ATOM     25  C   UNL     1      -2.375  11.463  18.608  0.00  0.00    +0.000 A 
ATOM     26  C   UNL     1      -1.353  11.751  19.525  0.00  0.00    +0.000 A 
BRANCH  26  27
ATOM     27  N   UNL     1      -1.645  12.778  20.513  0.00  0.00    +0.000 N 
ATOM     28  O   UNL     1      -1.387  13.949  20.209  0.00  0.00    +0.000 OA
ATOM     29  O   UNL     1      -2.114  12.400  21.598  0.00  0.00    +0.000 OA
ENDBRANCH  26  27
ENDBRANCH  16  22
ENDBRANCH   1  18
TORSDOF 6
ENDMDL
MODEL 3
REMARK VINA RESULT:      -7.9      1.232      1.439
REMARK  Name = 
REMARK  7 active torsions:
REMARK  status: ('A' for Active; 'I' for Inactive)
REMARK    1  A    between atoms: C_1  and  C_2
REMARK    2  A    between atoms: C_3  and  C_4
REMARK    3  A    between atoms: N_6  and  C_7
REMARK    4  A    between atoms: C_7  and  C_8
REMARK    5  A    between atoms: C_11  and  S_12
REMARK    6  A    between atoms: N_13  and  C_14
REMARK    7  A    between atoms: C_24  and  N_25
REMARK                            x       y       z     vdW  Elec       q    Type
REMARK                         _______ _______ _______ _____ _____    ______ ____
ROOT
ATOM      1  C   UNL     1       2.752   7.385  18.733  0.00  0.00    +0.000 C 
ENDROOT
BRANCH   1   2
ATOM      2  C   UNL     1       2.720   6.103  19.489  0.00  0.00    +0.000 A 
ATOM      3  N   UNL     1       1.856   5.819  20.447  0.00  0.00    +0.000 NA
ATOM      4  N   UNL     1       2.054   4.527  20.838  0.00  0.00    +0.000 NA
ATOM      5  C   UNL     1       3.035   4.035  20.119  0.00  0.00    +0.000 A 
ATOM      6  N   UNL     1       3.508   4.979  19.218  0.00  0.00    +0.000 N 
BRANCH   6   7
ATOM      7  C   UNL     1       4.527   4.841  18.223  0.00  0.00    +0.000 A 
ATOM      8  C   UNL     1       4.195   4.465  16.910  0.00  0.00    +0.000 A 
ATOM      9  C   UNL     1       5.190   4.335  15.936  0.00  0.00    +0.000 A 
ATOM     10  C   UNL     1       6.512   4.599  16.262  0.00  0.00    +0.000 A 
ATOM     11  F   UNL     1       7.462   4.484  15.326  0.00  0.00    +0.000 F 
ATOM     12  C   UNL     1       6.861   4.978  17.550  0.00  0.00    +0.000 A 
ATOM     13  C   UNL     1       5.874   5.088  18.534  0.00  0.00    +0.000 A 
ENDBRANCH   6   7
BRANCH   5  14
ATOM     14  S   UNL     1       3.728   2.481  20.441  0.00  0.00    +0.000 S 
ATOM     15  H   UNL     1       3.045   1.807  19.504  0.00  0.00    +0.000 HD
ENDBRANCH   5  14
ENDBRANCH   1   2
BRANCH   1  18
ATOM     16  C   UNL     1       1.348   9.317  18.252  0.00  0.00    +0.000 C 
ATOM     17  O   UNL     1       2.189   9.755  17.471  0.00  0.00    +0.000 OA
ATOM     18  N   UNL     1       1.517   8.118  18.905  0.00  0.00    +0.000 N 
ATOM     19  H   UNL     1       0.793   7.710  19.488  0.00  0.00    +0.000 HD
BRANCH  16  22
ATOM     20  C   UNL     1       0.951  11.528  20.405  0.00  0.00    +0.000 C 
ATOM     21  C   UNL     1      -0.117  11.076  19.443  0.00  0.00    +0.000 A 
ATOM     22  C   UNL     1       0.083  10.074  18.470  0.00  0.00    +0.000 A 
ATOM     23  C   UNL     1      -0.942   9.777  17.540  0.00  0.00    +0.000 A 
ATOM     24  C   UNL     1      -2.172  10.432  17.573  0.00  0.00    +0.000 A 
ATOM     25  C   UNL     1      -2.404  11.397  18.541  0.00  0.00    +0.000 A 
ATOM     26  C   UNL     1      -1.390  11.700  19.462  0.00  0.00    +0.000 A 
BRANCH  26  27
ATOM     27  N   UNL     1      -1.702  12.722  20.449  0.00  0.00    +0.000 N 
ATOM     28  O   UNL     1      -2.241  12.352  21.498  0.00  0.00    +0.000 OA
ATOM     29  O   UNL     1      -1.422  13.894  20.155  0.00  0.00    +0.000 OA
ENDBRANCH  26  27
ENDBRANCH  16  22
ENDBRANCH   1  18
TORSDOF 6
ENDMDL
MODEL 4
REMARK VINA RESULT:      -7.9      1.347      2.006
REMARK  Name = 
REMARK  7 active torsions:
REMARK  status: ('A' for Active; 'I' for Inactive)
REMARK    1  A    between atoms: C_1  and  C_2
REMARK    2  A    between atoms: C_3  and  C_4
REMARK    3  A    between atoms: N_6  and  C_7
REMARK    4  A    between atoms: C_7  and  C_8
REMARK    5  A    between atoms: C_11  and  S_12
REMARK    6  A    between atoms: N_13  and  C_14
REMARK    7  A    between atoms: C_24  and  N_25
REMARK                            x       y       z     vdW  Elec       q    Type
REMARK                         _______ _______ _______ _____ _____    ______ ____
ROOT
ATOM      1  C   UNL     1       2.772   6.844  19.272  0.00  0.00    +0.000 C 
ENDROOT
BRANCH   1   2
ATOM      2  C   UNL     1       2.909   5.455  19.790  0.00  0.00    +0.000 A 
ATOM      3  N   UNL     1       2.150   4.928  20.735  0.00  0.00    +0.000 NA
ATOM      4  N   UNL     1       2.488   3.614  20.877  0.00  0.00    +0.000 NA
ATOM      5  C   UNL     1       3.448   3.351  20.023  0.00  0.00    +0.000 A 
ATOM      6  N   UNL     1       3.767   4.476  19.276  0.00  0.00    +0.000 N 
BRANCH   6   7
ATOM      7  C   UNL     1       4.713   4.611  18.211  0.00  0.00    +0.000 A 
ATOM      8  C   UNL     1       6.022   5.049  18.472  0.00  0.00    +0.000 A 
ATOM      9  C   UNL     1       6.949   5.177  17.432  0.00  0.00    +0.000 A 
ATOM     10  C   UNL     1       6.579   4.847  16.136  0.00  0.00    +0.000 A 
ATOM     11  F   UNL     1       7.471   4.959  15.143  0.00  0.00    +0.000 F 
ATOM     12  C   UNL     1       5.294   4.406  15.857  0.00  0.00    +0.000 A 
ATOM     13  C   UNL     1       4.357   4.299  16.889  0.00  0.00    +0.000 A 
ENDBRANCH   6   7
BRANCH   5  14
ATOM     14  S   UNL     1       4.296   1.840  20.021  0.00  0.00    +0.000 S 
ATOM     15  H   UNL     1       4.645   1.857  18.726  0.00  0.00    +0.000 HD
ENDBRANCH   5  14
ENDBRANCH   1   2
BRANCH   1  18
ATOM     16  C   UNL     1       1.367   8.770  19.777  0.00  0.00    +0.000 C 
ATOM     17  O   UNL     1       1.233   9.007  18.579  0.00  0.00    +0.000 OA
ATOM     18  N   UNL     1       2.085   7.685  20.228  0.00  0.00    +0.000 N 
ATOM     19  H   UNL     1       2.132   7.435  21.210  0.00  0.00    +0.000 HD
BRANCH  16  22
ATOM     20  C   UNL     1       1.102  11.860  19.539  0.00  0.00    +0.000 C 
ATOM     21  C   UNL     1       0.570  11.047  20.690  0.00  0.00    +0.000 A 
ATOM     22  C   UNL     1       0.696   9.645  20.779  0.00  0.00    +0.000 A 
ATOM     23  C   UNL     1       0.082   8.947  21.846  0.00  0.00    +0.000 A 
ATOM     24  C   UNL     1      -0.630   9.612  22.843  0.00  0.00    +0.000 A 
ATOM     25  C   UNL     1      -0.739  10.993  22.795  0.00  0.00    +0.000 A 
ATOM     26  C   UNL     1      -0.137  11.690  21.737  0.00  0.00    +0.000 A 
BRANCH  26  27
ATOM     27  N   UNL     1      -0.292  13.137  21.750  0.00  0.00    +0.000 N 
ATOM     28  O   UNL     1      -1.302  13.605  21.211  0.00  0.00    +0.000 OA
ATOM     29  O   UNL     1       0.613  13.796  22.284  0.00  0.00    +0.000 OA
ENDBRANCH  26  27
ENDBRANCH  16  22
ENDBRANCH   1  18
TORSDOF 6
ENDMDL
MODEL 5
REMARK VINA RESULT:      -7.9      2.467      3.176
REMARK  Name = 
REMARK  7 active torsions:
REMARK  status: ('A' for Active; 'I' for Inactive)
REMARK    1  A    between atoms: C_1  and  C_2
REMARK    2  A    between atoms: C_3  and  C_4
REMARK    3  A    between atoms: N_6  and  C_7
REMARK    4  A    between atoms: C_7  and  C_8
REMARK    5  A    between atoms: C_11  and  S_12
REMARK    6  A    between atoms: N_13  and  C_14
REMARK    7  A    between atoms: C_24  and  N_25
REMARK                            x       y       z     vdW  Elec       q    Type
REMARK                         _______ _______ _______ _____ _____    ______ ____
ROOT
ATOM      1  C   UNL     1       3.955   4.991  19.786  0.00  0.00    +0.000 C 
ENDROOT
BRANCH   1   2
ATOM      2  C   UNL     1       4.300   4.337  18.494  0.00  0.00    +0.000 A 
ATOM      3  N   UNL     1       3.618   3.347  17.948  0.00  0.00    +0.000 NA
ATOM      4  N   UNL     1       4.156   3.074  16.725  0.00  0.00    +0.000 NA
ATOM      5  C   UNL     1       5.162   3.894  16.536  0.00  0.00    +0.000 A 
ATOM      6  N   UNL     1       5.312   4.749  17.619  0.00  0.00    +0.000 N 
BRANCH   6   7
ATOM      7  C   UNL     1       6.244   5.820  17.797  0.00  0.00    +0.000 A 
ATOM      8  C   UNL     1       6.070   7.038  17.117  0.00  0.00    +0.000 A 
ATOM      9  C   UNL     1       6.978   8.087  17.294  0.00  0.00    +0.000 A 
ATOM     10  C   UNL     1       8.046   7.932  18.165  0.00  0.00    +0.000 A 
ATOM     11  F   UNL     1       8.909   8.941  18.342  0.00  0.00    +0.000 F 
ATOM     12  C   UNL     1       8.234   6.741  18.852  0.00  0.00    +0.000 A 
ATOM     13  C   UNL     1       7.342   5.681  18.661  0.00  0.00    +0.000 A 
ENDBRANCH   6   7
BRANCH   5  14
ATOM     14  S   UNL     1       6.237   3.744  15.186  0.00  0.00    +0.000 S 
ATOM     15  H   UNL     1       6.900   4.893  15.384  0.00  0.00    +0.000 HD
ENDBRANCH   5  14
ENDBRANCH   1   2
BRANCH   1  18
ATOM     16  C   UNL     1       2.198   6.678  19.844  0.00  0.00    +0.000 C 
ATOM     17  O   UNL     1       1.412   5.867  20.328  0.00  0.00    +0.000 OA
ATOM     18  N   UNL     1       3.507   6.350  19.573  0.00  0.00    +0.000 N 
ATOM     19  H   UNL     1       4.182   7.035  19.251  0.00  0.00    +0.000 HD
BRANCH  16  22
ATOM     20  C   UNL     1       0.938   8.558  21.978  0.00  0.00    +0.000 C 
ATOM     21  C   UNL     1       1.168   8.939  20.539  0.00  0.00    +0.000 A 
ATOM     22  C   UNL     1       1.745   8.074  19.586  0.00  0.00    +0.000 A 
ATOM     23  C   UNL     1       2.017   8.543  18.279  0.00  0.00    +0.000 A 
ATOM     24  C   UNL     1       1.702   9.844  17.887  0.00  0.00    +0.000 A 
ATOM     25  C   UNL     1       1.104  10.702  18.796  0.00  0.00    +0.000 A 
ATOM     26  C   UNL     1       0.837  10.244  20.096  0.00  0.00    +0.000 A 
BRANCH  26  27
ATOM     27  N   UNL     1       0.208  11.198  20.997  0.00  0.00    +0.000 N 
ATOM     28  O   UNL     1      -1.027  11.193  21.057  0.00  0.00    +0.000 OA
ATOM     29  O   UNL     1       0.959  11.962  21.623  0.00  0.00    +0.000 OA
ENDBRANCH  26  27
ENDBRANCH  16  22
ENDBRANCH   1  18
TORSDOF 6
ENDMDL
MODEL 6
REMARK VINA RESULT:      -7.8      2.735      3.851
REMARK  Name = 
REMARK  7 active torsions:
REMARK  status: ('A' for Active; 'I' for Inactive)
REMARK    1  A    between atoms: C_1  and  C_2
REMARK    2  A    between atoms: C_3  and  C_4
REMARK    3  A    between atoms: N_6  and  C_7
REMARK    4  A    between atoms: C_7  and  C_8
REMARK    5  A    between atoms: C_11  and  S_12
REMARK    6  A    between atoms: N_13  and  C_14
REMARK    7  A    between atoms: C_24  and  N_25
REMARK                            x       y       z     vdW  Elec       q    Type
REMARK                         _______ _______ _______ _____ _____    ______ ____
ROOT
ATOM      1  C   UNL     1       4.032   4.572  19.733  0.00  0.00    +0.000 C 
ENDROOT
BRANCH   1   2
ATOM      2  C   UNL     1       4.218   4.233  18.296  0.00  0.00    +0.000 A 
ATOM      3  N   UNL     1       3.424   3.435  17.604  0.00  0.00    +0.000 NA
ATOM      4  N   UNL     1       3.834   3.440  16.303  0.00  0.00    +0.000 NA
ATOM      5  C   UNL     1       4.872   4.237  16.211  0.00  0.00    +0.000 A 
ATOM      6  N   UNL     1       5.174   4.798  17.444  0.00  0.00    +0.000 N 
BRANCH   6   7
ATOM      7  C   UNL     1       6.189   5.751  17.774  0.00  0.00    +0.000 A 
ATOM      8  C   UNL     1       6.198   7.020  17.170  0.00  0.00    +0.000 A 
ATOM      9  C   UNL     1       7.187   7.955  17.496  0.00  0.00    +0.000 A 
ATOM     10  C   UNL     1       8.153   7.634  18.438  0.00  0.00    +0.000 A 
ATOM     11  F   UNL     1       9.092   8.534  18.756  0.00  0.00    +0.000 F 
ATOM     12  C   UNL     1       8.159   6.390  19.052  0.00  0.00    +0.000 A 
ATOM     13  C   UNL     1       7.187   5.444  18.713  0.00  0.00    +0.000 A 
ENDBRANCH   6   7
BRANCH   5  14
ATOM     14  S   UNL     1       5.813   4.368  14.762  0.00  0.00    +0.000 S 
ATOM     15  H   UNL     1       5.974   3.052  14.560  0.00  0.00    +0.000 HD
ENDBRANCH   5  14
ENDBRANCH   1   2
BRANCH   1  18
ATOM     16  C   UNL     1       2.209   6.120  20.196  0.00  0.00    +0.000 C 
ATOM     17  O   UNL     1       1.446   5.182  20.415  0.00  0.00    +0.000 OA
ATOM     18  N   UNL     1       3.535   5.922  19.886  0.00  0.00    +0.000 N 
ATOM     19  H   UNL     1       4.190   6.690  19.784  0.00  0.00    +0.000 HD
BRANCH  16  22
ATOM     20  C   UNL     1       2.056   8.156  17.849  0.00  0.00    +0.000 C 
ATOM     21  C   UNL     1       1.635   8.456  19.263  0.00  0.00    +0.000 A 
ATOM     22  C   UNL     1       1.707   7.518  20.315  0.00  0.00    +0.000 A 
ATOM     23  C   UNL     1       1.200   7.849  21.593  0.00  0.00    +0.000 A 
ATOM     24  C   UNL     1       0.648   9.102  21.861  0.00  0.00    +0.000 A 
ATOM     25  C   UNL     1       0.596  10.051  20.852  0.00  0.00    +0.000 A 
ATOM     26  C   UNL     1       1.092   9.727  19.581  0.00  0.00    +0.000 A 
BRANCH  26  27
ATOM     27  N   UNL     1       1.005  10.771  18.571  0.00  0.00    +0.000 N 
ATOM     28  O   UNL     1      -0.103  10.981  18.064  0.00  0.00    +0.000 OA
ATOM     29  O   UNL     1       2.057  11.360  18.278  0.00  0.00    +0.000 OA
ENDBRANCH  26  27
ENDBRANCH  16  22
ENDBRANCH   1  18
TORSDOF 6
ENDMDL
MODEL 7
REMARK VINA RESULT:      -7.8      2.406      3.189
REMARK  Name = 
REMARK  7 active torsions:
REMARK  status: ('A' for Active; 'I' for Inactive)
REMARK    1  A    between atoms: C_1  and  C_2
REMARK    2  A    between atoms: C_3  and  C_4
REMARK    3  A    between atoms: N_6  and  C_7
REMARK    4  A    between atoms: C_7  and  C_8
REMARK    5  A    between atoms: C_11  and  S_12
REMARK    6  A    between atoms: N_13  and  C_14
REMARK    7  A    between atoms: C_24  and  N_25
REMARK                            x       y       z     vdW  Elec       q    Type
REMARK                         _______ _______ _______ _____ _____    ______ ____
ROOT
ATOM      1  C   UNL     1       3.686   5.131  19.752  0.00  0.00    +0.000 C 
ENDROOT
BRANCH   1   2
ATOM      2  C   UNL     1       4.053   4.460  18.474  0.00  0.00    +0.000 A 
ATOM      3  N   UNL     1       3.325   3.533  17.878  0.00  0.00    +0.000 NA
ATOM      4  N   UNL     1       3.912   3.225  16.685  0.00  0.00    +0.000 NA
ATOM      5  C   UNL     1       4.990   3.963  16.564  0.00  0.00    +0.000 A 
ATOM      6  N   UNL     1       5.144   4.794  17.665  0.00  0.00    +0.000 N 
BRANCH   6   7
ATOM      7  C   UNL     1       6.148   5.784  17.911  0.00  0.00    +0.000 A 
ATOM      8  C   UNL     1       7.167   5.548  18.849  0.00  0.00    +0.000 A 
ATOM      9  C   UNL     1       8.152   6.513  19.086  0.00  0.00    +0.000 A 
ATOM     10  C   UNL     1       8.134   7.703  18.375  0.00  0.00    +0.000 A 
ATOM     11  F   UNL     1       9.084   8.621  18.595  0.00  0.00    +0.000 F 
ATOM     12  C   UNL     1       7.142   7.955  17.439  0.00  0.00    +0.000 A 
ATOM     13  C   UNL     1       6.142   7.003  17.214  0.00  0.00    +0.000 A 
ENDBRANCH   6   7
BRANCH   5  14
ATOM     14  S   UNL     1       6.128   3.735  15.278  0.00  0.00    +0.000 S 
ATOM     15  H   UNL     1       5.944   2.414  15.137  0.00  0.00    +0.000 HD
ENDBRANCH   5  14
ENDBRANCH   1   2
BRANCH   1  18
ATOM     16  C   UNL     1       2.050   6.914  20.039  0.00  0.00    +0.000 C 
ATOM     17  O   UNL     1       1.367   6.193  20.762  0.00  0.00    +0.000 OA
ATOM     18  N   UNL     1       3.250   6.490  19.515  0.00  0.00    +0.000 N 
ATOM     19  H   UNL     1       3.859   7.105  18.985  0.00  0.00    +0.000 HD
BRANCH  16  22
ATOM     20  C   UNL     1       0.909   8.878  22.164  0.00  0.00    +0.000 C 
ATOM     21  C   UNL     1       1.078   9.209  20.704  0.00  0.00    +0.000 A 
ATOM     22  C   UNL     1       1.602   8.306  19.755  0.00  0.00    +0.000 A 
ATOM     23  C   UNL     1       1.819   8.729  18.422  0.00  0.00    +0.000 A 
ATOM     24  C   UNL     1       1.500  10.020  18.002  0.00  0.00    +0.000 A 
ATOM     25  C   UNL     1       0.953  10.914  18.909  0.00  0.00    +0.000 A 
ATOM     26  C   UNL     1       0.741  10.503  20.233  0.00  0.00    +0.000 A 
BRANCH  26  27
ATOM     27  N   UNL     1       0.164  11.494  21.130  0.00  0.00    +0.000 N 
ATOM     28  O   UNL     1       0.931  12.330  21.620  0.00  0.00    +0.000 OA
ATOM     29  O   UNL     1      -1.053  11.411  21.352  0.00  0.00    +0.000 OA
ENDBRANCH  26  27
ENDBRANCH  16  22
ENDBRANCH   1  18
TORSDOF 6
ENDMDL
MODEL 8
REMARK VINA RESULT:      -7.8      2.742      3.951
REMARK  Name = 
REMARK  7 active torsions:
REMARK  status: ('A' for Active; 'I' for Inactive)
REMARK    1  A    between atoms: C_1  and  C_2
REMARK    2  A    between atoms: C_3  and  C_4
REMARK    3  A    between atoms: N_6  and  C_7
REMARK    4  A    between atoms: C_7  and  C_8
REMARK    5  A    between atoms: C_11  and  S_12
REMARK    6  A    between atoms: N_13  and  C_14
REMARK    7  A    between atoms: C_24  and  N_25
REMARK                            x       y       z     vdW  Elec       q    Type
REMARK                         _______ _______ _______ _____ _____    ______ ____
ROOT
ATOM      1  C   UNL     1       4.056   4.521  19.722  0.00  0.00    +0.000 C 
ENDROOT
BRANCH   1   2
ATOM      2  C   UNL     1       4.241   4.217  18.277  0.00  0.00    +0.000 A 
ATOM      3  N   UNL     1       3.460   3.417  17.572  0.00  0.00    +0.000 NA
ATOM      4  N   UNL     1       3.863   3.458  16.270  0.00  0.00    +0.000 NA
ATOM      5  C   UNL     1       4.885   4.277  16.190  0.00  0.00    +0.000 A 
ATOM      6  N   UNL     1       5.182   4.818  17.433  0.00  0.00    +0.000 N 
BRANCH   6   7
ATOM      7  C   UNL     1       6.179   5.784  17.779  0.00  0.00    +0.000 A 
ATOM      8  C   UNL     1       7.176   5.474  18.720  0.00  0.00    +0.000 A 
ATOM      9  C   UNL     1       8.155   6.415  19.055  0.00  0.00    +0.000 A 
ATOM     10  C   UNL     1       8.154   7.658  18.437  0.00  0.00    +0.000 A 
ATOM     11  F   UNL     1       9.098   8.554  18.751  0.00  0.00    +0.000 F 
ATOM     12  C   UNL     1       7.184   7.983  17.500  0.00  0.00    +0.000 A 
ATOM     13  C   UNL     1       6.190   7.053  17.179  0.00  0.00    +0.000 A 
ENDBRANCH   6   7
BRANCH   5  14
ATOM     14  S   UNL     1       5.815   4.457  14.740  0.00  0.00    +0.000 S 
ATOM     15  H   UNL     1       7.023   4.383  15.318  0.00  0.00    +0.000 HD
ENDBRANCH   5  14
ENDBRANCH   1   2
BRANCH   1  18
ATOM     16  C   UNL     1       2.233   6.094  20.093  0.00  0.00    +0.000 C 
ATOM     17  O   UNL     1       1.429   5.168  20.175  0.00  0.00    +0.000 OA
ATOM     18  N   UNL     1       3.579   5.874  19.908  0.00  0.00    +0.000 N 
ATOM     19  H   UNL     1       4.259   6.627  19.922  0.00  0.00    +0.000 HD
BRANCH  16  22
ATOM     20  C   UNL     1       2.056   8.173  17.786  0.00  0.00    +0.000 C 
ATOM     21  C   UNL     1       1.673   8.454  19.215  0.00  0.00    +0.000 A 
ATOM     22  C   UNL     1       1.755   7.497  20.248  0.00  0.00    +0.000 A 
ATOM     23  C   UNL     1       1.283   7.813  21.544  0.00  0.00    +0.000 A 
ATOM     24  C   UNL     1       0.756   9.068  21.845  0.00  0.00    +0.000 A 
ATOM     25  C   UNL     1       0.696  10.036  20.855  0.00  0.00    +0.000 A 
ATOM     26  C   UNL     1       1.157   9.727  19.567  0.00  0.00    +0.000 A 
BRANCH  26  27
ATOM     27  N   UNL     1       1.063  10.790  18.578  0.00  0.00    +0.000 N 
ATOM     28  O   UNL     1       2.107  11.381  18.277  0.00  0.00    +0.000 OA
ATOM     29  O   UNL     1      -0.064  11.040  18.124  0.00  0.00    +0.000 OA
ENDBRANCH  26  27
ENDBRANCH  16  22
ENDBRANCH   1  18
TORSDOF 6
ENDMDL
MODEL 9
REMARK VINA RESULT:      -7.8      0.899      1.308
REMARK  Name = 
REMARK  7 active torsions:
REMARK  status: ('A' for Active; 'I' for Inactive)
REMARK    1  A    between atoms: C_1  and  C_2
REMARK    2  A    between atoms: C_3  and  C_4
REMARK    3  A    between atoms: N_6  and  C_7
REMARK    4  A    between atoms: C_7  and  C_8
REMARK    5  A    between atoms: C_11  and  S_12
REMARK    6  A    between atoms: N_13  and  C_14
REMARK    7  A    between atoms: C_24  and  N_25
REMARK                            x       y       z     vdW  Elec       q    Type
REMARK                         _______ _______ _______ _____ _____    ______ ____
ROOT
ATOM      1  C   UNL     1       2.672   6.898  18.397  0.00  0.00    +0.000 C 
ENDROOT
BRANCH   1   2
ATOM      2  C   UNL     1       2.855   5.633  19.160  0.00  0.00    +0.000 A 
ATOM      3  N   UNL     1       2.078   5.237  20.152  0.00  0.00    +0.000 NA
ATOM      4  N   UNL     1       2.477   3.991  20.541  0.00  0.00    +0.000 NA
ATOM      5  C   UNL     1       3.493   3.641  19.789  0.00  0.00    +0.000 A 
ATOM      6  N   UNL     1       3.789   4.634  18.866  0.00  0.00    +0.000 N 
BRANCH   6   7
ATOM      7  C   UNL     1       4.781   4.636  17.834  0.00  0.00    +0.000 A 
ATOM      8  C   UNL     1       6.065   5.151  18.080  0.00  0.00    +0.000 A 
ATOM      9  C   UNL     1       7.037   5.149  17.074  0.00  0.00    +0.000 A 
ATOM     10  C   UNL     1       6.737   4.615  15.829  0.00  0.00    +0.000 A 
ATOM     11  F   UNL     1       7.671   4.604  14.870  0.00  0.00    +0.000 F 
ATOM     12  C   UNL     1       5.477   4.095  15.566  0.00  0.00    +0.000 A 
ATOM     13  C   UNL     1       4.496   4.116  16.562  0.00  0.00    +0.000 A 
ENDBRANCH   6   7
BRANCH   5  14
ATOM     14  S   UNL     1       4.418   2.208  20.092  0.00  0.00    +0.000 S 
ATOM     15  H   UNL     1       4.719   1.941  18.813  0.00  0.00    +0.000 HD
ENDBRANCH   5  14
ENDBRANCH   1   2
BRANCH   1  18
ATOM     16  C   UNL     1       1.603   9.072  18.658  0.00  0.00    +0.000 C 
ATOM     17  O   UNL     1       1.546   9.209  17.439  0.00  0.00    +0.000 OA
ATOM     18  N   UNL     1       2.113   7.933  19.239  0.00  0.00    +0.000 N 
ATOM     19  H   UNL     1       2.088   7.777  20.241  0.00  0.00    +0.000 HD
BRANCH  16  22
ATOM     20  C   UNL     1       0.103   8.569  21.336  0.00  0.00    +0.000 C 
ATOM     21  C   UNL     1       0.376   9.932  20.758  0.00  0.00    +0.000 A 
ATOM     22  C   UNL     1       1.063  10.142  19.544  0.00  0.00    +0.000 A 
ATOM     23  C   UNL     1       1.364  11.458  19.120  0.00  0.00    +0.000 A 
ATOM     24  C   UNL     1       0.974  12.573  19.861  0.00  0.00    +0.000 A 
ATOM     25  C   UNL     1       0.269  12.393  21.041  0.00  0.00    +0.000 A 
ATOM     26  C   UNL     1      -0.028  11.091  21.469  0.00  0.00    +0.000 A 
BRANCH  26  27
ATOM     27  N   UNL     1      -0.769  10.977  22.716  0.00  0.00    +0.000 N 
ATOM     28  O   UNL     1      -0.249  10.325  23.628  0.00  0.00    +0.000 OA
ATOM     29  O   UNL     1      -1.880  11.527  22.763  0.00  0.00    +0.000 OA
ENDBRANCH  26  27
ENDBRANCH  16  22
ENDBRANCH   1  18
TORSDOF 6
ENDMDL
