MODEL 1
REMARK VINA RESULT:      -7.7      0.000      0.000
REMARK  Name = 
REMARK  7 active torsions:
REMARK  status: ('A' for Active; 'I' for Inactive)
REMARK    1  A    between atoms: C_1  and  O_2
REMARK    2  A    between atoms: O_2  and  C_3
REMARK    3  A    between atoms: C_7  and  N_8
REMARK    4  A    between atoms: N_11  and  C_12
REMARK    5  A    between atoms: C_12  and  C_13
REMARK    6  A    between atoms: N_15  and  C_16
REMARK    7  A    between atoms: N_15  and  C_22
REMARK                            x       y       z     vdW  Elec       q    Type
REMARK                         _______ _______ _______ _____ _____    ______ ____
ROOT
ATOM      1  C   UNL     1       3.982   4.681  18.609  0.00  0.00    +0.000 C 
ENDROOT
BRANCH   1   5
ATOM      2  N   UNL     1       2.050   7.422  20.026  0.00  0.00    +0.000 N 
ATOM      3  C   UNL     1       2.118   6.089  20.645  0.00  0.00    +0.000 C 
ATOM      4  C   UNL     1       1.779   4.981  19.619  0.00  0.00    +0.000 C 
ATOM      5  N   UNL     1       2.561   5.040  18.361  0.00  0.00    +0.000 NA
ATOM      6  C   UNL     1       2.392   6.400  17.791  0.00  0.00    +0.000 C 
ATOM      7  C   UNL     1       2.747   7.571  18.739  0.00  0.00    +0.000 C 
BRANCH   2  12
ATOM      8  C   UNL     1      -0.152  10.419  20.186  0.00  0.00    +0.000 A 
ATOM      9  C   UNL     1      -0.319  10.550  21.561  0.00  0.00    +0.000 A 
ATOM     10  C   UNL     1       0.291   9.648  22.427  0.00  0.00    +0.000 A 
ATOM     11  C   UNL     1       1.074   8.608  21.909  0.00  0.00    +0.000 A 
ATOM     12  C   UNL     1       1.267   8.445  20.531  0.00  0.00    +0.000 A 
ATOM     13  C   UNL     1       0.634   9.374  19.687  0.00  0.00    +0.000 A 
BRANCH   8  15
ATOM     14  C   UNL     1      -1.323  10.938  18.185  0.00  0.00    +0.000 C 
ATOM     15  O   UNL     1      -0.789  11.368  19.431  0.00  0.00    +0.000 OA
ENDBRANCH   8  15
ENDBRANCH   2  12
ENDBRANCH   1   5
BRANCH   1  16
ATOM     16  C   UNL     1       4.635   3.968  17.403  0.00  0.00    +0.000 C 
ATOM     17  O   UNL     1       4.303   2.824  17.080  0.00  0.00    +0.000 OA
ATOM     18  N   UNL     1       5.565   4.753  16.689  0.00  0.00    +0.000 N 
BRANCH  18  19
ATOM     19  C   UNL     1       6.427   5.664  17.371  0.00  0.00    +0.000 A 
ATOM     20  C   UNL     1       7.243   5.213  18.417  0.00  0.00    +0.000 A 
ATOM     21  C   UNL     1       8.136   6.091  19.038  0.00  0.00    +0.000 A 
ATOM     22  C   UNL     1       8.196   7.426  18.642  0.00  0.00    +0.000 A 
ATOM     23  C   UNL     1       7.367   7.888  17.620  0.00  0.00    +0.000 A 
ATOM     24  C   UNL     1       6.490   7.009  16.980  0.00  0.00    +0.000 A 
ENDBRANCH  18  19
BRANCH  18  25
ATOM     25  C   UNL     1       5.849   4.494  15.297  0.00  0.00    +0.000 A 
ATOM     26  C   UNL     1       7.134   4.723  14.777  0.00  0.00    +0.000 A 
ATOM     27  C   UNL     1       7.430   4.489  13.430  0.00  0.00    +0.000 A 
ATOM     28  C   UNL     1       6.448   4.012  12.572  0.00  0.00    +0.000 A 
ATOM     29  C   UNL     1       5.169   3.768  13.060  0.00  0.00    +0.000 A 
ATOM     30  C   UNL     1       4.874   4.005  14.407  0.00  0.00    +0.000 A 
ENDBRANCH  18  25
ENDBRANCH   1  16
TORSDOF 6
ENDMDL
MODEL 2
REMARK VINA RESULT:      -7.7      0.885      1.938
REMARK  Name = 
REMARK  7 active torsions:
REMARK  status: ('A' for Active; 'I' for Inactive)
REMARK    1  A    between atoms: C_1  and  O_2
REMARK    2  A    between atoms: O_2  and  C_3
REMARK    3  A    between atoms: C_7  and  N_8
REMARK    4  A    between atoms: N_11  and  C_12
REMARK    5  A    between atoms: C_12  and  C_13
REMARK    6  A    between atoms: N_15  and  C_16
REMARK    7  A    between atoms: N_15  and  C_22
REMARK                            x       y       z     vdW  Elec       q    Type
REMARK                         _______ _______ _______ _____ _____    ______ ____
ROOT
ATOM      1  C   UNL     1       4.174   4.603  18.583  0.00  0.00    +0.000 C 
ENDROOT
BRANCH   1   5
ATOM      2  N   UNL     1       2.200   7.460  19.674  0.00  0.00    +0.000 N 
ATOM      3  C   UNL     1       2.405   6.267  20.508  0.00  0.00    +0.000 C 
ATOM      4  C   UNL     1       2.050   4.976  19.730  0.00  0.00    +0.000 C 
ATOM      5  N   UNL     1       2.716   4.843  18.412  0.00  0.00    +0.000 NA
ATOM      6  C   UNL     1       2.413   6.068  17.631  0.00  0.00    +0.000 C 
ATOM      7  C   UNL     1       2.773   7.408  18.320  0.00  0.00    +0.000 C 
BRANCH   2  12
ATOM      8  C   UNL     1       0.038   9.661  21.759  0.00  0.00    +0.000 A 
ATOM      9  C   UNL     1      -0.252  10.677  20.854  0.00  0.00    +0.000 A 
ATOM     10  C   UNL     1       0.269  10.634  19.566  0.00  0.00    +0.000 A 
ATOM     11  C   UNL     1       1.087   9.564  19.181  0.00  0.00    +0.000 A 
ATOM     12  C   UNL     1       1.400   8.520  20.063  0.00  0.00    +0.000 A 
ATOM     13  C   UNL     1       0.856   8.599  21.357  0.00  0.00    +0.000 A 
BRANCH   8  15
ATOM     14  C   UNL     1      -1.333  10.962  23.197  0.00  0.00    +0.000 C 
ATOM     15  O   UNL     1      -0.537   9.801  22.993  0.00  0.00    +0.000 OA
ENDBRANCH   8  15
ENDBRANCH   2  12
ENDBRANCH   1   5
BRANCH   1  16
ATOM     16  C   UNL     1       4.809   3.906  17.358  0.00  0.00    +0.000 C 
ATOM     17  O   UNL     1       4.493   2.757  17.040  0.00  0.00    +0.000 OA
ATOM     18  N   UNL     1       5.704   4.712  16.622  0.00  0.00    +0.000 N 
BRANCH  18  19
ATOM     19  C   UNL     1       6.564   5.640  17.283  0.00  0.00    +0.000 A 
ATOM     20  C   UNL     1       6.579   6.987  16.895  0.00  0.00    +0.000 A 
ATOM     21  C   UNL     1       7.371   7.907  17.587  0.00  0.00    +0.000 A 
ATOM     22  C   UNL     1       8.172   7.485  18.646  0.00  0.00    +0.000 A 
ATOM     23  C   UNL     1       8.183   6.141  19.021  0.00  0.00    +0.000 A 
ATOM     24  C   UNL     1       7.376   5.222  18.347  0.00  0.00    +0.000 A 
ENDBRANCH  18  19
BRANCH  18  25
ATOM     25  C   UNL     1       5.955   4.463  15.222  0.00  0.00    +0.000 A 
ATOM     26  C   UNL     1       4.950   3.919  14.404  0.00  0.00    +0.000 A 
ATOM     27  C   UNL     1       5.172   3.658  13.048  0.00  0.00    +0.000 A 
ATOM     28  C   UNL     1       6.404   3.944  12.475  0.00  0.00    +0.000 A 
ATOM     29  C   UNL     1       7.415   4.491  13.258  0.00  0.00    +0.000 A 
ATOM     30  C   UNL     1       7.192   4.749  14.615  0.00  0.00    +0.000 A 
ENDBRANCH  18  25
ENDBRANCH   1  16
TORSDOF 6
ENDMDL
MODEL 3
REMARK VINA RESULT:      -7.6      2.540      4.918
REMARK  Name = 
REMARK  7 active torsions:
REMARK  status: ('A' for Active; 'I' for Inactive)
REMARK    1  A    between atoms: C_1  and  O_2
REMARK    2  A    between atoms: O_2  and  C_3
REMARK    3  A    between atoms: C_7  and  N_8
REMARK    4  A    between atoms: N_11  and  C_12
REMARK    5  A    between atoms: C_12  and  C_13
REMARK    6  A    between atoms: N_15  and  C_16
REMARK    7  A    between atoms: N_15  and  C_22
REMARK                            x       y       z     vdW  Elec       q    Type
REMARK                         _______ _______ _______ _____ _____    ______ ____
ROOT
ATOM      1  C   UNL     1       2.154   7.776  20.092  0.00  0.00    +0.000 C 
ENDROOT
BRANCH   1   5
ATOM      2  N   UNL     1       0.244  10.482  21.604  0.00  0.00    +0.000 N 
ATOM      3  C   UNL     1       0.257   9.115  22.145  0.00  0.00    +0.000 C 
ATOM      4  C   UNL     1      -0.074   8.077  21.045  0.00  0.00    +0.000 C 
ATOM      5  N   UNL     1       0.751   8.188  19.819  0.00  0.00    +0.000 NA
ATOM      6  C   UNL     1       0.636   9.582  19.325  0.00  0.00    +0.000 C 
ATOM      7  C   UNL     1       0.988  10.687  20.351  0.00  0.00    +0.000 C 
BRANCH   2  12
ATOM      8  C   UNL     1      -2.508  12.241  23.390  0.00  0.00    +0.000 A 
ATOM      9  C   UNL     1      -2.122  13.567  23.226  0.00  0.00    +0.000 A 
ATOM     10  C   UNL     1      -0.956  13.874  22.533  0.00  0.00    +0.000 A 
ATOM     11  C   UNL     1      -0.172  12.843  22.000  0.00  0.00    +0.000 A 
ATOM     12  C   UNL     1      -0.529  11.495  22.142  0.00  0.00    +0.000 A 
ATOM     13  C   UNL     1      -1.713  11.224  22.849  0.00  0.00    +0.000 A 
BRANCH   8  15
ATOM     14  C   UNL     1      -4.423  13.228  24.392  0.00  0.00    +0.000 C 
ATOM     15  O   UNL     1      -3.677  12.057  24.078  0.00  0.00    +0.000 OA
ENDBRANCH   8  15
ENDBRANCH   2  12
ENDBRANCH   1   5
BRANCH   1  16
ATOM     16  C   UNL     1       2.874   7.244  18.832  0.00  0.00    +0.000 C 
ATOM     17  O   UNL     1       3.079   7.972  17.856  0.00  0.00    +0.000 OA
ATOM     18  N   UNL     1       3.322   5.910  18.930  0.00  0.00    +0.000 N 
BRANCH  18  19
ATOM     19  C   UNL     1       2.551   4.930  19.625  0.00  0.00    +0.000 A 
ATOM     20  C   UNL     1       1.476   4.297  18.986  0.00  0.00    +0.000 A 
ATOM     21  C   UNL     1       0.765   3.289  19.643  0.00  0.00    +0.000 A 
ATOM     22  C   UNL     1       1.099   2.933  20.948  0.00  0.00    +0.000 A 
ATOM     23  C   UNL     1       2.150   3.578  21.601  0.00  0.00    +0.000 A 
ATOM     24  C   UNL     1       2.879   4.569  20.939  0.00  0.00    +0.000 A 
ENDBRANCH  18  19
BRANCH  18  25
ATOM     25  C   UNL     1       4.434   5.435  18.140  0.00  0.00    +0.000 A 
ATOM     26  C   UNL     1       5.748   5.532  18.629  0.00  0.00    +0.000 A 
ATOM     27  C   UNL     1       6.842   5.088  17.879  0.00  0.00    +0.000 A 
ATOM     28  C   UNL     1       6.646   4.529  16.623  0.00  0.00    +0.000 A 
ATOM     29  C   UNL     1       5.357   4.412  16.117  0.00  0.00    +0.000 A 
ATOM     30  C   UNL     1       4.263   4.859  16.867  0.00  0.00    +0.000 A 
ENDBRANCH  18  25
ENDBRANCH   1  16
TORSDOF 6
ENDMDL
MODEL 4
REMARK VINA RESULT:      -7.6      0.282      1.274
REMARK  Name = 
REMARK  7 active torsions:
REMARK  status: ('A' for Active; 'I' for Inactive)
REMARK    1  A    between atoms: C_1  and  O_2
REMARK    2  A    between atoms: O_2  and  C_3
REMARK    3  A    between atoms: C_7  and  N_8
REMARK    4  A    between atoms: N_11  and  C_12
REMARK    5  A    between atoms: C_12  and  C_13
REMARK    6  A    between atoms: N_15  and  C_16
REMARK    7  A    between atoms: N_15  and  C_22
REMARK                            x       y       z     vdW  Elec       q    Type
REMARK                         _______ _______ _______ _____ _____    ______ ____
ROOT
ATOM      1  C   UNL     1       4.096   4.634  18.452  0.00  0.00    +0.000 C 
ENDROOT
BRANCH   1   5
ATOM      2  N   UNL     1       2.156   7.352  19.901  0.00  0.00    +0.000 N 
ATOM      3  C   UNL     1       2.231   6.014  20.507  0.00  0.00    +0.000 C 
ATOM      4  C   UNL     1       1.894   4.914  19.472  0.00  0.00    +0.000 C 
ATOM      5  N   UNL     1       2.672   4.988  18.212  0.00  0.00    +0.000 NA
ATOM      6  C   UNL     1       2.495   6.352  17.655  0.00  0.00    +0.000 C 
ATOM      7  C   UNL     1       2.847   7.517  18.613  0.00  0.00    +0.000 C 
BRANCH   2  12
ATOM      8  C   UNL     1       0.150  10.480  20.135  0.00  0.00    +0.000 A 
ATOM      9  C   UNL     1      -0.223  10.453  21.475  0.00  0.00    +0.000 A 
ATOM     10  C   UNL     1       0.184   9.403  22.292  0.00  0.00    +0.000 A 
ATOM     11  C   UNL     1       0.971   8.374  21.761  0.00  0.00    +0.000 A 
ATOM     12  C   UNL     1       1.369   8.367  20.417  0.00  0.00    +0.000 A 
ATOM     13  C   UNL     1       0.938   9.443  19.622  0.00  0.00    +0.000 A 
BRANCH   8  15
ATOM     14  C   UNL     1      -1.626  11.493  18.925  0.00  0.00    +0.000 C 
ATOM     15  O   UNL     1      -0.297  11.565  19.429  0.00  0.00    +0.000 OA
ENDBRANCH   8  15
ENDBRANCH   2  12
ENDBRANCH   1   5
BRANCH   1  16
ATOM     16  C   UNL     1       4.747   3.929  17.240  0.00  0.00    +0.000 C 
ATOM     17  O   UNL     1       4.416   2.788  16.909  0.00  0.00    +0.000 OA
ATOM     18  N   UNL     1       5.675   4.720  16.530  0.00  0.00    +0.000 N 
BRANCH  18  19
ATOM     19  C   UNL     1       6.537   5.628  17.216  0.00  0.00    +0.000 A 
ATOM     20  C   UNL     1       6.558   6.984  16.861  0.00  0.00    +0.000 A 
ATOM     21  C   UNL     1       7.352   7.884  17.579  0.00  0.00    +0.000 A 
ATOM     22  C   UNL     1       8.150   7.432  18.628  0.00  0.00    +0.000 A 
ATOM     23  C   UNL     1       8.155   6.079  18.968  0.00  0.00    +0.000 A 
ATOM     24  C   UNL     1       7.346   5.180  18.270  0.00  0.00    +0.000 A 
ENDBRANCH  18  19
BRANCH  18  25
ATOM     25  C   UNL     1       5.956   4.472  15.135  0.00  0.00    +0.000 A 
ATOM     26  C   UNL     1       4.980   3.894  14.304  0.00  0.00    +0.000 A 
ATOM     27  C   UNL     1       5.231   3.633  12.954  0.00  0.00    +0.000 A 
ATOM     28  C   UNL     1       6.463   3.953  12.398  0.00  0.00    +0.000 A 
ATOM     29  C   UNL     1       7.445   4.534  13.193  0.00  0.00    +0.000 A 
ATOM     30  C   UNL     1       7.193   4.791  14.546  0.00  0.00    +0.000 A 
ENDBRANCH  18  25
ENDBRANCH   1  16
TORSDOF 6
ENDMDL
MODEL 5
REMARK VINA RESULT:      -7.6      2.368      4.958
REMARK  Name = 
REMARK  7 active torsions:
REMARK  status: ('A' for Active; 'I' for Inactive)
REMARK    1  A    between atoms: C_1  and  O_2
REMARK    2  A    between atoms: O_2  and  C_3
REMARK    3  A    between atoms: C_7  and  N_8
REMARK    4  A    between atoms: N_11  and  C_12
REMARK    5  A    between atoms: C_12  and  C_13
REMARK    6  A    between atoms: N_15  and  C_16
REMARK    7  A    between atoms: N_15  and  C_22
REMARK                            x       y       z     vdW  Elec       q    Type
REMARK                         _______ _______ _______ _____ _____    ______ ____
ROOT
ATOM      1  C   UNL     1       1.794   7.607  18.925  0.00  0.00    +0.000 C 
ENDROOT
BRANCH   1   5
ATOM      2  N   UNL     1      -0.515  10.171  20.083  0.00  0.00    +0.000 N 
ATOM      3  C   UNL     1       0.016  10.136  18.712  0.00  0.00    +0.000 C 
ATOM      4  C   UNL     1       1.560  10.029  18.716  0.00  0.00    +0.000 C 
ATOM      5  N   UNL     1       2.103   8.924  19.542  0.00  0.00    +0.000 NA
ATOM      6  C   UNL     1       1.550   9.073  20.911  0.00  0.00    +0.000 C 
ATOM      7  C   UNL     1       0.006   9.149  21.004  0.00  0.00    +0.000 C 
BRANCH   2  12
ATOM      8  C   UNL     1      -2.320  12.470  22.389  0.00  0.00    +0.000 A 
ATOM      9  C   UNL     1      -3.053  13.229  21.483  0.00  0.00    +0.000 A 
ATOM     10  C   UNL     1      -2.946  12.983  20.118  0.00  0.00    +0.000 A 
ATOM     11  C   UNL     1      -2.097  11.967  19.660  0.00  0.00    +0.000 A 
ATOM     12  C   UNL     1      -1.345  11.180  20.542  0.00  0.00    +0.000 A 
ATOM     13  C   UNL     1      -1.478  11.459  21.913  0.00  0.00    +0.000 A 
BRANCH   8  15
ATOM     14  C   UNL     1      -3.844  12.699  24.197  0.00  0.00    +0.000 C 
ATOM     15  O   UNL     1      -2.512  12.793  23.706  0.00  0.00    +0.000 OA
ENDBRANCH   8  15
ENDBRANCH   2  12
ENDBRANCH   1   5
BRANCH   1  16
ATOM     16  C   UNL     1       2.961   7.061  18.070  0.00  0.00    +0.000 C 
ATOM     17  O   UNL     1       3.425   7.713  17.131  0.00  0.00    +0.000 OA
ATOM     18  N   UNL     1       3.473   5.818  18.500  0.00  0.00    +0.000 N 
BRANCH  18  19
ATOM     19  C   UNL     1       2.605   4.812  19.021  0.00  0.00    +0.000 A 
ATOM     20  C   UNL     1       2.492   4.628  20.406  0.00  0.00    +0.000 A 
ATOM     21  C   UNL     1       1.592   3.690  20.918  0.00  0.00    +0.000 A 
ATOM     22  C   UNL     1       0.826   2.910  20.053  0.00  0.00    +0.000 A 
ATOM     23  C   UNL     1       0.953   3.068  18.673  0.00  0.00    +0.000 A 
ATOM     24  C   UNL     1       1.834   4.021  18.158  0.00  0.00    +0.000 A 
ENDBRANCH  18  19
BRANCH  18  25
ATOM     25  C   UNL     1       4.833   5.429  18.207  0.00  0.00    +0.000 A 
ATOM     26  C   UNL     1       5.855   5.654  19.145  0.00  0.00    +0.000 A 
ATOM     27  C   UNL     1       7.181   5.296  18.882  0.00  0.00    +0.000 A 
ATOM     28  C   UNL     1       7.515   4.696  17.675  0.00  0.00    +0.000 A 
ATOM     29  C   UNL     1       6.523   4.453  16.731  0.00  0.00    +0.000 A 
ATOM     30  C   UNL     1       5.197   4.814  16.995  0.00  0.00    +0.000 A 
ENDBRANCH  18  25
ENDBRANCH   1  16
TORSDOF 6
ENDMDL
MODEL 6
REMARK VINA RESULT:      -7.6      2.368      4.995
REMARK  Name = 
REMARK  7 active torsions:
REMARK  status: ('A' for Active; 'I' for Inactive)
REMARK    1  A    between atoms: C_1  and  O_2
REMARK    2  A    between atoms: O_2  and  C_3
REMARK    3  A    between atoms: C_7  and  N_8
REMARK    4  A    between atoms: N_11  and  C_12
REMARK    5  A    between atoms: C_12  and  C_13
REMARK    6  A    between atoms: N_15  and  C_16
REMARK    7  A    between atoms: N_15  and  C_22
REMARK                            x       y       z     vdW  Elec       q    Type
REMARK                         _______ _______ _______ _____ _____    ______ ____
ROOT
ATOM      1  C   UNL     1       1.686   7.498  19.141  0.00  0.00    +0.000 C 
ENDROOT
BRANCH   1   5
ATOM      2  N   UNL     1      -0.517  10.201  20.185  0.00  0.00    +0.000 N 
ATOM      3  C   UNL     1       0.112  10.153  18.857  0.00  0.00    +0.000 C 
ATOM      4  C   UNL     1       1.640   9.934  18.973  0.00  0.00    +0.000 C 
ATOM      5  N   UNL     1       2.040   8.778  19.810  0.00  0.00    +0.000 NA
ATOM      6  C   UNL     1       1.396   8.941  21.138  0.00  0.00    +0.000 C 
ATOM      7  C   UNL     1      -0.141   9.127  21.117  0.00  0.00    +0.000 C 
BRANCH   2  12
ATOM      8  C   UNL     1      -2.065  12.791  22.367  0.00  0.00    +0.000 A 
ATOM      9  C   UNL     1      -2.930  13.409  21.468  0.00  0.00    +0.000 A 
ATOM     10  C   UNL     1      -2.994  12.972  20.149  0.00  0.00    +0.000 A 
ATOM     11  C   UNL     1      -2.186  11.908  19.728  0.00  0.00    +0.000 A 
ATOM     12  C   UNL     1      -1.306  11.259  20.604  0.00  0.00    +0.000 A 
ATOM     13  C   UNL     1      -1.266  11.728  21.928  0.00  0.00    +0.000 A 
BRANCH   8  15
ATOM     14  C   UNL     1      -1.309  14.457  23.881  0.00  0.00    +0.000 C 
ATOM     15  O   UNL     1      -2.093  13.295  23.639  0.00  0.00    +0.000 OA
ENDBRANCH   8  15
ENDBRANCH   2  12
ENDBRANCH   1   5
BRANCH   1  16
ATOM     16  C   UNL     1       2.805   6.986  18.205  0.00  0.00    +0.000 C 
ATOM     17  O   UNL     1       3.204   7.664  17.254  0.00  0.00    +0.000 OA
ATOM     18  N   UNL     1       3.356   5.740  18.574  0.00  0.00    +0.000 N 
BRANCH  18  19
ATOM     19  C   UNL     1       2.533   4.712  19.123  0.00  0.00    +0.000 A 
ATOM     20  C   UNL     1       1.724   3.933  18.284  0.00  0.00    +0.000 A 
ATOM     21  C   UNL     1       0.971   2.882  18.815  0.00  0.00    +0.000 A 
ATOM     22  C   UNL     1       0.995   2.625  20.184  0.00  0.00    +0.000 A 
ATOM     23  C   UNL     1       1.776   3.413  21.030  0.00  0.00    +0.000 A 
ATOM     24  C   UNL     1       2.548   4.449  20.501  0.00  0.00    +0.000 A 
ENDBRANCH  18  19
BRANCH  18  25
ATOM     25  C   UNL     1       4.699   5.375  18.191  0.00  0.00    +0.000 A 
ATOM     26  C   UNL     1       5.782   5.644  19.047  0.00  0.00    +0.000 A 
ATOM     27  C   UNL     1       7.093   5.310  18.694  0.00  0.00    +0.000 A 
ATOM     28  C   UNL     1       7.353   4.690  17.479  0.00  0.00    +0.000 A 
ATOM     29  C   UNL     1       6.301   4.404  16.615  0.00  0.00    +0.000 A 
ATOM     30  C   UNL     1       4.990   4.741  16.968  0.00  0.00    +0.000 A 
ENDBRANCH  18  25
ENDBRANCH   1  16
TORSDOF 6
ENDMDL
MODEL 7
REMARK VINA RESULT:      -7.6      2.570      5.227
REMARK  Name = 
REMARK  7 active torsions:
REMARK  status: ('A' for Active; 'I' for Inactive)
REMARK    1  A    between atoms: C_1  and  O_2
REMARK    2  A    between atoms: O_2  and  C_3
REMARK    3  A    between atoms: C_7  and  N_8
REMARK    4  A    between atoms: N_11  and  C_12
REMARK    5  A    between atoms: C_12  and  C_13
REMARK    6  A    between atoms: N_15  and  C_16
REMARK    7  A    between atoms: N_15  and  C_22
REMARK                            x       y       z     vdW  Elec       q    Type
REMARK                         _______ _______ _______ _____ _____    ______ ____
ROOT
ATOM      1  C   UNL     1       1.589   7.757  19.621  0.00  0.00    +0.000 C 
ENDROOT
BRANCH   1   5
ATOM      2  N   UNL     1      -0.711  10.379  20.665  0.00  0.00    +0.000 N 
ATOM      3  C   UNL     1      -0.175  10.285  19.299  0.00  0.00    +0.000 C 
ATOM      4  C   UNL     1       1.368  10.170  19.312  0.00  0.00    +0.000 C 
ATOM      5  N   UNL     1       1.903   9.097  20.184  0.00  0.00    +0.000 NA
ATOM      6  C   UNL     1       1.346   9.305  21.544  0.00  0.00    +0.000 C 
ATOM      7  C   UNL     1      -0.198   9.393  21.628  0.00  0.00    +0.000 C 
BRANCH   2  12
ATOM      8  C   UNL     1      -2.665  12.657  22.868  0.00  0.00    +0.000 A 
ATOM      9  C   UNL     1      -3.238  13.506  21.926  0.00  0.00    +0.000 A 
ATOM     10  C   UNL     1      -2.973  13.327  20.572  0.00  0.00    +0.000 A 
ATOM     11  C   UNL     1      -2.128  12.288  20.160  0.00  0.00    +0.000 A 
ATOM     12  C   UNL     1      -1.536  11.410  21.079  0.00  0.00    +0.000 A 
ATOM     13  C   UNL     1      -1.825  11.623  22.438  0.00  0.00    +0.000 A 
BRANCH   8  15
ATOM     14  C   UNL     1      -4.303  12.514  24.582  0.00  0.00    +0.000 C 
ATOM     15  O   UNL     1      -3.004  12.920  24.168  0.00  0.00    +0.000 OA
ENDBRANCH   8  15
ENDBRANCH   2  12
ENDBRANCH   1   5
BRANCH   1  16
ATOM     16  C   UNL     1       2.607   7.309  18.547  0.00  0.00    +0.000 C 
ATOM     17  O   UNL     1       2.914   8.049  17.609  0.00  0.00    +0.000 OA
ATOM     18  N   UNL     1       3.185   6.042  18.778  0.00  0.00    +0.000 N 
BRANCH  18  19
ATOM     19  C   UNL     1       2.414   4.979  19.338  0.00  0.00    +0.000 A 
ATOM     20  C   UNL     1       1.600   4.190  18.514  0.00  0.00    +0.000 A 
ATOM     21  C   UNL     1       0.899   3.107  19.052  0.00  0.00    +0.000 A 
ATOM     22  C   UNL     1       0.981   2.827  20.415  0.00  0.00    +0.000 A 
ATOM     23  C   UNL     1       1.767   3.625  21.246  0.00  0.00    +0.000 A 
ATOM     24  C   UNL     1       2.488   4.694  20.708  0.00  0.00    +0.000 A 
ENDBRANCH  18  19
BRANCH  18  25
ATOM     25  C   UNL     1       4.482   5.705  18.241  0.00  0.00    +0.000 A 
ATOM     26  C   UNL     1       4.650   5.496  16.861  0.00  0.00    +0.000 A 
ATOM     27  C   UNL     1       5.893   5.158  16.318  0.00  0.00    +0.000 A 
ATOM     28  C   UNL     1       7.003   5.028  17.144  0.00  0.00    +0.000 A 
ATOM     29  C   UNL     1       6.869   5.237  18.512  0.00  0.00    +0.000 A 
ATOM     30  C   UNL     1       5.624   5.573  19.054  0.00  0.00    +0.000 A 
ENDBRANCH  18  25
ENDBRANCH   1  16
TORSDOF 6
ENDMDL
MODEL 8
REMARK VINA RESULT:      -7.5      2.399      4.988
REMARK  Name = 
REMARK  7 active torsions:
REMARK  status: ('A' for Active; 'I' for Inactive)
REMARK    1  A    between atoms: C_1  and  O_2
REMARK    2  A    between atoms: O_2  and  C_3
REMARK    3  A    between atoms: C_7  and  N_8
REMARK    4  A    between atoms: N_11  and  C_12
REMARK    5  A    between atoms: C_12  and  C_13
REMARK    6  A    between atoms: N_15  and  C_16
REMARK    7  A    between atoms: N_15  and  C_22
REMARK                            x       y       z     vdW  Elec       q    Type
REMARK                         _______ _______ _______ _____ _____    ______ ____
ROOT
ATOM      1  C   UNL     1       1.993   7.752  19.187  0.00  0.00    +0.000 C 
ENDROOT
BRANCH   1   5
ATOM      2  N   UNL     1      -0.904   9.955  19.132  0.00  0.00    +0.000 N 
ATOM      3  C   UNL     1      -0.217   9.509  17.910  0.00  0.00    +0.000 C 
ATOM      4  C   UNL     1       1.305   9.772  18.000  0.00  0.00    +0.000 C 
ATOM      5  N   UNL     1       1.957   9.238  19.220  0.00  0.00    +0.000 NA
ATOM      6  C   UNL     1       1.226   9.779  20.393  0.00  0.00    +0.000 C 
ATOM      7  C   UNL     1      -0.302   9.526  20.403  0.00  0.00    +0.000 C 
BRANCH   2  12
ATOM      8  C   UNL     1      -4.038  11.676  18.093  0.00  0.00    +0.000 A 
ATOM      9  C   UNL     1      -4.131  12.664  19.068  0.00  0.00    +0.000 A 
ATOM     10  C   UNL     1      -3.164  12.755  20.064  0.00  0.00    +0.000 A 
ATOM     11  C   UNL     1      -2.096  11.848  20.081  0.00  0.00    +0.000 A 
ATOM     12  C   UNL     1      -1.967  10.841  19.115  0.00  0.00    +0.000 A 
ATOM     13  C   UNL     1      -2.963  10.780  18.125  0.00  0.00    +0.000 A 
BRANCH   8  15
ATOM     14  C   UNL     1      -6.126  12.572  17.399  0.00  0.00    +0.000 C 
ATOM     15  O   UNL     1      -5.038  11.688  17.157  0.00  0.00    +0.000 OA
ENDBRANCH   8  15
ENDBRANCH   2  12
ENDBRANCH   1   5
BRANCH   1  16
ATOM     16  C   UNL     1       3.085   7.204  18.240  0.00  0.00    +0.000 C 
ATOM     17  O   UNL     1       3.524   7.884  17.308  0.00  0.00    +0.000 OA
ATOM     18  N   UNL     1       3.566   5.920  18.577  0.00  0.00    +0.000 N 
BRANCH  18  19
ATOM     19  C   UNL     1       2.685   4.925  19.098  0.00  0.00    +0.000 A 
ATOM     20  C   UNL     1       2.610   4.705  20.480  0.00  0.00    +0.000 A 
ATOM     21  C   UNL     1       1.699   3.778  20.994  0.00  0.00    +0.000 A 
ATOM     22  C   UNL     1       0.884   3.045  20.132  0.00  0.00    +0.000 A 
ATOM     23  C   UNL     1       0.973   3.239  18.754  0.00  0.00    +0.000 A 
ATOM     24  C   UNL     1       1.865   4.181  18.238  0.00  0.00    +0.000 A 
ENDBRANCH  18  19
BRANCH  18  25
ATOM     25  C   UNL     1       4.888   5.492  18.187  0.00  0.00    +0.000 A 
ATOM     26  C   UNL     1       5.110   4.931  16.918  0.00  0.00    +0.000 A 
ATOM     27  C   UNL     1       6.380   4.500  16.521  0.00  0.00    +0.000 A 
ATOM     28  C   UNL     1       7.461   4.626  17.383  0.00  0.00    +0.000 A 
ATOM     29  C   UNL     1       7.274   5.185  18.642  0.00  0.00    +0.000 A 
ATOM     30  C   UNL     1       6.003   5.614  19.039  0.00  0.00    +0.000 A 
ENDBRANCH  18  25
ENDBRANCH   1  16
TORSDOF 6
ENDMDL
MODEL 9
REMARK VINA RESULT:      -7.5      2.483      5.034
REMARK  Name = 
REMARK  7 active torsions:
REMARK  status: ('A' for Active; 'I' for Inactive)
REMARK    1  A    between atoms: C_1  and  O_2
REMARK    2  A    between atoms: O_2  and  C_3
REMARK    3  A    between atoms: C_7  and  N_8
REMARK    4  A    between atoms: N_11  and  C_12
REMARK    5  A    between atoms: C_12  and  C_13
REMARK    6  A    between atoms: N_15  and  C_16
REMARK    7  A    between atoms: N_15  and  C_22
REMARK                            x       y       z     vdW  Elec       q    Type
REMARK                         _______ _______ _______ _____ _____    ______ ____
ROOT
ATOM      1  C   UNL     1       1.920   7.954  19.117  0.00  0.00    +0.000 C 
ENDROOT
BRANCH   1   5
ATOM      2  N   UNL     1      -1.036  10.078  19.116  0.00  0.00    +0.000 N 
ATOM      3  C   UNL     1      -0.396   9.602  17.881  0.00  0.00    +0.000 C 
ATOM      4  C   UNL     1       1.122   9.908  17.887  0.00  0.00    +0.000 C 
ATOM      5  N   UNL     1       1.844   9.439  19.094  0.00  0.00    +0.000 NA
ATOM      6  C   UNL     1       1.155  10.008  20.279  0.00  0.00    +0.000 C 
ATOM      7  C   UNL     1      -0.363   9.717  20.373  0.00  0.00    +0.000 C 
BRANCH   2  12
ATOM      8  C   UNL     1      -4.227  11.719  18.122  0.00  0.00    +0.000 A 
ATOM      9  C   UNL     1      -4.335  12.699  19.104  0.00  0.00    +0.000 A 
ATOM     10  C   UNL     1      -3.360  12.810  20.090  0.00  0.00    +0.000 A 
ATOM     11  C   UNL     1      -2.268  11.933  20.090  0.00  0.00    +0.000 A 
ATOM     12  C   UNL     1      -2.123  10.935  19.116  0.00  0.00    +0.000 A 
ATOM     13  C   UNL     1      -3.128  10.852  18.137  0.00  0.00    +0.000 A 
BRANCH   8  15
ATOM     14  C   UNL     1      -6.430  12.399  17.551  0.00  0.00    +0.000 C 
ATOM     15  O   UNL     1      -5.237  11.709  17.198  0.00  0.00    +0.000 OA
ENDBRANCH   8  15
ENDBRANCH   2  12
ENDBRANCH   1   5
BRANCH   1  16
ATOM     16  C   UNL     1       2.949   7.396  18.107  0.00  0.00    +0.000 C 
ATOM     17  O   UNL     1       3.360   8.081  17.167  0.00  0.00    +0.000 OA
ATOM     18  N   UNL     1       3.409   6.093  18.397  0.00  0.00    +0.000 N 
BRANCH  18  19
ATOM     19  C   UNL     1       2.528   5.112  18.943  0.00  0.00    +0.000 A 
ATOM     20  C   UNL     1       1.761   4.303  18.093  0.00  0.00    +0.000 A 
ATOM     21  C   UNL     1       0.950   3.297  18.626  0.00  0.00    +0.000 A 
ATOM     22  C   UNL     1       0.875   3.115  20.006  0.00  0.00    +0.000 A 
ATOM     23  C   UNL     1       1.614   3.935  20.859  0.00  0.00    +0.000 A 
ATOM     24  C   UNL     1       2.444   4.926  20.330  0.00  0.00    +0.000 A 
ENDBRANCH  18  19
BRANCH  18  25
ATOM     25  C   UNL     1       4.699   5.637  17.934  0.00  0.00    +0.000 A 
ATOM     26  C   UNL     1       5.797   5.597  18.811  0.00  0.00    +0.000 A 
ATOM     27  C   UNL     1       7.058   5.169  18.385  0.00  0.00    +0.000 A 
ATOM     28  C   UNL     1       7.249   4.761  17.071  0.00  0.00    +0.000 A 
ATOM     29  C   UNL     1       6.179   4.781  16.183  0.00  0.00    +0.000 A 
ATOM     30  C   UNL     1       4.919   5.213  16.610  0.00  0.00    +0.000 A 
ENDBRANCH  18  25
ENDBRANCH   1  16
TORSDOF 6
ENDMDL
