MODEL 1
REMARK VINA RESULT:      -6.9      0.000      0.000
REMARK  Name = 
REMARK  8 active torsions:
REMARK  status: ('A' for Active; 'I' for Inactive)
REMARK    1  A    between atoms: C_1  and  C_2
REMARK    2  A    between atoms: C_5  and  C_6
REMARK    3  A    between atoms: C_7  and  S_8
REMARK    4  A    between atoms: S_8  and  N_11
REMARK    5  A    between atoms: C_14  and  C_15
REMARK    6  A    between atoms: N_17  and  C_18
REMARK    7  A    between atoms: N_17  and  C_19
REMARK    8  A    between atoms: C_19  and  C_20
REMARK                            x       y       z     vdW  Elec       q    Type
REMARK                         _______ _______ _______ _____ _____    ______ ____
ROOT
ATOM      1  N   UNL     1      -0.395  12.255  20.723  0.00  0.00    +0.000 NA
ATOM      2  C   UNL     1       1.061  12.125  20.437  0.00  0.00    +0.000 C 
ATOM      3  C   UNL     1       1.325  11.466  19.086  0.00  0.00    +0.000 C 
ATOM      4  C   UNL     1       0.611  10.129  18.891  0.00  0.00    +0.000 C 
ATOM      5  C   UNL     1      -0.875  10.290  19.228  0.00  0.00    +0.000 C 
ATOM      6  C   UNL     1      -1.146  10.970  20.567  0.00  0.00    +0.000 C 
ENDROOT
BRANCH   4   7
ATOM      7  C   UNL     1       1.244   8.981  19.700  0.00  0.00    +0.000 C 
ATOM      8  O   UNL     1       0.917   8.823  20.879  0.00  0.00    +0.000 OA
ATOM      9  N   UNL     1       2.131   8.089  19.073  0.00  0.00    +0.000 N 
ATOM     10  C   UNL     1       2.655   8.238  17.726  0.00  0.00    +0.000 C 
BRANCH   9  11
ATOM     11  C   UNL     1       2.363   6.782  19.712  0.00  0.00    +0.000 C 
BRANCH  11  12
ATOM     12  C   UNL     1       2.846   5.674  18.798  0.00  0.00    +0.000 A 
ATOM     13  C   UNL     1       4.213   5.394  18.668  0.00  0.00    +0.000 A 
ATOM     14  C   UNL     1       4.650   4.307  17.903  0.00  0.00    +0.000 A 
ATOM     15  C   UNL     1       3.729   3.490  17.248  0.00  0.00    +0.000 A 
ATOM     16  C   UNL     1       2.367   3.750  17.370  0.00  0.00    +0.000 A 
ATOM     17  C   UNL     1       1.928   4.832  18.142  0.00  0.00    +0.000 A 
ENDBRANCH  11  12
ENDBRANCH   9  11
ENDBRANCH   4   7
BRANCH   1  18
ATOM     18  S   UNL     1      -0.698  12.947  22.283  0.00  0.00    +0.000 S 
ATOM     19  O   UNL     1       0.301  13.962  22.538  0.00  0.00    +0.000 OA
ATOM     20  O   UNL     1      -0.926  11.865  23.216  0.00  0.00    +0.000 OA
BRANCH  18  27
ATOM     21  C   UNL     1      -1.644  15.574  20.442  0.00  0.00    +0.000 C 
ATOM     22  C   UNL     1      -2.492  14.893  21.446  0.00  0.00    +0.000 A 
ATOM     23  N   UNL     1      -3.739  15.322  21.680  0.00  0.00    +0.000 NA
ATOM     24  O   UNL     1      -4.264  14.466  22.632  0.00  0.00    +0.000 OA
ATOM     25  C   UNL     1      -3.331  13.533  22.975  0.00  0.00    +0.000 A 
ATOM     26  C   UNL     1      -3.760  12.532  23.972  0.00  0.00    +0.000 C 
ATOM     27  C   UNL     1      -2.186  13.784  22.259  0.00  0.00    +0.000 A 
ENDBRANCH  18  27
ENDBRANCH   1  18
TORSDOF 5
ENDMDL
MODEL 2
REMARK VINA RESULT:      -6.9      4.637      9.567
REMARK  Name = 
REMARK  8 active torsions:
REMARK  status: ('A' for Active; 'I' for Inactive)
REMARK    1  A    between atoms: C_1  and  C_2
REMARK    2  A    between atoms: C_5  and  C_6
REMARK    3  A    between atoms: C_7  and  S_8
REMARK    4  A    between atoms: S_8  and  N_11
REMARK    5  A    between atoms: C_14  and  C_15
REMARK    6  A    between atoms: N_17  and  C_18
REMARK    7  A    between atoms: N_17  and  C_19
REMARK    8  A    between atoms: C_19  and  C_20
REMARK                            x       y       z     vdW  Elec       q    Type
REMARK                         _______ _______ _______ _____ _____    ______ ____
ROOT
ATOM      1  N   UNL     1       4.018   4.521  18.545  0.00  0.00    +0.000 NA
ATOM      2  C   UNL     1       4.119   5.366  19.767  0.00  0.00    +0.000 C 
ATOM      3  C   UNL     1       2.756   5.620  20.406  0.00  0.00    +0.000 C 
ATOM      4  C   UNL     1       1.709   6.180  19.443  0.00  0.00    +0.000 C 
ATOM      5  C   UNL     1       1.656   5.310  18.184  0.00  0.00    +0.000 C 
ATOM      6  C   UNL     1       3.019   5.031  17.554  0.00  0.00    +0.000 C 
ENDROOT
BRANCH   4   7
ATOM      7  C   UNL     1       1.943   7.661  19.088  0.00  0.00    +0.000 C 
ATOM      8  O   UNL     1       2.558   7.942  18.056  0.00  0.00    +0.000 OA
ATOM      9  N   UNL     1       1.399   8.670  19.901  0.00  0.00    +0.000 N 
ATOM     10  C   UNL     1       0.746   8.453  21.181  0.00  0.00    +0.000 C 
BRANCH   9  11
ATOM     11  C   UNL     1       1.250  10.016  19.323  0.00  0.00    +0.000 C 
BRANCH  11  12
ATOM     12  C   UNL     1      -0.153  10.403  18.899  0.00  0.00    +0.000 A 
ATOM     13  C   UNL     1      -0.849  11.424  19.562  0.00  0.00    +0.000 A 
ATOM     14  C   UNL     1      -2.102  11.846  19.106  0.00  0.00    +0.000 A 
ATOM     15  C   UNL     1      -2.684  11.250  17.988  0.00  0.00    +0.000 A 
ATOM     16  C   UNL     1      -2.005  10.238  17.313  0.00  0.00    +0.000 A 
ATOM     17  C   UNL     1      -0.747   9.820  17.764  0.00  0.00    +0.000 A 
ENDBRANCH  11  12
ENDBRANCH   9  11
ENDBRANCH   4   7
BRANCH   1  18
ATOM     18  S   UNL     1       5.556   4.282  17.783  0.00  0.00    +0.000 S 
ATOM     19  O   UNL     1       5.334   3.737  16.461  0.00  0.00    +0.000 OA
ATOM     20  O   UNL     1       6.428   3.623  18.730  0.00  0.00    +0.000 OA
BRANCH  18  27
ATOM     21  C   UNL     1       8.087   5.728  19.424  0.00  0.00    +0.000 C 
ATOM     22  C   UNL     1       7.372   6.324  18.273  0.00  0.00    +0.000 A 
ATOM     23  N   UNL     1       7.718   7.535  17.816  0.00  0.00    +0.000 NA
ATOM     24  O   UNL     1       6.892   7.782  16.734  0.00  0.00    +0.000 OA
ATOM     25  C   UNL     1       6.047   6.729  16.549  0.00  0.00    +0.000 A 
ATOM     26  C   UNL     1       5.116   6.844  15.409  0.00  0.00    +0.000 C 
ATOM     27  C   UNL     1       6.306   5.793  17.520  0.00  0.00    +0.000 A 
ENDBRANCH  18  27
ENDBRANCH   1  18
TORSDOF 5
ENDMDL
MODEL 3
REMARK VINA RESULT:      -6.8      1.725      2.377
REMARK  Name = 
REMARK  8 active torsions:
REMARK  status: ('A' for Active; 'I' for Inactive)
REMARK    1  A    between atoms: C_1  and  C_2
REMARK    2  A    between atoms: C_5  and  C_6
REMARK    3  A    between atoms: C_7  and  S_8
REMARK    4  A    between atoms: S_8  and  N_11
REMARK    5  A    between atoms: C_14  and  C_15
REMARK    6  A    between atoms: N_17  and  C_18
REMARK    7  A    between atoms: N_17  and  C_19
REMARK    8  A    between atoms: C_19  and  C_20
REMARK                            x       y       z     vdW  Elec       q    Type
REMARK                         _______ _______ _______ _____ _____    ______ ____
ROOT
ATOM      1  N   UNL     1       0.298  11.897  19.416  0.00  0.00    +0.000 NA
ATOM      2  C   UNL     1       1.731  11.648  19.093  0.00  0.00    +0.000 C 
ATOM      3  C   UNL     1       1.899  10.675  17.929  0.00  0.00    +0.000 C 
ATOM      4  C   UNL     1       1.143   9.357  18.102  0.00  0.00    +0.000 C 
ATOM      5  C   UNL     1      -0.315   9.649  18.467  0.00  0.00    +0.000 C 
ATOM      6  C   UNL     1      -0.490  10.641  19.614  0.00  0.00    +0.000 C 
ENDROOT
BRANCH   4   7
ATOM      7  C   UNL     1       1.798   8.414  19.130  0.00  0.00    +0.000 C 
ATOM      8  O   UNL     1       1.388   8.415  20.294  0.00  0.00    +0.000 OA
ATOM      9  N   UNL     1       2.801   7.520  18.720  0.00  0.00    +0.000 N 
ATOM     10  C   UNL     1       3.421   7.501  17.405  0.00  0.00    +0.000 C 
BRANCH   9  11
ATOM     11  C   UNL     1       3.083   6.358  19.579  0.00  0.00    +0.000 C 
BRANCH  11  12
ATOM     12  C   UNL     1       2.214   5.138  19.351  0.00  0.00    +0.000 A 
ATOM     13  C   UNL     1       2.184   4.499  18.104  0.00  0.00    +0.000 A 
ATOM     14  C   UNL     1       1.458   3.316  17.925  0.00  0.00    +0.000 A 
ATOM     15  C   UNL     1       0.744   2.759  18.984  0.00  0.00    +0.000 A 
ATOM     16  C   UNL     1       0.766   3.377  20.232  0.00  0.00    +0.000 A 
ATOM     17  C   UNL     1       1.498   4.556  20.415  0.00  0.00    +0.000 A 
ENDBRANCH  11  12
ENDBRANCH   9  11
ENDBRANCH   4   7
BRANCH   1  18
ATOM     18  S   UNL     1       0.106  12.953  20.776  0.00  0.00    +0.000 S 
ATOM     19  O   UNL     1      -0.439  14.210  20.308  0.00  0.00    +0.000 OA
ATOM     20  O   UNL     1       1.322  12.905  21.557  0.00  0.00    +0.000 OA
BRANCH  18  27
ATOM     21  C   UNL     1      -3.017  14.002  21.358  0.00  0.00    +0.000 C 
ATOM     22  C   UNL     1      -2.378  12.838  22.011  0.00  0.00    +0.000 A 
ATOM     23  N   UNL     1      -3.052  12.117  22.917  0.00  0.00    +0.000 NA
ATOM     24  O   UNL     1      -2.198  11.100  23.306  0.00  0.00    +0.000 OA
ATOM     25  C   UNL     1      -1.013  11.217  22.644  0.00  0.00    +0.000 A 
ATOM     26  C   UNL     1      -0.005  10.180  22.942  0.00  0.00    +0.000 C 
ATOM     27  C   UNL     1      -1.081  12.321  21.828  0.00  0.00    +0.000 A 
ENDBRANCH  18  27
ENDBRANCH   1  18
TORSDOF 5
ENDMDL
MODEL 4
REMARK VINA RESULT:      -6.8      4.655      9.535
REMARK  Name = 
REMARK  8 active torsions:
REMARK  status: ('A' for Active; 'I' for Inactive)
REMARK    1  A    between atoms: C_1  and  C_2
REMARK    2  A    between atoms: C_5  and  C_6
REMARK    3  A    between atoms: C_7  and  S_8
REMARK    4  A    between atoms: S_8  and  N_11
REMARK    5  A    between atoms: C_14  and  C_15
REMARK    6  A    between atoms: N_17  and  C_18
REMARK    7  A    between atoms: N_17  and  C_19
REMARK    8  A    between atoms: C_19  and  C_20
REMARK                            x       y       z     vdW  Elec       q    Type
REMARK                         _______ _______ _______ _____ _____    ______ ____
ROOT
ATOM      1  N   UNL     1       4.002   4.528  18.504  0.00  0.00    +0.000 NA
ATOM      2  C   UNL     1       4.113   5.426  19.687  0.00  0.00    +0.000 C 
ATOM      3  C   UNL     1       2.755   5.707  20.325  0.00  0.00    +0.000 C 
ATOM      4  C   UNL     1       1.699   6.223  19.347  0.00  0.00    +0.000 C 
ATOM      5  C   UNL     1       1.636   5.297  18.128  0.00  0.00    +0.000 C 
ATOM      6  C   UNL     1       2.994   4.992  17.500  0.00  0.00    +0.000 C 
ENDROOT
BRANCH   4   7
ATOM      7  C   UNL     1       1.928   7.686  18.925  0.00  0.00    +0.000 C 
ATOM      8  O   UNL     1       2.500   7.923  17.857  0.00  0.00    +0.000 OA
ATOM      9  N   UNL     1       1.427   8.731  19.720  0.00  0.00    +0.000 N 
ATOM     10  C   UNL     1       0.827   8.570  21.034  0.00  0.00    +0.000 C 
BRANCH   9  11
ATOM     11  C   UNL     1       1.262  10.055  19.097  0.00  0.00    +0.000 C 
BRANCH  11  12
ATOM     12  C   UNL     1      -0.161  10.464  18.774  0.00  0.00    +0.000 A 
ATOM     13  C   UNL     1      -0.775  11.528  19.449  0.00  0.00    +0.000 A 
ATOM     14  C   UNL     1      -2.051  11.966  19.081  0.00  0.00    +0.000 A 
ATOM     15  C   UNL     1      -2.738  11.343  18.040  0.00  0.00    +0.000 A 
ATOM     16  C   UNL     1      -2.142  10.288  17.354  0.00  0.00    +0.000 A 
ATOM     17  C   UNL     1      -0.862   9.854  17.716  0.00  0.00    +0.000 A 
ENDBRANCH  11  12
ENDBRANCH   9  11
ENDBRANCH   4   7
BRANCH   1  18
ATOM     18  S   UNL     1       5.535   4.256  17.740  0.00  0.00    +0.000 S 
ATOM     19  O   UNL     1       5.300   3.852  16.371  0.00  0.00    +0.000 OA
ATOM     20  O   UNL     1       6.344   3.456  18.632  0.00  0.00    +0.000 OA
BRANCH  18  27
ATOM     21  C   UNL     1       5.133   6.803  15.610  0.00  0.00    +0.000 C 
ATOM     22  C   UNL     1       6.148   6.750  16.686  0.00  0.00    +0.000 A 
ATOM     23  N   UNL     1       7.000   7.768  16.861  0.00  0.00    +0.000 NA
ATOM     24  O   UNL     1       7.783   7.425  17.949  0.00  0.00    +0.000 OA
ATOM     25  C   UNL     1       7.409   6.201  18.418  0.00  0.00    +0.000 A 
ATOM     26  C   UNL     1       8.146   5.711  19.599  0.00  0.00    +0.000 C 
ATOM     27  C   UNL     1       6.387   5.731  17.628  0.00  0.00    +0.000 A 
ENDBRANCH  18  27
ENDBRANCH   1  18
TORSDOF 5
ENDMDL
MODEL 5
REMARK VINA RESULT:      -6.6      2.669      3.424
REMARK  Name = 
REMARK  8 active torsions:
REMARK  status: ('A' for Active; 'I' for Inactive)
REMARK    1  A    between atoms: C_1  and  C_2
REMARK    2  A    between atoms: C_5  and  C_6
REMARK    3  A    between atoms: C_7  and  S_8
REMARK    4  A    between atoms: S_8  and  N_11
REMARK    5  A    between atoms: C_14  and  C_15
REMARK    6  A    between atoms: N_17  and  C_18
REMARK    7  A    between atoms: N_17  and  C_19
REMARK    8  A    between atoms: C_19  and  C_20
REMARK                            x       y       z     vdW  Elec       q    Type
REMARK                         _______ _______ _______ _____ _____    ______ ____
ROOT
ATOM      1  N   UNL     1       1.230  12.449  19.753  0.00  0.00    +0.000 NA
ATOM      2  C   UNL     1       1.692  11.562  18.650  0.00  0.00    +0.000 C 
ATOM      3  C   UNL     1       0.702  10.437  18.362  0.00  0.00    +0.000 C 
ATOM      4  C   UNL     1       0.310   9.617  19.591  0.00  0.00    +0.000 C 
ATOM      5  C   UNL     1      -0.126  10.561  20.716  0.00  0.00    +0.000 C 
ATOM      6  C   UNL     1       0.849  11.703  20.993  0.00  0.00    +0.000 C 
ENDROOT
BRANCH   4   7
ATOM      7  C   UNL     1       1.425   8.665  20.064  0.00  0.00    +0.000 C 
ATOM      8  O   UNL     1       1.595   8.489  21.273  0.00  0.00    +0.000 OA
ATOM      9  N   UNL     1       2.188   7.957  19.119  0.00  0.00    +0.000 N 
ATOM     10  C   UNL     1       2.136   8.159  17.680  0.00  0.00    +0.000 C 
BRANCH   9  11
ATOM     11  C   UNL     1       2.911   6.758  19.574  0.00  0.00    +0.000 C 
BRANCH  11  12
ATOM     12  C   UNL     1       2.147   5.452  19.491  0.00  0.00    +0.000 A 
ATOM     13  C   UNL     1       2.019   4.770  18.273  0.00  0.00    +0.000 A 
ATOM     14  C   UNL     1       1.399   3.516  18.218  0.00  0.00    +0.000 A 
ATOM     15  C   UNL     1       0.890   2.930  19.376  0.00  0.00    +0.000 A 
ATOM     16  C   UNL     1       1.013   3.590  20.596  0.00  0.00    +0.000 A 
ATOM     17  C   UNL     1       1.639   4.840  20.654  0.00  0.00    +0.000 A 
ENDBRANCH  11  12
ENDBRANCH   9  11
ENDBRANCH   4   7
BRANCH   1  18
ATOM     18  S   UNL     1       2.381  13.691  20.124  0.00  0.00    +0.000 S 
ATOM     19  O   UNL     1       3.306  13.804  19.017  0.00  0.00    +0.000 OA
ATOM     20  O   UNL     1       2.848  13.479  21.476  0.00  0.00    +0.000 OA
BRANCH  18  27
ATOM     21  C   UNL     1       3.661  16.761  20.475  0.00  0.00    +0.000 C 
ATOM     22  C   UNL     1       2.218  16.452  20.353  0.00  0.00    +0.000 A 
ATOM     23  N   UNL     1       1.311  17.438  20.386  0.00  0.00    +0.000 NA
ATOM     24  O   UNL     1       0.081  16.828  20.218  0.00  0.00    +0.000 OA
ATOM     25  C   UNL     1       0.248  15.481  20.095  0.00  0.00    +0.000 A 
ATOM     26  C   UNL     1      -0.984  14.696  19.886  0.00  0.00    +0.000 C 
ATOM     27  C   UNL     1       1.589  15.202  20.197  0.00  0.00    +0.000 A 
ENDBRANCH  18  27
ENDBRANCH   1  18
TORSDOF 5
ENDMDL
MODEL 6
REMARK VINA RESULT:      -6.6      3.601      8.994
REMARK  Name = 
REMARK  8 active torsions:
REMARK  status: ('A' for Active; 'I' for Inactive)
REMARK    1  A    between atoms: C_1  and  C_2
REMARK    2  A    between atoms: C_5  and  C_6
REMARK    3  A    between atoms: C_7  and  S_8
REMARK    4  A    between atoms: S_8  and  N_11
REMARK    5  A    between atoms: C_14  and  C_15
REMARK    6  A    between atoms: N_17  and  C_18
REMARK    7  A    between atoms: N_17  and  C_19
REMARK    8  A    between atoms: C_19  and  C_20
REMARK                            x       y       z     vdW  Elec       q    Type
REMARK                         _______ _______ _______ _____ _____    ______ ____
ROOT
ATOM      1  N   UNL     1       2.267   6.885  19.649  0.00  0.00    +0.000 NA
ATOM      2  C   UNL     1       2.115   7.809  18.491  0.00  0.00    +0.000 C 
ATOM      3  C   UNL     1       2.327   9.268  18.886  0.00  0.00    +0.000 C 
ATOM      4  C   UNL     1       1.470   9.728  20.066  0.00  0.00    +0.000 C 
ATOM      5  C   UNL     1       1.623   8.738  21.225  0.00  0.00    +0.000 C 
ATOM      6  C   UNL     1       1.436   7.275  20.831  0.00  0.00    +0.000 C 
ENDROOT
BRANCH   4   7
ATOM      7  C   UNL     1      -0.012   9.928  19.695  0.00  0.00    +0.000 C 
ATOM      8  O   UNL     1      -0.822   9.034  19.950  0.00  0.00    +0.000 OA
ATOM      9  N   UNL     1      -0.435  11.147  19.137  0.00  0.00    +0.000 N 
ATOM     10  C   UNL     1       0.444  12.223  18.710  0.00  0.00    +0.000 C 
BRANCH   9  11
ATOM     11  C   UNL     1      -1.868  11.478  19.208  0.00  0.00    +0.000 C 
BRANCH  11  12
ATOM     12  C   UNL     1      -2.688  11.146  17.977  0.00  0.00    +0.000 A 
ATOM     13  C   UNL     1      -3.988  11.647  17.822  0.00  0.00    +0.000 A 
ATOM     14  C   UNL     1      -4.704  11.422  16.642  0.00  0.00    +0.000 A 
ATOM     15  C   UNL     1      -4.136  10.686  15.602  0.00  0.00    +0.000 A 
ATOM     16  C   UNL     1      -2.844  10.186  15.736  0.00  0.00    +0.000 A 
ATOM     17  C   UNL     1      -2.123  10.417  16.913  0.00  0.00    +0.000 A 
ENDBRANCH  11  12
ENDBRANCH   9  11
ENDBRANCH   4   7
BRANCH   1  18
ATOM     18  S   UNL     1       1.966   5.234  19.217  0.00  0.00    +0.000 S 
ATOM     19  O   UNL     1       1.695   5.173  17.797  0.00  0.00    +0.000 OA
ATOM     20  O   UNL     1       1.043   4.679  20.182  0.00  0.00    +0.000 OA
BRANCH  18  27
ATOM     21  C   UNL     1       5.003   5.640  17.876  0.00  0.00    +0.000 C 
ATOM     22  C   UNL     1       4.630   4.563  18.820  0.00  0.00    +0.000 A 
ATOM     23  N   UNL     1       5.536   3.650  19.196  0.00  0.00    +0.000 NA
ATOM     24  O   UNL     1       4.888   2.818  20.091  0.00  0.00    +0.000 OA
ATOM     25  C   UNL     1       3.595   3.224  20.244  0.00  0.00    +0.000 A 
ATOM     26  C   UNL     1       2.783   2.438  21.194  0.00  0.00    +0.000 C 
ATOM     27  C   UNL     1       3.388   4.316  19.437  0.00  0.00    +0.000 A 
ENDBRANCH  18  27
ENDBRANCH   1  18
TORSDOF 5
ENDMDL
MODEL 7
REMARK VINA RESULT:      -6.6      1.798      2.507
REMARK  Name = 
REMARK  8 active torsions:
REMARK  status: ('A' for Active; 'I' for Inactive)
REMARK    1  A    between atoms: C_1  and  C_2
REMARK    2  A    between atoms: C_5  and  C_6
REMARK    3  A    between atoms: C_7  and  S_8
REMARK    4  A    between atoms: S_8  and  N_11
REMARK    5  A    between atoms: C_14  and  C_15
REMARK    6  A    between atoms: N_17  and  C_18
REMARK    7  A    between atoms: N_17  and  C_19
REMARK    8  A    between atoms: C_19  and  C_20
REMARK                            x       y       z     vdW  Elec       q    Type
REMARK                         _______ _______ _______ _____ _____    ______ ____
ROOT
ATOM      1  N   UNL     1       0.276  11.340  19.308  0.00  0.00    +0.000 NA
ATOM      2  C   UNL     1       1.742  11.285  19.050  0.00  0.00    +0.000 C 
ATOM      3  C   UNL     1       2.084  10.394  17.859  0.00  0.00    +0.000 C 
ATOM      4  C   UNL     1       1.492   8.987  17.939  0.00  0.00    +0.000 C 
ATOM      5  C   UNL     1      -0.008   9.080  18.240  0.00  0.00    +0.000 C 
ATOM      6  C   UNL     1      -0.358   9.989  19.415  0.00  0.00    +0.000 C 
ENDROOT
BRANCH   4   7
ATOM      7  C   UNL     1       2.210   8.085  18.962  0.00  0.00    +0.000 C 
ATOM      8  O   UNL     1       1.833   8.087  20.136  0.00  0.00    +0.000 OA
ATOM      9  N   UNL     1       3.237   7.225  18.536  0.00  0.00    +0.000 N 
ATOM     10  C   UNL     1       3.821   7.211  17.205  0.00  0.00    +0.000 C 
BRANCH   9  11
ATOM     11  C   UNL     1       3.587   6.087  19.403  0.00  0.00    +0.000 C 
BRANCH  11  12
ATOM     12  C   UNL     1       2.615   4.924  19.397  0.00  0.00    +0.000 A 
ATOM     13  C   UNL     1       1.937   4.548  20.564  0.00  0.00    +0.000 A 
ATOM     14  C   UNL     1       0.967   3.540  20.533  0.00  0.00    +0.000 A 
ATOM     15  C   UNL     1       0.667   2.886  19.339  0.00  0.00    +0.000 A 
ATOM     16  C   UNL     1       1.327   3.251  18.168  0.00  0.00    +0.000 A 
ATOM     17  C   UNL     1       2.291   4.264  18.196  0.00  0.00    +0.000 A 
ENDBRANCH  11  12
ENDBRANCH   9  11
ENDBRANCH   4   7
BRANCH   1  18
ATOM     18  S   UNL     1      -0.111  12.301  20.697  0.00  0.00    +0.000 S 
ATOM     19  O   UNL     1       0.392  13.641  20.484  0.00  0.00    +0.000 OA
ATOM     20  O   UNL     1       0.244  11.545  21.878  0.00  0.00    +0.000 OA
BRANCH  18  27
ATOM     21  C   UNL     1      -1.986  13.195  23.318  0.00  0.00    +0.000 C 
ATOM     22  C   UNL     1      -2.511  12.856  21.977  0.00  0.00    +0.000 A 
ATOM     23  N   UNL     1      -3.829  12.888  21.739  0.00  0.00    +0.000 NA
ATOM     24  O   UNL     1      -3.982  12.557  20.404  0.00  0.00    +0.000 OA
ATOM     25  C   UNL     1      -2.762  12.318  19.846  0.00  0.00    +0.000 A 
ATOM     26  C   UNL     1      -2.767  11.973  18.411  0.00  0.00    +0.000 C 
ATOM     27  C   UNL     1      -1.805  12.477  20.819  0.00  0.00    +0.000 A 
ENDBRANCH  18  27
ENDBRANCH   1  18
TORSDOF 5
ENDMDL
MODEL 8
REMARK VINA RESULT:      -6.6      1.261      2.058
REMARK  Name = 
REMARK  8 active torsions:
REMARK  status: ('A' for Active; 'I' for Inactive)
REMARK    1  A    between atoms: C_1  and  C_2
REMARK    2  A    between atoms: C_5  and  C_6
REMARK    3  A    between atoms: C_7  and  S_8
REMARK    4  A    between atoms: S_8  and  N_11
REMARK    5  A    between atoms: C_14  and  C_15
REMARK    6  A    between atoms: N_17  and  C_18
REMARK    7  A    between atoms: N_17  and  C_19
REMARK    8  A    between atoms: C_19  and  C_20
REMARK                            x       y       z     vdW  Elec       q    Type
REMARK                         _______ _______ _______ _____ _____    ______ ____
ROOT
ATOM      1  N   UNL     1      -0.316  12.257  19.814  0.00  0.00    +0.000 NA
ATOM      2  C   UNL     1       1.163  12.080  19.829  0.00  0.00    +0.000 C 
ATOM      3  C   UNL     1       1.665  11.332  18.598  0.00  0.00    +0.000 C 
ATOM      4  C   UNL     1       0.961   9.999  18.345  0.00  0.00    +0.000 C 
ATOM      5  C   UNL     1      -0.556  10.210  18.372  0.00  0.00    +0.000 C 
ATOM      6  C   UNL     1      -1.062  10.980  19.589  0.00  0.00    +0.000 C 
ENDROOT
BRANCH   4   7
ATOM      7  C   UNL     1       1.387   8.893  19.329  0.00  0.00    +0.000 C 
ATOM      8  O   UNL     1       0.857   8.840  20.442  0.00  0.00    +0.000 OA
ATOM      9  N   UNL     1       2.319   7.920  18.928  0.00  0.00    +0.000 N 
ATOM     10  C   UNL     1       3.071   7.943  17.684  0.00  0.00    +0.000 C 
BRANCH   9  11
ATOM     11  C   UNL     1       2.371   6.659  19.687  0.00  0.00    +0.000 C 
BRANCH  11  12
ATOM     12  C   UNL     1       2.839   5.441  18.916  0.00  0.00    +0.000 A 
ATOM     13  C   UNL     1       4.130   4.927  19.098  0.00  0.00    +0.000 A 
ATOM     14  C   UNL     1       4.525   3.746  18.461  0.00  0.00    +0.000 A 
ATOM     15  C   UNL     1       3.640   3.064  17.627  0.00  0.00    +0.000 A 
ATOM     16  C   UNL     1       2.351   3.556  17.439  0.00  0.00    +0.000 A 
ATOM     17  C   UNL     1       1.952   4.734  18.081  0.00  0.00    +0.000 A 
ENDBRANCH  11  12
ENDBRANCH   9  11
ENDBRANCH   4   7
BRANCH   1  18
ATOM     18  S   UNL     1      -0.897  13.053  21.241  0.00  0.00    +0.000 S 
ATOM     19  O   UNL     1       0.215  13.238  22.148  0.00  0.00    +0.000 OA
ATOM     20  O   UNL     1      -2.109  12.387  21.663  0.00  0.00    +0.000 OA
BRANCH  18  27
ATOM     21  C   UNL     1      -3.192  14.985  22.720  0.00  0.00    +0.000 C 
ATOM     22  C   UNL     1      -2.399  15.369  21.530  0.00  0.00    +0.000 A 
ATOM     23  N   UNL     1      -2.577  16.567  20.957  0.00  0.00    +0.000 NA
ATOM     24  O   UNL     1      -1.677  16.624  19.908  0.00  0.00    +0.000 OA
ATOM     25  C   UNL     1      -0.969  15.461  19.845  0.00  0.00    +0.000 A 
ATOM     26  C   UNL     1       0.052  15.386  18.782  0.00  0.00    +0.000 C 
ATOM     27  C   UNL     1      -1.414  14.631  20.846  0.00  0.00    +0.000 A 
ENDBRANCH  18  27
ENDBRANCH   1  18
TORSDOF 5
ENDMDL
MODEL 9
REMARK VINA RESULT:      -6.6      1.675      2.167
REMARK  Name = 
REMARK  8 active torsions:
REMARK  status: ('A' for Active; 'I' for Inactive)
REMARK    1  A    between atoms: C_1  and  C_2
REMARK    2  A    between atoms: C_5  and  C_6
REMARK    3  A    between atoms: C_7  and  S_8
REMARK    4  A    between atoms: S_8  and  N_11
REMARK    5  A    between atoms: C_14  and  C_15
REMARK    6  A    between atoms: N_17  and  C_18
REMARK    7  A    between atoms: N_17  and  C_19
REMARK    8  A    between atoms: C_19  and  C_20
REMARK                            x       y       z     vdW  Elec       q    Type
REMARK                         _______ _______ _______ _____ _____    ______ ____
ROOT
ATOM      1  N   UNL     1       0.213  12.293  19.979  0.00  0.00    +0.000 NA
ATOM      2  C   UNL     1       1.572  11.966  19.465  0.00  0.00    +0.000 C 
ATOM      3  C   UNL     1       1.527  10.984  18.298  0.00  0.00    +0.000 C 
ATOM      4  C   UNL     1       0.732   9.710  18.583  0.00  0.00    +0.000 C 
ATOM      5  C   UNL     1      -0.645  10.081  19.142  0.00  0.00    +0.000 C 
ATOM      6  C   UNL     1      -0.607  11.082  20.294  0.00  0.00    +0.000 C 
ENDROOT
BRANCH   4   7
ATOM      7  C   UNL     1       1.469   8.734  19.519  0.00  0.00    +0.000 C 
ATOM      8  O   UNL     1       1.158   8.693  20.713  0.00  0.00    +0.000 OA
ATOM      9  N   UNL     1       2.434   7.856  18.996  0.00  0.00    +0.000 N 
ATOM     10  C   UNL     1       2.941   7.884  17.634  0.00  0.00    +0.000 C 
BRANCH   9  11
ATOM     11  C   UNL     1       2.786   6.665  19.789  0.00  0.00    +0.000 C 
BRANCH  11  12
ATOM     12  C   UNL     1       2.037   5.394  19.443  0.00  0.00    +0.000 A 
ATOM     13  C   UNL     1       2.066   4.874  18.141  0.00  0.00    +0.000 A 
ATOM     14  C   UNL     1       1.457   3.649  17.848  0.00  0.00    +0.000 A 
ATOM     15  C   UNL     1       0.803   2.929  18.847  0.00  0.00    +0.000 A 
ATOM     16  C   UNL     1       0.769   3.427  20.147  0.00  0.00    +0.000 A 
ATOM     17  C   UNL     1       1.385   4.649  20.444  0.00  0.00    +0.000 A 
ENDBRANCH  11  12
ENDBRANCH   9  11
ENDBRANCH   4   7
BRANCH   1  18
ATOM     18  S   UNL     1       0.266  13.359  21.344  0.00  0.00    +0.000 S 
ATOM     19  O   UNL     1       1.648  13.685  21.620  0.00  0.00    +0.000 OA
ATOM     20  O   UNL     1      -0.598  12.817  22.370  0.00  0.00    +0.000 OA
BRANCH  18  27
ATOM     21  C   UNL     1       1.168  15.637  19.068  0.00  0.00    +0.000 C 
ATOM     22  C   UNL     1      -0.008  15.749  19.959  0.00  0.00    +0.000 A 
ATOM     23  N   UNL     1      -0.803  16.826  19.897  0.00  0.00    +0.000 NA
ATOM     24  O   UNL     1      -1.809  16.609  20.821  0.00  0.00    +0.000 OA
ATOM     25  C   UNL     1      -1.613  15.412  21.443  0.00  0.00    +0.000 A 
ATOM     26  C   UNL     1      -2.629  15.034  22.445  0.00  0.00    +0.000 C 
ATOM     27  C   UNL     1      -0.468  14.846  20.938  0.00  0.00    +0.000 A 
ENDBRANCH  18  27
ENDBRANCH   1  18
TORSDOF 5
ENDMDL
