MODEL 1
REMARK VINA RESULT:      -7.8      0.000      0.000
REMARK  Name = 
REMARK  7 active torsions:
REMARK  status: ('A' for Active; 'I' for Inactive)
REMARK    1  A    between atoms: C_1  and  S_2
REMARK    2  A    between atoms: S_2  and  C_4
REMARK    3  A    between atoms: C_7  and  C_8
REMARK    4  A    between atoms: C_8  and  S_9
REMARK    5  A    between atoms: S_9  and  C_10
REMARK    6  A    between atoms: C_13  and  C_14
REMARK    7  A    between atoms: C_21  and  C_22
REMARK                            x       y       z     vdW  Elec       q    Type
REMARK                         _______ _______ _______ _____ _____    ______ ____
ROOT
ATOM      1  C   UNL     1       2.420   8.675  17.979  0.00  0.00    +0.000 A 
ATOM      2  N   UNL     1       1.514   7.874  18.552  0.00  0.00    +0.000 NA
ATOM      3  C   UNL     1       1.810   6.563  18.609  0.00  0.00    +0.000 A 
ATOM      4  C   UNL     1       2.961   5.971  18.109  0.00  0.00    +0.000 A 
ATOM      5  C   UNL     1       3.813   6.885  17.456  0.00  0.00    +0.000 A 
ATOM      6  N   UNL     1       3.557   8.238  17.411  0.00  0.00    +0.000 NA
ENDROOT
BRANCH   4   7
ATOM      7  C   UNL     1       3.191   4.513  18.332  0.00  0.00    +0.000 A 
ATOM      8  C   UNL     1       2.570   3.542  17.517  0.00  0.00    +0.000 A 
ATOM      9  C   UNL     1       2.816   2.173  17.686  0.00  0.00    +0.000 A 
ATOM     10  C   UNL     1       3.719   1.752  18.648  0.00  0.00    +0.000 A 
ATOM     11  F   UNL     1       3.995   0.448  18.777  0.00  0.00    +0.000 F 
ATOM     12  C   UNL     1       4.338   2.669  19.481  0.00  0.00    +0.000 A 
ATOM     13  C   UNL     1       4.033   4.030  19.357  0.00  0.00    +0.000 A 
ENDBRANCH   4   7
BRANCH   5  14
ATOM     14  C   UNL     1       5.098   6.509  16.805  0.00  0.00    +0.000 A 
ATOM     15  C   UNL     1       5.155   5.855  15.558  0.00  0.00    +0.000 A 
ATOM     16  C   UNL     1       6.357   5.319  15.116  0.00  0.00    +0.000 A 
ATOM     17  N   UNL     1       7.524   5.470  15.764  0.00  0.00    +0.000 NA
ATOM     18  C   UNL     1       7.489   6.197  16.899  0.00  0.00    +0.000 A 
ATOM     19  C   UNL     1       6.326   6.713  17.448  0.00  0.00    +0.000 A 
ENDBRANCH   5  14
BRANCH   1  20
ATOM     20  S   UNL     1       2.120  10.408  18.240  0.00  0.00    +0.000 S 
BRANCH  20  21
ATOM     21  C   UNL     1       0.981  10.418  19.653  0.00  0.00    +0.000 C 
BRANCH  21  25
ATOM     22  C   UNL     1      -3.030  11.317  18.217  0.00  0.00    +0.000 A 
ATOM     23  C   UNL     1      -2.240  10.359  17.573  0.00  0.00    +0.000 A 
ATOM     24  C   UNL     1      -0.961  10.052  18.055  0.00  0.00    +0.000 A 
ATOM     25  C   UNL     1      -0.438  10.703  19.184  0.00  0.00    +0.000 A 
ATOM     26  C   UNL     1      -1.233  11.672  19.819  0.00  0.00    +0.000 A 
ATOM     27  C   UNL     1      -2.516  11.975  19.337  0.00  0.00    +0.000 A 
BRANCH  22  29
ATOM     28  C   UNL     1      -4.402  11.177  15.848  0.00  0.00    +0.000 C 
ATOM     29  S   UNL     1      -4.655  11.755  17.545  0.00  0.00    +0.000 S 
ATOM     30  O   UNL     1      -5.711  10.801  18.211  0.00  0.00    +0.000 OA
ENDBRANCH  22  29
ENDBRANCH  21  25
ENDBRANCH  20  21
ENDBRANCH   1  20
TORSDOF 6
ENDMDL
MODEL 2
REMARK VINA RESULT:      -7.7      2.250      3.824
REMARK  Name = 
REMARK  7 active torsions:
REMARK  status: ('A' for Active; 'I' for Inactive)
REMARK    1  A    between atoms: C_1  and  S_2
REMARK    2  A    between atoms: S_2  and  C_4
REMARK    3  A    between atoms: C_7  and  C_8
REMARK    4  A    between atoms: C_8  and  S_9
REMARK    5  A    between atoms: S_9  and  C_10
REMARK    6  A    between atoms: C_13  and  C_14
REMARK    7  A    between atoms: C_21  and  C_22
REMARK                            x       y       z     vdW  Elec       q    Type
REMARK                         _______ _______ _______ _____ _____    ______ ____
ROOT
ATOM      1  C   UNL     1       1.382   8.504  19.976  0.00  0.00    +0.000 A 
ATOM      2  N   UNL     1       2.028   8.968  18.900  0.00  0.00    +0.000 NA
ATOM      3  C   UNL     1       2.756   8.081  18.198  0.00  0.00    +0.000 A 
ATOM      4  C   UNL     1       2.908   6.737  18.504  0.00  0.00    +0.000 A 
ATOM      5  C   UNL     1       2.256   6.365  19.697  0.00  0.00    +0.000 A 
ATOM      6  N   UNL     1       1.474   7.239  20.420  0.00  0.00    +0.000 NA
ENDROOT
BRANCH   4   7
ATOM      7  C   UNL     1       3.674   5.855  17.574  0.00  0.00    +0.000 A 
ATOM      8  C   UNL     1       4.791   6.341  16.859  0.00  0.00    +0.000 A 
ATOM      9  C   UNL     1       5.546   5.511  16.021  0.00  0.00    +0.000 A 
ATOM     10  C   UNL     1       5.222   4.169  15.912  0.00  0.00    +0.000 A 
ATOM     11  F   UNL     1       5.973   3.362  15.152  0.00  0.00    +0.000 F 
ATOM     12  C   UNL     1       4.125   3.654  16.581  0.00  0.00    +0.000 A 
ATOM     13  C   UNL     1       3.329   4.504  17.360  0.00  0.00    +0.000 A 
ENDBRANCH   4   7
BRANCH   5  14
ATOM     14  C   UNL     1       2.283   4.991  20.269  0.00  0.00    +0.000 A 
ATOM     15  C   UNL     1       3.483   4.291  20.510  0.00  0.00    +0.000 A 
ATOM     16  C   UNL     1       3.442   2.938  20.816  0.00  0.00    +0.000 A 
ATOM     17  N   UNL     1       2.303   2.250  21.003  0.00  0.00    +0.000 NA
ATOM     18  C   UNL     1       1.156   2.948  20.888  0.00  0.00    +0.000 A 
ATOM     19  C   UNL     1       1.099   4.284  20.522  0.00  0.00    +0.000 A 
ENDBRANCH   5  14
BRANCH   1  20
ATOM     20  S   UNL     1       0.188   9.638  20.647  0.00  0.00    +0.000 S 
BRANCH  20  21
ATOM     21  C   UNL     1      -0.001  10.864  19.322  0.00  0.00    +0.000 C 
BRANCH  21  25
ATOM     22  C   UNL     1      -4.163  11.355  18.136  0.00  0.00    +0.000 A 
ATOM     23  C   UNL     1      -3.362  10.373  17.542  0.00  0.00    +0.000 A 
ATOM     24  C   UNL     1      -2.033  10.199  17.946  0.00  0.00    +0.000 A 
ATOM     25  C   UNL     1      -1.468  11.009  18.944  0.00  0.00    +0.000 A 
ATOM     26  C   UNL     1      -2.275  12.000  19.529  0.00  0.00    +0.000 A 
ATOM     27  C   UNL     1      -3.608  12.170  19.126  0.00  0.00    +0.000 A 
BRANCH  22  29
ATOM     28  C   UNL     1      -6.715  10.584  18.775  0.00  0.00    +0.000 C 
ATOM     29  S   UNL     1      -5.860  11.615  17.557  0.00  0.00    +0.000 S 
ATOM     30  O   UNL     1      -6.236  13.109  17.864  0.00  0.00    +0.000 OA
ENDBRANCH  22  29
ENDBRANCH  21  25
ENDBRANCH  20  21
ENDBRANCH   1  20
TORSDOF 6
ENDMDL
MODEL 3
REMARK VINA RESULT:      -7.5      2.273      3.884
REMARK  Name = 
REMARK  7 active torsions:
REMARK  status: ('A' for Active; 'I' for Inactive)
REMARK    1  A    between atoms: C_1  and  S_2
REMARK    2  A    between atoms: S_2  and  C_4
REMARK    3  A    between atoms: C_7  and  C_8
REMARK    4  A    between atoms: C_8  and  S_9
REMARK    5  A    between atoms: S_9  and  C_10
REMARK    6  A    between atoms: C_13  and  C_14
REMARK    7  A    between atoms: C_21  and  C_22
REMARK                            x       y       z     vdW  Elec       q    Type
REMARK                         _______ _______ _______ _____ _____    ______ ____
ROOT
ATOM      1  C   UNL     1       1.595   8.542  19.327  0.00  0.00    +0.000 A 
ATOM      2  N   UNL     1       2.449   9.000  18.405  0.00  0.00    +0.000 NA
ATOM      3  C   UNL     1       3.228   8.091  17.791  0.00  0.00    +0.000 A 
ATOM      4  C   UNL     1       3.233   6.727  18.046  0.00  0.00    +0.000 A 
ATOM      5  C   UNL     1       2.359   6.356  19.087  0.00  0.00    +0.000 A 
ATOM      6  N   UNL     1       1.522   7.256  19.711  0.00  0.00    +0.000 NA
ENDROOT
BRANCH   4   7
ATOM      7  C   UNL     1       4.090   5.830  17.214  0.00  0.00    +0.000 A 
ATOM      8  C   UNL     1       4.045   4.428  17.368  0.00  0.00    +0.000 A 
ATOM      9  C   UNL     1       4.808   3.574  16.561  0.00  0.00    +0.000 A 
ATOM     10  C   UNL     1       5.602   4.106  15.558  0.00  0.00    +0.000 A 
ATOM     11  F   UNL     1       6.291   3.290  14.752  0.00  0.00    +0.000 F 
ATOM     12  C   UNL     1       5.689   5.476  15.384  0.00  0.00    +0.000 A 
ATOM     13  C   UNL     1       4.982   6.329  16.241  0.00  0.00    +0.000 A 
ENDBRANCH   4   7
BRANCH   5  14
ATOM     14  C   UNL     1       2.193   4.961  19.580  0.00  0.00    +0.000 A 
ATOM     15  C   UNL     1       1.316   4.040  18.974  0.00  0.00    +0.000 A 
ATOM     16  C   UNL     1       1.025   2.843  19.614  0.00  0.00    +0.000 A 
ATOM     17  N   UNL     1       1.614   2.444  20.753  0.00  0.00    +0.000 NA
ATOM     18  C   UNL     1       2.541   3.275  21.271  0.00  0.00    +0.000 A 
ATOM     19  C   UNL     1       2.848   4.516  20.737  0.00  0.00    +0.000 A 
ENDBRANCH   5  14
BRANCH   1  20
ATOM     20  S   UNL     1       0.380   9.734  19.843  0.00  0.00    +0.000 S 
BRANCH  20  21
ATOM     21  C   UNL     1      -0.197  10.437  18.272  0.00  0.00    +0.000 C 
BRANCH  21  25
ATOM     22  C   UNL     1      -4.345  11.672  18.747  0.00  0.00    +0.000 A 
ATOM     23  C   UNL     1      -3.323  12.315  19.454  0.00  0.00    +0.000 A 
ATOM     24  C   UNL     1      -1.987  11.935  19.277  0.00  0.00    +0.000 A 
ATOM     25  C   UNL     1      -1.642  10.895  18.400  0.00  0.00    +0.000 A 
ATOM     26  C   UNL     1      -2.674  10.246  17.701  0.00  0.00    +0.000 A 
ATOM     27  C   UNL     1      -4.012  10.632  17.876  0.00  0.00    +0.000 A 
BRANCH  22  29
ATOM     28  C   UNL     1      -6.832  10.519  18.695  0.00  0.00    +0.000 C 
ATOM     29  S   UNL     1      -6.075  12.128  19.036  0.00  0.00    +0.000 S 
ATOM     30  O   UNL     1      -6.237  12.404  20.573  0.00  0.00    +0.000 OA
ENDBRANCH  22  29
ENDBRANCH  21  25
ENDBRANCH  20  21
ENDBRANCH   1  20
TORSDOF 6
ENDMDL
MODEL 4
REMARK VINA RESULT:      -7.5      5.340     10.007
REMARK  Name = 
REMARK  7 active torsions:
REMARK  status: ('A' for Active; 'I' for Inactive)
REMARK    1  A    between atoms: C_1  and  S_2
REMARK    2  A    between atoms: S_2  and  C_4
REMARK    3  A    between atoms: C_7  and  C_8
REMARK    4  A    between atoms: C_8  and  S_9
REMARK    5  A    between atoms: S_9  and  C_10
REMARK    6  A    between atoms: C_13  and  C_14
REMARK    7  A    between atoms: C_21  and  C_22
REMARK                            x       y       z     vdW  Elec       q    Type
REMARK                         _______ _______ _______ _____ _____    ______ ____
ROOT
ATOM      1  C   UNL     1       1.003   9.087  21.213  0.00  0.00    +0.000 A 
ATOM      2  N   UNL     1       0.335   8.869  22.351  0.00  0.00    +0.000 NA
ATOM      3  C   UNL     1      -0.367   9.902  22.853  0.00  0.00    +0.000 A 
ATOM      4  C   UNL     1      -0.441  11.173  22.302  0.00  0.00    +0.000 A 
ATOM      5  C   UNL     1       0.359  11.323  21.151  0.00  0.00    +0.000 A 
ATOM      6  N   UNL     1       1.061  10.278  20.592  0.00  0.00    +0.000 NA
ENDROOT
BRANCH   4   7
ATOM      7  C   UNL     1      -1.339  12.190  22.924  0.00  0.00    +0.000 A 
ATOM      8  C   UNL     1      -2.656  11.862  23.314  0.00  0.00    +0.000 A 
ATOM      9  C   UNL     1      -3.491  12.795  23.942  0.00  0.00    +0.000 A 
ATOM     10  C   UNL     1      -3.011  14.062  24.229  0.00  0.00    +0.000 A 
ATOM     11  F   UNL     1      -3.789  14.938  24.877  0.00  0.00    +0.000 F 
ATOM     12  C   UNL     1      -1.732  14.431  23.849  0.00  0.00    +0.000 A 
ATOM     13  C   UNL     1      -0.927  13.519  23.155  0.00  0.00    +0.000 A 
ENDBRANCH   4   7
BRANCH   5  14
ATOM     14  C   UNL     1       0.485  12.592  20.383  0.00  0.00    +0.000 A 
ATOM     15  C   UNL     1      -0.495  13.028  19.469  0.00  0.00    +0.000 A 
ATOM     16  C   UNL     1      -0.216  14.084  18.612  0.00  0.00    +0.000 A 
ATOM     17  N   UNL     1       0.915  14.806  18.662  0.00  0.00    +0.000 NA
ATOM     18  C   UNL     1       1.804  14.463  19.616  0.00  0.00    +0.000 A 
ATOM     19  C   UNL     1       1.639  13.384  20.470  0.00  0.00    +0.000 A 
ENDBRANCH   5  14
BRANCH   1  20
ATOM     20  S   UNL     1       1.619   7.608  20.442  0.00  0.00    +0.000 S 
BRANCH  20  21
ATOM     21  C   UNL     1       1.989   8.153  18.750  0.00  0.00    +0.000 C 
BRANCH  21  25
ATOM     22  C   UNL     1       4.739   5.315  16.921  0.00  0.00    +0.000 A 
ATOM     23  C   UNL     1       3.675   4.869  17.712  0.00  0.00    +0.000 A 
ATOM     24  C   UNL     1       2.775   5.783  18.274  0.00  0.00    +0.000 A 
ATOM     25  C   UNL     1       2.925   7.164  18.071  0.00  0.00    +0.000 A 
ATOM     26  C   UNL     1       4.003   7.605  17.285  0.00  0.00    +0.000 A 
ATOM     27  C   UNL     1       4.900   6.688  16.718  0.00  0.00    +0.000 A 
BRANCH  22  29
ATOM     28  C   UNL     1       5.643   4.420  14.493  0.00  0.00    +0.000 C 
ATOM     29  S   UNL     1       5.935   4.128  16.254  0.00  0.00    +0.000 S 
ATOM     30  O   UNL     1       7.371   4.673  16.586  0.00  0.00    +0.000 OA
ENDBRANCH  22  29
ENDBRANCH  21  25
ENDBRANCH  20  21
ENDBRANCH   1  20
TORSDOF 6
ENDMDL
MODEL 5
REMARK VINA RESULT:      -7.5      2.232      3.976
REMARK  Name = 
REMARK  7 active torsions:
REMARK  status: ('A' for Active; 'I' for Inactive)
REMARK    1  A    between atoms: C_1  and  S_2
REMARK    2  A    between atoms: S_2  and  C_4
REMARK    3  A    between atoms: C_7  and  C_8
REMARK    4  A    between atoms: C_8  and  S_9
REMARK    5  A    between atoms: S_9  and  C_10
REMARK    6  A    between atoms: C_13  and  C_14
REMARK    7  A    between atoms: C_21  and  C_22
REMARK                            x       y       z     vdW  Elec       q    Type
REMARK                         _______ _______ _______ _____ _____    ______ ____
ROOT
ATOM      1  C   UNL     1       1.362   8.662  19.654  0.00  0.00    +0.000 A 
ATOM      2  N   UNL     1       2.193   9.091  18.698  0.00  0.00    +0.000 NA
ATOM      3  C   UNL     1       2.955   8.162  18.091  0.00  0.00    +0.000 A 
ATOM      4  C   UNL     1       2.963   6.806  18.384  0.00  0.00    +0.000 A 
ATOM      5  C   UNL     1       2.114   6.468  19.457  0.00  0.00    +0.000 A 
ATOM      6  N   UNL     1       1.295   7.387  20.076  0.00  0.00    +0.000 NA
ENDROOT
BRANCH   4   7
ATOM      7  C   UNL     1       3.796   5.883  17.557  0.00  0.00    +0.000 A 
ATOM      8  C   UNL     1       3.584   4.488  17.580  0.00  0.00    +0.000 A 
ATOM      9  C   UNL     1       4.327   3.617  16.774  0.00  0.00    +0.000 A 
ATOM     10  C   UNL     1       5.271   4.129  15.898  0.00  0.00    +0.000 A 
ATOM     11  F   UNL     1       5.945   3.304  15.088  0.00  0.00    +0.000 F 
ATOM     12  C   UNL     1       5.523   5.490  15.855  0.00  0.00    +0.000 A 
ATOM     13  C   UNL     1       4.830   6.349  16.717  0.00  0.00    +0.000 A 
ENDBRANCH   4   7
BRANCH   5  14
ATOM     14  C   UNL     1       1.957   5.088  19.993  0.00  0.00    +0.000 A 
ATOM     15  C   UNL     1       2.772   4.576  21.023  0.00  0.00    +0.000 A 
ATOM     16  C   UNL     1       2.742   3.220  21.315  0.00  0.00    +0.000 A 
ATOM     17  N   UNL     1       1.894   2.352  20.739  0.00  0.00    +0.000 NA
ATOM     18  C   UNL     1       1.033   2.864  19.837  0.00  0.00    +0.000 A 
ATOM     19  C   UNL     1       1.036   4.190  19.436  0.00  0.00    +0.000 A 
ENDBRANCH   5  14
BRANCH   1  20
ATOM     20  S   UNL     1       0.163   9.872  20.166  0.00  0.00    +0.000 S 
BRANCH  20  21
ATOM     21  C   UNL     1      -0.205  10.760  18.626  0.00  0.00    +0.000 C 
BRANCH  21  25
ATOM     22  C   UNL     1      -4.528  11.090  18.224  0.00  0.00    +0.000 A 
ATOM     23  C   UNL     1      -3.814  11.999  19.012  0.00  0.00    +0.000 A 
ATOM     24  C   UNL     1      -2.420  11.907  19.116  0.00  0.00    +0.000 A 
ATOM     25  C   UNL     1      -1.710  10.898  18.445  0.00  0.00    +0.000 A 
ATOM     26  C   UNL     1      -2.435   9.983  17.665  0.00  0.00    +0.000 A 
ATOM     27  C   UNL     1      -3.832  10.079  17.558  0.00  0.00    +0.000 A 
BRANCH  22  29
ATOM     28  C   UNL     1      -6.650  11.598  19.884  0.00  0.00    +0.000 C 
ATOM     29  S   UNL     1      -6.337  11.177  18.152  0.00  0.00    +0.000 S 
ATOM     30  O   UNL     1      -6.712  12.436  17.290  0.00  0.00    +0.000 OA
ENDBRANCH  22  29
ENDBRANCH  21  25
ENDBRANCH  20  21
ENDBRANCH   1  20
TORSDOF 6
ENDMDL
MODEL 6
REMARK VINA RESULT:      -7.4      1.962      2.471
REMARK  Name = 
REMARK  7 active torsions:
REMARK  status: ('A' for Active; 'I' for Inactive)
REMARK    1  A    between atoms: C_1  and  S_2
REMARK    2  A    between atoms: S_2  and  C_4
REMARK    3  A    between atoms: C_7  and  C_8
REMARK    4  A    between atoms: C_8  and  S_9
REMARK    5  A    between atoms: S_9  and  C_10
REMARK    6  A    between atoms: C_13  and  C_14
REMARK    7  A    between atoms: C_21  and  C_22
REMARK                            x       y       z     vdW  Elec       q    Type
REMARK                         _______ _______ _______ _____ _____    ______ ____
ROOT
ATOM      1  C   UNL     1       2.267   8.624  18.059  0.00  0.00    +0.000 A 
ATOM      2  N   UNL     1       1.373   7.785  18.594  0.00  0.00    +0.000 NA
ATOM      3  C   UNL     1       1.707   6.482  18.636  0.00  0.00    +0.000 A 
ATOM      4  C   UNL     1       2.889   5.936  18.157  0.00  0.00    +0.000 A 
ATOM      5  C   UNL     1       3.728   6.887  17.542  0.00  0.00    +0.000 A 
ATOM      6  N   UNL     1       3.432   8.232  17.513  0.00  0.00    +0.000 NA
ENDROOT
BRANCH   4   7
ATOM      7  C   UNL     1       3.159   4.481  18.361  0.00  0.00    +0.000 A 
ATOM      8  C   UNL     1       2.578   3.505  17.522  0.00  0.00    +0.000 A 
ATOM      9  C   UNL     1       2.862   2.142  17.674  0.00  0.00    +0.000 A 
ATOM     10  C   UNL     1       3.763   1.732  18.643  0.00  0.00    +0.000 A 
ATOM     11  F   UNL     1       4.076   0.435  18.756  0.00  0.00    +0.000 F 
ATOM     12  C   UNL     1       4.342   2.654  19.498  0.00  0.00    +0.000 A 
ATOM     13  C   UNL     1       3.999   4.007  19.391  0.00  0.00    +0.000 A 
ENDBRANCH   4   7
BRANCH   5  14
ATOM     14  C   UNL     1       5.041   6.562  16.919  0.00  0.00    +0.000 A 
ATOM     15  C   UNL     1       5.152   5.863  15.700  0.00  0.00    +0.000 A 
ATOM     16  C   UNL     1       6.388   5.382  15.292  0.00  0.00    +0.000 A 
ATOM     17  N   UNL     1       7.536   5.629  15.944  0.00  0.00    +0.000 NA
ATOM     18  C   UNL     1       7.445   6.397  17.048  0.00  0.00    +0.000 A 
ATOM     19  C   UNL     1       6.248   6.865  17.564  0.00  0.00    +0.000 A 
ENDBRANCH   5  14
BRANCH   1  20
ATOM     20  S   UNL     1       1.907  10.342  18.341  0.00  0.00    +0.000 S 
BRANCH  20  21
ATOM     21  C   UNL     1       0.106  10.422  18.132  0.00  0.00    +0.000 C 
BRANCH  21  25
ATOM     22  C   UNL     1      -1.666  12.096  21.740  0.00  0.00    +0.000 A 
ATOM     23  C   UNL     1      -1.965  12.633  20.483  0.00  0.00    +0.000 A 
ATOM     24  C   UNL     1      -1.417  12.073  19.323  0.00  0.00    +0.000 A 
ATOM     25  C   UNL     1      -0.546  10.974  19.392  0.00  0.00    +0.000 A 
ATOM     26  C   UNL     1      -0.241  10.448  20.658  0.00  0.00    +0.000 A 
ATOM     27  C   UNL     1      -0.796  11.006  21.820  0.00  0.00    +0.000 A 
BRANCH  22  29
ATOM     28  C   UNL     1      -3.245  14.220  22.456  0.00  0.00    +0.000 C 
ATOM     29  S   UNL     1      -2.328  12.871  23.239  0.00  0.00    +0.000 S 
ATOM     30  O   UNL     1      -3.384  11.882  23.851  0.00  0.00    +0.000 OA
ENDBRANCH  22  29
ENDBRANCH  21  25
ENDBRANCH  20  21
ENDBRANCH   1  20
TORSDOF 6
ENDMDL
MODEL 7
REMARK VINA RESULT:      -7.4      2.966      4.434
REMARK  Name = 
REMARK  7 active torsions:
REMARK  status: ('A' for Active; 'I' for Inactive)
REMARK    1  A    between atoms: C_1  and  S_2
REMARK    2  A    between atoms: S_2  and  C_4
REMARK    3  A    between atoms: C_7  and  C_8
REMARK    4  A    between atoms: C_8  and  S_9
REMARK    5  A    between atoms: S_9  and  C_10
REMARK    6  A    between atoms: C_13  and  C_14
REMARK    7  A    between atoms: C_21  and  C_22
REMARK                            x       y       z     vdW  Elec       q    Type
REMARK                         _______ _______ _______ _____ _____    ______ ____
ROOT
ATOM      1  C   UNL     1       1.405   9.004  18.508  0.00  0.00    +0.000 A 
ATOM      2  N   UNL     1       2.465   9.467  17.834  0.00  0.00    +0.000 NA
ATOM      3  C   UNL     1       3.445   8.586  17.561  0.00  0.00    +0.000 A 
ATOM      4  C   UNL     1       3.457   7.250  17.932  0.00  0.00    +0.000 A 
ATOM      5  C   UNL     1       2.338   6.880  18.705  0.00  0.00    +0.000 A 
ATOM      6  N   UNL     1       1.301   7.747  18.973  0.00  0.00    +0.000 NA
ENDROOT
BRANCH   4   7
ATOM      7  C   UNL     1       4.575   6.372  17.472  0.00  0.00    +0.000 A 
ATOM      8  C   UNL     1       4.905   6.265  16.104  0.00  0.00    +0.000 A 
ATOM      9  C   UNL     1       5.981   5.483  15.665  0.00  0.00    +0.000 A 
ATOM     10  C   UNL     1       6.772   4.824  16.592  0.00  0.00    +0.000 A 
ATOM     11  F   UNL     1       7.833   4.118  16.180  0.00  0.00    +0.000 F 
ATOM     12  C   UNL     1       6.474   4.887  17.942  0.00  0.00    +0.000 A 
ATOM     13  C   UNL     1       5.353   5.610  18.369  0.00  0.00    +0.000 A 
ENDBRANCH   4   7
BRANCH   5  14
ATOM     14  C   UNL     1       2.119   5.515  19.257  0.00  0.00    +0.000 A 
ATOM     15  C   UNL     1       1.668   4.439  18.467  0.00  0.00    +0.000 A 
ATOM     16  C   UNL     1       1.255   3.262  19.076  0.00  0.00    +0.000 A 
ATOM     17  N   UNL     1       1.353   3.033  20.396  0.00  0.00    +0.000 NA
ATOM     18  C   UNL     1       1.895   4.019  21.138  0.00  0.00    +0.000 A 
ATOM     19  C   UNL     1       2.273   5.250  20.625  0.00  0.00    +0.000 A 
ENDBRANCH   5  14
BRANCH   1  20
ATOM     20  S   UNL     1       0.022  10.121  18.536  0.00  0.00    +0.000 S 
BRANCH  20  21
ATOM     21  C   UNL     1       0.550  11.396  19.716  0.00  0.00    +0.000 C 
BRANCH  21  25
ATOM     22  C   UNL     1      -2.640  12.476  22.476  0.00  0.00    +0.000 A 
ATOM     23  C   UNL     1      -2.625  12.980  21.171  0.00  0.00    +0.000 A 
ATOM     24  C   UNL     1      -1.614  12.607  20.277  0.00  0.00    +0.000 A 
ATOM     25  C   UNL     1      -0.587  11.734  20.670  0.00  0.00    +0.000 A 
ATOM     26  C   UNL     1      -0.603  11.241  21.985  0.00  0.00    +0.000 A 
ATOM     27  C   UNL     1      -1.620  11.611  22.878  0.00  0.00    +0.000 A 
BRANCH  22  29
ATOM     28  C   UNL     1      -5.226  13.386  22.451  0.00  0.00    +0.000 C 
ATOM     29  S   UNL     1      -3.915  13.019  23.644  0.00  0.00    +0.000 S 
ATOM     30  O   UNL     1      -4.369  11.757  24.463  0.00  0.00    +0.000 OA
ENDBRANCH  22  29
ENDBRANCH  21  25
ENDBRANCH  20  21
ENDBRANCH   1  20
TORSDOF 6
ENDMDL
MODEL 8
REMARK VINA RESULT:      -7.3      5.496     10.336
REMARK  Name = 
REMARK  7 active torsions:
REMARK  status: ('A' for Active; 'I' for Inactive)
REMARK    1  A    between atoms: C_1  and  S_2
REMARK    2  A    between atoms: S_2  and  C_4
REMARK    3  A    between atoms: C_7  and  C_8
REMARK    4  A    between atoms: C_8  and  S_9
REMARK    5  A    between atoms: S_9  and  C_10
REMARK    6  A    between atoms: C_13  and  C_14
REMARK    7  A    between atoms: C_21  and  C_22
REMARK                            x       y       z     vdW  Elec       q    Type
REMARK                         _______ _______ _______ _____ _____    ______ ____
ROOT
ATOM      1  C   UNL     1       0.704   9.279  21.634  0.00  0.00    +0.000 A 
ATOM      2  N   UNL     1      -0.051   9.124  22.727  0.00  0.00    +0.000 NA
ATOM      3  C   UNL     1      -0.758  10.194  23.136  0.00  0.00    +0.000 A 
ATOM      4  C   UNL     1      -0.756  11.443  22.532  0.00  0.00    +0.000 A 
ATOM      5  C   UNL     1       0.130  11.526  21.439  0.00  0.00    +0.000 A 
ATOM      6  N   UNL     1       0.841  10.442  20.974  0.00  0.00    +0.000 NA
ENDROOT
BRANCH   4   7
ATOM      7  C   UNL     1      -1.668  12.507  23.047  0.00  0.00    +0.000 A 
ATOM      8  C   UNL     1      -3.064  12.307  23.108  0.00  0.00    +0.000 A 
ATOM      9  C   UNL     1      -3.925  13.279  23.634  0.00  0.00    +0.000 A 
ATOM     10  C   UNL     1      -3.401  14.455  24.145  0.00  0.00    +0.000 A 
ATOM     11  F   UNL     1      -4.216  15.364  24.695  0.00  0.00    +0.000 F 
ATOM     12  C   UNL     1      -2.039  14.700  24.088  0.00  0.00    +0.000 A 
ATOM     13  C   UNL     1      -1.191  13.757  23.495  0.00  0.00    +0.000 A 
ENDBRANCH   4   7
BRANCH   5  14
ATOM     14  C   UNL     1       0.348  12.760  20.634  0.00  0.00    +0.000 A 
ATOM     15  C   UNL     1       1.433  13.631  20.856  0.00  0.00    +0.000 A 
ATOM     16  C   UNL     1       1.453  14.876  20.244  0.00  0.00    +0.000 A 
ATOM     17  N   UNL     1       0.536  15.282  19.350  0.00  0.00    +0.000 NA
ATOM     18  C   UNL     1      -0.439  14.401  19.048  0.00  0.00    +0.000 A 
ATOM     19  C   UNL     1      -0.574  13.164  19.658  0.00  0.00    +0.000 A 
ENDBRANCH   5  14
BRANCH   1  20
ATOM     20  S   UNL     1       1.334   7.755  20.968  0.00  0.00    +0.000 S 
BRANCH  20  21
ATOM     21  C   UNL     1       1.807   8.213  19.277  0.00  0.00    +0.000 C 
BRANCH  21  25
ATOM     22  C   UNL     1       4.851   5.465  17.811  0.00  0.00    +0.000 A 
ATOM     23  C   UNL     1       4.151   5.191  18.991  0.00  0.00    +0.000 A 
ATOM     24  C   UNL     1       3.152   6.062  19.444  0.00  0.00    +0.000 A 
ATOM     25  C   UNL     1       2.839   7.233  18.736  0.00  0.00    +0.000 A 
ATOM     26  C   UNL     1       3.555   7.508  17.558  0.00  0.00    +0.000 A 
ATOM     27  C   UNL     1       4.552   6.631  17.103  0.00  0.00    +0.000 A 
BRANCH  22  29
ATOM     28  C   UNL     1       6.660   5.246  15.763  0.00  0.00    +0.000 C 
ATOM     29  S   UNL     1       6.187   4.366  17.272  0.00  0.00    +0.000 S 
ATOM     30  O   UNL     1       7.368   4.526  18.295  0.00  0.00    +0.000 OA
ENDBRANCH  22  29
ENDBRANCH  21  25
ENDBRANCH  20  21
ENDBRANCH   1  20
TORSDOF 6
ENDMDL
MODEL 9
REMARK VINA RESULT:      -7.3      2.914      4.470
REMARK  Name = 
REMARK  7 active torsions:
REMARK  status: ('A' for Active; 'I' for Inactive)
REMARK    1  A    between atoms: C_1  and  S_2
REMARK    2  A    between atoms: S_2  and  C_4
REMARK    3  A    between atoms: C_7  and  C_8
REMARK    4  A    between atoms: C_8  and  S_9
REMARK    5  A    between atoms: S_9  and  C_10
REMARK    6  A    between atoms: C_13  and  C_14
REMARK    7  A    between atoms: C_21  and  C_22
REMARK                            x       y       z     vdW  Elec       q    Type
REMARK                         _______ _______ _______ _____ _____    ______ ____
ROOT
ATOM      1  C   UNL     1       1.435   9.016  18.638  0.00  0.00    +0.000 A 
ATOM      2  N   UNL     1       2.457   9.547  17.958  0.00  0.00    +0.000 NA
ATOM      3  C   UNL     1       3.436   8.707  17.574  0.00  0.00    +0.000 A 
ATOM      4  C   UNL     1       3.484   7.346  17.839  0.00  0.00    +0.000 A 
ATOM      5  C   UNL     1       2.405   6.899  18.628  0.00  0.00    +0.000 A 
ATOM      6  N   UNL     1       1.369   7.725  19.007  0.00  0.00    +0.000 NA
ENDROOT
BRANCH   4   7
ATOM      7  C   UNL     1       4.592   6.526  17.264  0.00  0.00    +0.000 A 
ATOM      8  C   UNL     1       5.454   5.779  18.095  0.00  0.00    +0.000 A 
ATOM      9  C   UNL     1       6.466   4.969  17.565  0.00  0.00    +0.000 A 
ATOM     10  C   UNL     1       6.610   4.860  16.191  0.00  0.00    +0.000 A 
ATOM     11  F   UNL     1       7.542   4.046  15.681  0.00  0.00    +0.000 F 
ATOM     12  C   UNL     1       5.797   5.589  15.340  0.00  0.00    +0.000 A 
ATOM     13  C   UNL     1       4.835   6.454  15.876  0.00  0.00    +0.000 A 
ENDBRANCH   4   7
BRANCH   5  14
ATOM     14  C   UNL     1       2.229   5.491  19.080  0.00  0.00    +0.000 A 
ATOM     15  C   UNL     1       2.546   5.068  20.387  0.00  0.00    +0.000 A 
ATOM     16  C   UNL     1       2.590   3.712  20.679  0.00  0.00    +0.000 A 
ATOM     17  N   UNL     1       2.244   2.750  19.808  0.00  0.00    +0.000 NA
ATOM     18  C   UNL     1       1.828   3.162  18.594  0.00  0.00    +0.000 A 
ATOM     19  C   UNL     1       1.814   4.488  18.193  0.00  0.00    +0.000 A 
ENDBRANCH   5  14
BRANCH   1  20
ATOM     20  S   UNL     1       0.039  10.103  18.812  0.00  0.00    +0.000 S 
BRANCH  20  21
ATOM     21  C   UNL     1       0.527  11.176  20.192  0.00  0.00    +0.000 C 
BRANCH  21  25
ATOM     22  C   UNL     1      -2.910  12.408  22.565  0.00  0.00    +0.000 A 
ATOM     23  C   UNL     1      -2.824  12.740  21.208  0.00  0.00    +0.000 A 
ATOM     24  C   UNL     1      -1.731  12.317  20.442  0.00  0.00    +0.000 A 
ATOM     25  C   UNL     1      -0.693  11.565  21.015  0.00  0.00    +0.000 A 
ATOM     26  C   UNL     1      -0.781  11.245  22.380  0.00  0.00    +0.000 A 
ATOM     27  C   UNL     1      -1.880  11.665  23.146  0.00  0.00    +0.000 A 
BRANCH  22  29
ATOM     28  C   UNL     1      -5.580  12.964  22.290  0.00  0.00    +0.000 C 
ATOM     29  S   UNL     1      -4.295  13.018  23.562  0.00  0.00    +0.000 S 
ATOM     30  O   UNL     1      -4.637  11.907  24.619  0.00  0.00    +0.000 OA
ENDBRANCH  22  29
ENDBRANCH  21  25
ENDBRANCH  20  21
ENDBRANCH   1  20
TORSDOF 6
ENDMDL
