MODEL 1
REMARK VINA RESULT:      -8.2      0.000      0.000
REMARK  Name = 
REMARK  9 active torsions:
REMARK  status: ('A' for Active; 'I' for Inactive)
REMARK    1  A    between atoms: C_1  and  S_2
REMARK    2  A    between atoms: S_2  and  C_3
REMARK    3  A    between atoms: N_5  and  C_6
REMARK    4  A    between atoms: C_10  and  C_11
REMARK    5  A    between atoms: C_14  and  C_15
REMARK    6  A    between atoms: C_15  and  C_16
REMARK    7  A    between atoms: C_16  and  C_17
REMARK    8  A    between atoms: C_16  and  N_19
REMARK    9  A    between atoms: C_20  and  C_22
REMARK                            x       y       z     vdW  Elec       q    Type
REMARK                         _______ _______ _______ _____ _____    ______ ____
ROOT
ATOM      1  C   UNL     1       1.831   7.264  19.920  0.00  0.00    +0.000 A 
ATOM      2  C   UNL     1       1.207   7.857  21.037  0.00  0.00    +0.000 A 
ATOM      3  C   UNL     1       0.746   9.173  21.005  0.00  0.00    +0.000 A 
ATOM      4  C   UNL     1       0.878   9.931  19.842  0.00  0.00    +0.000 A 
ATOM      5  C   UNL     1       1.502   9.349  18.735  0.00  0.00    +0.000 A 
ATOM      6  F   UNL     1       1.660  10.058  17.608  0.00  0.00    +0.000 F 
ATOM      7  C   UNL     1       1.960   8.037  18.761  0.00  0.00    +0.000 A 
ENDROOT
BRANCH   1  12
ATOM      8  C   UNL     1       4.268   4.410  19.478  0.00  0.00    +0.000 A 
ATOM      9  C   UNL     1       3.545   3.338  19.994  0.00  0.00    +0.000 A 
ATOM     10  C   UNL     1       2.256   3.531  20.497  0.00  0.00    +0.000 A 
ATOM     11  C   UNL     1       1.692   4.810  20.501  0.00  0.00    +0.000 A 
ATOM     12  C   UNL     1       2.405   5.910  20.001  0.00  0.00    +0.000 A 
ATOM     13  C   UNL     1       3.697   5.679  19.503  0.00  0.00    +0.000 A 
BRANCH   8  18
ATOM     14  C   UNL     1       5.344   4.159  16.248  0.00  0.00    +0.000 C 
ATOM     15  S   UNL     1       6.114   4.889  17.680  0.00  0.00    +0.000 S 
ATOM     16  C   UNL     1       7.807   4.395  17.490  0.00  0.00    +0.000 C 
ATOM     17  O   UNL     1       6.089   6.328  17.484  0.00  0.00    +0.000 OA
ATOM     18  N   UNL     1       5.556   4.142  18.913  0.00  0.00    +0.000 NA
ENDBRANCH   8  18
ENDBRANCH   1  12
BRANCH   4  19
ATOM     19  C   UNL     1       0.321  11.327  19.779  0.00  0.00    +0.000 C 
BRANCH  19  20
ATOM     20  C   UNL     1       0.803  12.202  20.944  0.00  0.00    +0.000 C 
BRANCH  20  21
ATOM     21  N   UNL     1      -0.322  12.897  21.592  0.00  0.00    +0.000 N 
ATOM     22  C   UNL     1      -0.925  12.375  22.722  0.00  0.00    +0.000 C 
ATOM     23  O   UNL     1      -0.564  11.313  23.222  0.00  0.00    +0.000 OA
ATOM     24  H   UNL     1      -0.664  13.777  21.217  0.00  0.00    +0.000 HD
BRANCH  22  25
ATOM     25  C   UNL     1      -2.084  13.229  23.286  0.00  0.00    +0.000 C 
ATOM     26  N   UNL     1      -2.385  14.378  22.370  0.00  0.00    +0.000 NA
ATOM     27  C   UNL     1      -3.834  14.219  22.056  0.00  0.00    +0.000 C 
ATOM     28  C   UNL     1      -4.661  14.539  23.312  0.00  0.00    +0.000 C 
ATOM     29  C   UNL     1      -4.400  13.322  24.211  0.00  0.00    +0.000 C 
ATOM     30  C   UNL     1      -3.428  12.482  23.357  0.00  0.00    +0.000 C 
ATOM     31  C   UNL     1      -3.983  12.709  21.954  0.00  0.00    +0.000 C 
ATOM     32  H   UNL     1      -1.875  14.235  21.498  0.00  0.00    +0.000 HD
ENDBRANCH  22  25
ENDBRANCH  20  21
BRANCH  20  33
ATOM     33  C   UNL     1       1.874  13.186  20.500  0.00  0.00    +0.000 C 
ATOM     34  N   UNL     1       2.763  14.002  20.132  0.00  0.00    +0.000 NA
ENDBRANCH  20  33
ENDBRANCH  19  20
ENDBRANCH   4  19
TORSDOF 7
ENDMDL
MODEL 2
REMARK VINA RESULT:      -8.2      7.241     10.149
REMARK  Name = 
REMARK  9 active torsions:
REMARK  status: ('A' for Active; 'I' for Inactive)
REMARK    1  A    between atoms: C_1  and  S_2
REMARK    2  A    between atoms: S_2  and  C_3
REMARK    3  A    between atoms: N_5  and  C_6
REMARK    4  A    between atoms: C_10  and  C_11
REMARK    5  A    between atoms: C_14  and  C_15
REMARK    6  A    between atoms: C_15  and  C_16
REMARK    7  A    between atoms: C_16  and  C_17
REMARK    8  A    between atoms: C_16  and  N_19
REMARK    9  A    between atoms: C_20  and  C_22
REMARK                            x       y       z     vdW  Elec       q    Type
REMARK                         _______ _______ _______ _____ _____    ______ ____
ROOT
ATOM      1  C   UNL     1       8.437   8.835  18.604  0.00  0.00    +0.000 A 
ATOM      2  C   UNL     1       7.786   8.714  17.358  0.00  0.00    +0.000 A 
ATOM      3  C   UNL     1       7.364   7.478  16.870  0.00  0.00    +0.000 A 
ATOM      4  C   UNL     1       7.564   6.324  17.626  0.00  0.00    +0.000 A 
ATOM      5  C   UNL     1       8.214   6.438  18.857  0.00  0.00    +0.000 A 
ATOM      6  F   UNL     1       8.438   5.344  19.600  0.00  0.00    +0.000 F 
ATOM      7  C   UNL     1       8.633   7.669  19.351  0.00  0.00    +0.000 A 
ENDROOT
BRANCH   1  12
ATOM      8  C   UNL     1       9.793  12.359  18.470  0.00  0.00    +0.000 A 
ATOM      9  C   UNL     1      10.098  12.597  19.808  0.00  0.00    +0.000 A 
ATOM     10  C   UNL     1       9.860  11.614  20.772  0.00  0.00    +0.000 A 
ATOM     11  C   UNL     1       9.297  10.390  20.398  0.00  0.00    +0.000 A 
ATOM     12  C   UNL     1       8.968  10.131  19.059  0.00  0.00    +0.000 A 
ATOM     13  C   UNL     1       9.220  11.141  18.117  0.00  0.00    +0.000 A 
BRANCH   8  18
ATOM     14  C   UNL     1       8.540  15.490  17.935  0.00  0.00    +0.000 C 
ATOM     15  S   UNL     1      10.212  14.877  17.874  0.00  0.00    +0.000 S 
ATOM     16  C   UNL     1      10.868  15.715  16.454  0.00  0.00    +0.000 C 
ATOM     17  O   UNL     1      10.906  15.430  19.024  0.00  0.00    +0.000 OA
ATOM     18  N   UNL     1      10.122  13.375  17.516  0.00  0.00    +0.000 NA
ENDBRANCH   8  18
ENDBRANCH   1  12
BRANCH   4  19
ATOM     19  C   UNL     1       7.050   4.997  17.136  0.00  0.00    +0.000 C 
BRANCH  19  20
ATOM     20  C   UNL     1       5.626   5.093  16.575  0.00  0.00    +0.000 C 
BRANCH  20  21
ATOM     21  N   UNL     1       4.682   4.285  17.367  0.00  0.00    +0.000 N 
ATOM     22  C   UNL     1       3.541   4.851  17.906  0.00  0.00    +0.000 C 
ATOM     23  O   UNL     1       3.271   6.040  17.761  0.00  0.00    +0.000 OA
ATOM     24  H   UNL     1       4.860   3.298  17.522  0.00  0.00    +0.000 HD
BRANCH  22  25
ATOM     25  C   UNL     1       2.650   3.869  18.702  0.00  0.00    +0.000 C 
ATOM     26  N   UNL     1       3.475   3.087  19.682  0.00  0.00    +0.000 NA
ATOM     27  C   UNL     1       2.823   3.354  20.996  0.00  0.00    +0.000 C 
ATOM     28  C   UNL     1       1.459   2.646  21.036  0.00  0.00    +0.000 C 
ATOM     29  C   UNL     1       0.605   3.498  20.085  0.00  0.00    +0.000 C 
ATOM     30  C   UNL     1       1.612   4.563  19.602  0.00  0.00    +0.000 C 
ATOM     31  C   UNL     1       2.419   4.814  20.871  0.00  0.00    +0.000 C 
ATOM     32  H   UNL     1       4.405   3.503  19.722  0.00  0.00    +0.000 HD
ENDBRANCH  22  25
ENDBRANCH  20  21
BRANCH  20  33
ATOM     33  C   UNL     1       5.575   4.709  15.104  0.00  0.00    +0.000 C 
ATOM     34  N   UNL     1       5.534   4.391  13.885  0.00  0.00    +0.000 NA
ENDBRANCH  20  33
ENDBRANCH  19  20
ENDBRANCH   4  19
TORSDOF 7
ENDMDL
MODEL 3
REMARK VINA RESULT:      -8.1      6.915      9.963
REMARK  Name = 
REMARK  9 active torsions:
REMARK  status: ('A' for Active; 'I' for Inactive)
REMARK    1  A    between atoms: C_1  and  S_2
REMARK    2  A    between atoms: S_2  and  C_3
REMARK    3  A    between atoms: N_5  and  C_6
REMARK    4  A    between atoms: C_10  and  C_11
REMARK    5  A    between atoms: C_14  and  C_15
REMARK    6  A    between atoms: C_15  and  C_16
REMARK    7  A    between atoms: C_16  and  C_17
REMARK    8  A    between atoms: C_16  and  N_19
REMARK    9  A    between atoms: C_20  and  C_22
REMARK                            x       y       z     vdW  Elec       q    Type
REMARK                         _______ _______ _______ _____ _____    ______ ____
ROOT
ATOM      1  C   UNL     1       8.405   8.775  18.492  0.00  0.00    +0.000 A 
ATOM      2  C   UNL     1       7.676   8.571  17.301  0.00  0.00    +0.000 A 
ATOM      3  C   UNL     1       7.232   7.305  16.923  0.00  0.00    +0.000 A 
ATOM      4  C   UNL     1       7.489   6.203  17.738  0.00  0.00    +0.000 A 
ATOM      5  C   UNL     1       8.217   6.399  18.914  0.00  0.00    +0.000 A 
ATOM      6  F   UNL     1       8.496   5.357  19.710  0.00  0.00    +0.000 F 
ATOM      7  C   UNL     1       8.659   7.661  19.298  0.00  0.00    +0.000 A 
ENDROOT
BRANCH   1  12
ATOM      8  C   UNL     1       9.474  11.756  20.554  0.00  0.00    +0.000 A 
ATOM      9  C   UNL     1       9.875  12.654  19.568  0.00  0.00    +0.000 A 
ATOM     10  C   UNL     1       9.807  12.298  18.218  0.00  0.00    +0.000 A 
ATOM     11  C   UNL     1       9.352  11.028  17.852  0.00  0.00    +0.000 A 
ATOM     12  C   UNL     1       8.956  10.100  18.827  0.00  0.00    +0.000 A 
ATOM     13  C   UNL     1       9.037  10.490  20.173  0.00  0.00    +0.000 A 
BRANCH   8  18
ATOM     14  C   UNL     1       7.487  13.917  22.296  0.00  0.00    +0.000 C 
ATOM     15  S   UNL     1       8.225  12.369  22.776  0.00  0.00    +0.000 S 
ATOM     16  C   UNL     1       8.756  12.703  24.436  0.00  0.00    +0.000 C 
ATOM     17  O   UNL     1       7.146  11.403  22.884  0.00  0.00    +0.000 OA
ATOM     18  N   UNL     1       9.499  12.198  21.915  0.00  0.00    +0.000 NA
ENDBRANCH   8  18
ENDBRANCH   1  12
BRANCH   4  19
ATOM     19  C   UNL     1       6.953   4.846  17.370  0.00  0.00    +0.000 C 
BRANCH  19  20
ATOM     20  C   UNL     1       5.590   4.925  16.671  0.00  0.00    +0.000 C 
BRANCH  20  21
ATOM     21  N   UNL     1       4.574   4.138  17.391  0.00  0.00    +0.000 N 
ATOM     22  C   UNL     1       3.918   4.661  18.491  0.00  0.00    +0.000 C 
ATOM     23  O   UNL     1       4.159   5.785  18.921  0.00  0.00    +0.000 OA
ATOM     24  H   UNL     1       4.338   3.200  17.080  0.00  0.00    +0.000 HD
BRANCH  22  25
ATOM     25  C   UNL     1       2.874   3.714  19.128  0.00  0.00    +0.000 C 
ATOM     26  N   UNL     1       3.457   3.013  20.320  0.00  0.00    +0.000 NA
ATOM     27  C   UNL     1       2.520   3.351  21.430  0.00  0.00    +0.000 C 
ATOM     28  C   UNL     1       1.187   2.619  21.206  0.00  0.00    +0.000 C 
ATOM     29  C   UNL     1       0.569   3.391  20.030  0.00  0.00    +0.000 C 
ATOM     30  C   UNL     1       1.654   4.444  19.719  0.00  0.00    +0.000 C 
ATOM     31  C   UNL     1       2.149   4.792  21.119  0.00  0.00    +0.000 C 
ATOM     32  H   UNL     1       4.351   3.450  20.543  0.00  0.00    +0.000 HD
ENDBRANCH  22  25
ENDBRANCH  20  21
BRANCH  20  33
ATOM     33  C   UNL     1       5.681   4.501  15.214  0.00  0.00    +0.000 C 
ATOM     34  N   UNL     1       5.757   4.149  14.005  0.00  0.00    +0.000 NA
ENDBRANCH  20  33
ENDBRANCH  19  20
ENDBRANCH   4  19
TORSDOF 7
ENDMDL
MODEL 4
REMARK VINA RESULT:      -7.9      0.808      1.160
REMARK  Name = 
REMARK  9 active torsions:
REMARK  status: ('A' for Active; 'I' for Inactive)
REMARK    1  A    between atoms: C_1  and  S_2
REMARK    2  A    between atoms: S_2  and  C_3
REMARK    3  A    between atoms: N_5  and  C_6
REMARK    4  A    between atoms: C_10  and  C_11
REMARK    5  A    between atoms: C_14  and  C_15
REMARK    6  A    between atoms: C_15  and  C_16
REMARK    7  A    between atoms: C_16  and  C_17
REMARK    8  A    between atoms: C_16  and  N_19
REMARK    9  A    between atoms: C_20  and  C_22
REMARK                            x       y       z     vdW  Elec       q    Type
REMARK                         _______ _______ _______ _____ _____    ______ ____
ROOT
ATOM      1  C   UNL     1       1.812   7.318  19.907  0.00  0.00    +0.000 A 
ATOM      2  C   UNL     1       1.137   7.919  20.990  0.00  0.00    +0.000 A 
ATOM      3  C   UNL     1       0.669   9.231  20.925  0.00  0.00    +0.000 A 
ATOM      4  C   UNL     1       0.845   9.977  19.761  0.00  0.00    +0.000 A 
ATOM      5  C   UNL     1       1.519   9.389  18.687  0.00  0.00    +0.000 A 
ATOM      6  F   UNL     1       1.720  10.088  17.560  0.00  0.00    +0.000 F 
ATOM      7  C   UNL     1       1.984   8.080  18.746  0.00  0.00    +0.000 A 
ENDROOT
BRANCH   1  12
ATOM      8  C   UNL     1       4.253   4.459  19.533  0.00  0.00    +0.000 A 
ATOM      9  C   UNL     1       3.539   3.402  20.092  0.00  0.00    +0.000 A 
ATOM     10  C   UNL     1       2.254   3.608  20.603  0.00  0.00    +0.000 A 
ATOM     11  C   UNL     1       1.686   4.885  20.570  0.00  0.00    +0.000 A 
ATOM     12  C   UNL     1       2.390   5.970  20.026  0.00  0.00    +0.000 A 
ATOM     13  C   UNL     1       3.678   5.726  19.522  0.00  0.00    +0.000 A 
BRANCH   8  18
ATOM     14  C   UNL     1       5.295   4.106  16.302  0.00  0.00    +0.000 C 
ATOM     15  S   UNL     1       6.078   4.884  17.701  0.00  0.00    +0.000 S 
ATOM     16  C   UNL     1       7.771   4.388  17.508  0.00  0.00    +0.000 C 
ATOM     17  O   UNL     1       6.047   6.316  17.459  0.00  0.00    +0.000 OA
ATOM     18  N   UNL     1       5.535   4.175  18.964  0.00  0.00    +0.000 NA
ENDBRANCH   8  18
ENDBRANCH   1  12
BRANCH   4  19
ATOM     19  C   UNL     1       0.282  11.369  19.660  0.00  0.00    +0.000 C 
BRANCH  19  20
ATOM     20  C   UNL     1       0.181  12.060  21.026  0.00  0.00    +0.000 C 
BRANCH  20  21
ATOM     21  N   UNL     1      -1.152  12.653  21.229  0.00  0.00    +0.000 N 
ATOM     22  C   UNL     1      -1.973  12.223  22.255  0.00  0.00    +0.000 C 
ATOM     23  O   UNL     1      -1.638  11.328  23.026  0.00  0.00    +0.000 OA
ATOM     24  H   UNL     1      -1.480  13.394  20.616  0.00  0.00    +0.000 HD
BRANCH  22  25
ATOM     25  C   UNL     1      -3.334  12.952  22.340  0.00  0.00    +0.000 C 
ATOM     26  N   UNL     1      -4.281  12.196  23.226  0.00  0.00    +0.000 NA
ATOM     27  C   UNL     1      -4.685  13.195  24.256  0.00  0.00    +0.000 C 
ATOM     28  C   UNL     1      -5.582  14.260  23.604  0.00  0.00    +0.000 C 
ATOM     29  C   UNL     1      -4.588  15.069  22.757  0.00  0.00    +0.000 C 
ATOM     30  C   UNL     1      -3.257  14.333  23.015  0.00  0.00    +0.000 C 
ATOM     31  C   UNL     1      -3.395  13.966  24.489  0.00  0.00    +0.000 C 
ATOM     32  H   UNL     1      -3.756  11.467  23.708  0.00  0.00    +0.000 HD
ENDBRANCH  22  25
ENDBRANCH  20  21
BRANCH  20  33
ATOM     33  C   UNL     1       1.278  13.097  21.212  0.00  0.00    +0.000 C 
ATOM     34  N   UNL     1       2.187  13.957  21.366  0.00  0.00    +0.000 NA
ENDBRANCH  20  33
ENDBRANCH  19  20
ENDBRANCH   4  19
TORSDOF 7
ENDMDL
MODEL 5
REMARK VINA RESULT:      -7.9      6.941     10.168
REMARK  Name = 
REMARK  9 active torsions:
REMARK  status: ('A' for Active; 'I' for Inactive)
REMARK    1  A    between atoms: C_1  and  S_2
REMARK    2  A    between atoms: S_2  and  C_3
REMARK    3  A    between atoms: N_5  and  C_6
REMARK    4  A    between atoms: C_10  and  C_11
REMARK    5  A    between atoms: C_14  and  C_15
REMARK    6  A    between atoms: C_15  and  C_16
REMARK    7  A    between atoms: C_16  and  C_17
REMARK    8  A    between atoms: C_16  and  N_19
REMARK    9  A    between atoms: C_20  and  C_22
REMARK                            x       y       z     vdW  Elec       q    Type
REMARK                         _______ _______ _______ _____ _____    ______ ____
ROOT
ATOM      1  C   UNL     1       8.557   9.082  18.568  0.00  0.00    +0.000 A 
ATOM      2  C   UNL     1       7.706   9.052  17.443  0.00  0.00    +0.000 A 
ATOM      3  C   UNL     1       7.118   7.867  17.001  0.00  0.00    +0.000 A 
ATOM      4  C   UNL     1       7.348   6.676  17.688  0.00  0.00    +0.000 A 
ATOM      5  C   UNL     1       8.195   6.699  18.799  0.00  0.00    +0.000 A 
ATOM      6  F   UNL     1       8.450   5.566  19.470  0.00  0.00    +0.000 F 
ATOM      7  C   UNL     1       8.782   7.878  19.245  0.00  0.00    +0.000 A 
ENDROOT
BRANCH   1  12
ATOM      8  C   UNL     1       9.732  11.966  20.707  0.00  0.00    +0.000 A 
ATOM      9  C   UNL     1      10.440  12.733  19.785  0.00  0.00    +0.000 A 
ATOM     10  C   UNL     1      10.548  12.318  18.455  0.00  0.00    +0.000 A 
ATOM     11  C   UNL     1       9.958  11.118  18.048  0.00  0.00    +0.000 A 
ATOM     12  C   UNL     1       9.253  10.319  18.960  0.00  0.00    +0.000 A 
ATOM     13  C   UNL     1       9.164  10.766  20.288  0.00  0.00    +0.000 A 
BRANCH   8  18
ATOM     14  C   UNL     1       7.620  14.275  22.072  0.00  0.00    +0.000 C 
ATOM     15  S   UNL     1       8.228  12.728  22.714  0.00  0.00    +0.000 S 
ATOM     16  C   UNL     1       8.549  13.126  24.413  0.00  0.00    +0.000 C 
ATOM     17  O   UNL     1       7.107  11.804  22.721  0.00  0.00    +0.000 OA
ATOM     18  N   UNL     1       9.596  12.474  22.039  0.00  0.00    +0.000 NA
ENDBRANCH   8  18
ENDBRANCH   1  12
BRANCH   4  19
ATOM     19  C   UNL     1       6.661   5.408  17.258  0.00  0.00    +0.000 C 
BRANCH  19  20
ATOM     20  C   UNL     1       5.423   5.677  16.394  0.00  0.00    +0.000 C 
BRANCH  20  21
ATOM     21  N   UNL     1       4.181   5.429  17.145  0.00  0.00    +0.000 N 
ATOM     22  C   UNL     1       3.808   4.145  17.499  0.00  0.00    +0.000 C 
ATOM     23  O   UNL     1       4.481   3.164  17.196  0.00  0.00    +0.000 OA
ATOM     24  H   UNL     1       3.584   6.205  17.417  0.00  0.00    +0.000 HD
BRANCH  22  25
ATOM     25  C   UNL     1       2.484   4.054  18.292  0.00  0.00    +0.000 C 
ATOM     26  N   UNL     1       1.965   2.646  18.290  0.00  0.00    +0.000 NA
ATOM     27  C   UNL     1       1.823   2.311  19.736  0.00  0.00    +0.000 C 
ATOM     28  C   UNL     1       0.657   3.118  20.330  0.00  0.00    +0.000 C 
ATOM     29  C   UNL     1       1.228   4.543  20.393  0.00  0.00    +0.000 C 
ATOM     30  C   UNL     1       2.638   4.363  19.793  0.00  0.00    +0.000 C 
ATOM     31  C   UNL     1       3.032   2.999  20.351  0.00  0.00    +0.000 C 
ATOM     32  H   UNL     1       2.691   2.037  17.913  0.00  0.00    +0.000 HD
ENDBRANCH  22  25
ENDBRANCH  20  21
BRANCH  20  33
ATOM     33  C   UNL     1       5.454   4.873  15.103  0.00  0.00    +0.000 C 
ATOM     34  N   UNL     1       5.479   4.206  14.033  0.00  0.00    +0.000 NA
ENDBRANCH  20  33
ENDBRANCH  19  20
ENDBRANCH   4  19
TORSDOF 7
ENDMDL
MODEL 6
REMARK VINA RESULT:      -7.9      2.867      3.854
REMARK  Name = 
REMARK  9 active torsions:
REMARK  status: ('A' for Active; 'I' for Inactive)
REMARK    1  A    between atoms: C_1  and  S_2
REMARK    2  A    between atoms: S_2  and  C_3
REMARK    3  A    between atoms: N_5  and  C_6
REMARK    4  A    between atoms: C_10  and  C_11
REMARK    5  A    between atoms: C_14  and  C_15
REMARK    6  A    between atoms: C_15  and  C_16
REMARK    7  A    between atoms: C_16  and  C_17
REMARK    8  A    between atoms: C_16  and  N_19
REMARK    9  A    between atoms: C_20  and  C_22
REMARK                            x       y       z     vdW  Elec       q    Type
REMARK                         _______ _______ _______ _____ _____    ______ ____
ROOT
ATOM      1  C   UNL     1       2.317   6.655  18.862  0.00  0.00    +0.000 A 
ATOM      2  C   UNL     1       1.935   6.828  20.209  0.00  0.00    +0.000 A 
ATOM      3  C   UNL     1       1.535   8.069  20.703  0.00  0.00    +0.000 A 
ATOM      4  C   UNL     1       1.485   9.175  19.855  0.00  0.00    +0.000 A 
ATOM      5  C   UNL     1       1.869   9.010  18.522  0.00  0.00    +0.000 A 
ATOM      6  F   UNL     1       1.850  10.059  17.686  0.00  0.00    +0.000 F 
ATOM      7  C   UNL     1       2.265   7.774  18.023  0.00  0.00    +0.000 A 
ENDROOT
BRANCH   1  12
ATOM      8  C   UNL     1       4.552   4.157  17.119  0.00  0.00    +0.000 A 
ATOM      9  C   UNL     1       3.850   2.969  17.306  0.00  0.00    +0.000 A 
ATOM     10  C   UNL     1       2.641   2.966  18.008  0.00  0.00    +0.000 A 
ATOM     11  C   UNL     1       2.140   4.157  18.541  0.00  0.00    +0.000 A 
ATOM     12  C   UNL     1       2.835   5.364  18.379  0.00  0.00    +0.000 A 
ATOM     13  C   UNL     1       4.046   5.331  17.669  0.00  0.00    +0.000 A 
BRANCH   8  18
ATOM     14  C   UNL     1       5.078   4.132  13.746  0.00  0.00    +0.000 C 
ATOM     15  S   UNL     1       5.957   4.958  15.057  0.00  0.00    +0.000 S 
ATOM     16  C   UNL     1       7.649   4.753  14.563  0.00  0.00    +0.000 C 
ATOM     17  O   UNL     1       5.669   6.376  14.928  0.00  0.00    +0.000 OA
ATOM     18  N   UNL     1       5.748   4.112  16.334  0.00  0.00    +0.000 NA
ENDBRANCH   8  18
ENDBRANCH   1  12
BRANCH   4  19
ATOM     19  C   UNL     1       0.989  10.500  20.366  0.00  0.00    +0.000 C 
BRANCH  19  20
ATOM     20  C   UNL     1      -0.434  10.413  20.932  0.00  0.00    +0.000 C 
BRANCH  20  21
ATOM     21  N   UNL     1      -1.442  10.647  19.884  0.00  0.00    +0.000 N 
ATOM     22  C   UNL     1      -1.340  11.729  19.028  0.00  0.00    +0.000 C 
ATOM     23  O   UNL     1      -0.423  12.540  19.110  0.00  0.00    +0.000 OA
ATOM     24  H   UNL     1      -2.224  10.009  19.776  0.00  0.00    +0.000 HD
BRANCH  22  25
ATOM     25  C   UNL     1      -2.471  11.828  17.979  0.00  0.00    +0.000 C 
ATOM     26  N   UNL     1      -1.903  11.811  16.589  0.00  0.00    +0.000 NA
ATOM     27  C   UNL     1      -2.599  10.669  15.930  0.00  0.00    +0.000 C 
ATOM     28  C   UNL     1      -4.074  11.037  15.705  0.00  0.00    +0.000 C 
ATOM     29  C   UNL     1      -4.658  10.981  17.125  0.00  0.00    +0.000 C 
ATOM     30  C   UNL     1      -3.424  10.619  17.977  0.00  0.00    +0.000 C 
ATOM     31  C   UNL     1      -2.693   9.649  17.053  0.00  0.00    +0.000 C 
ATOM     32  H   UNL     1      -0.916  11.563  16.650  0.00  0.00    +0.000 HD
ENDBRANCH  22  25
ENDBRANCH  20  21
BRANCH  20  33
ATOM     33  C   UNL     1      -0.631  11.362  22.104  0.00  0.00    +0.000 C 
ATOM     34  N   UNL     1      -0.793  12.149  23.076  0.00  0.00    +0.000 NA
ENDBRANCH  20  33
ENDBRANCH  19  20
ENDBRANCH   4  19
TORSDOF 7
ENDMDL
MODEL 7
REMARK VINA RESULT:      -7.8      3.005      4.834
REMARK  Name = 
REMARK  9 active torsions:
REMARK  status: ('A' for Active; 'I' for Inactive)
REMARK    1  A    between atoms: C_1  and  S_2
REMARK    2  A    between atoms: S_2  and  C_3
REMARK    3  A    between atoms: N_5  and  C_6
REMARK    4  A    between atoms: C_10  and  C_11
REMARK    5  A    between atoms: C_14  and  C_15
REMARK    6  A    between atoms: C_15  and  C_16
REMARK    7  A    between atoms: C_16  and  C_17
REMARK    8  A    between atoms: C_16  and  N_19
REMARK    9  A    between atoms: C_20  and  C_22
REMARK                            x       y       z     vdW  Elec       q    Type
REMARK                         _______ _______ _______ _____ _____    ______ ____
ROOT
ATOM      1  C   UNL     1       1.822   7.054  20.156  0.00  0.00    +0.000 A 
ATOM      2  C   UNL     1       1.908   7.928  19.052  0.00  0.00    +0.000 A 
ATOM      3  C   UNL     1       1.277   9.171  19.052  0.00  0.00    +0.000 A 
ATOM      4  C   UNL     1       0.555   9.588  20.170  0.00  0.00    +0.000 A 
ATOM      5  C   UNL     1       0.462   8.722  21.263  0.00  0.00    +0.000 A 
ATOM      6  F   UNL     1      -0.241   9.086  22.346  0.00  0.00    +0.000 F 
ATOM      7  C   UNL     1       1.092   7.483  21.270  0.00  0.00    +0.000 A 
ENDROOT
BRANCH   1  12
ATOM      8  C   UNL     1       4.296   4.283  19.464  0.00  0.00    +0.000 A 
ATOM      9  C   UNL     1       3.571   3.155  19.840  0.00  0.00    +0.000 A 
ATOM     10  C   UNL     1       2.268   3.283  20.329  0.00  0.00    +0.000 A 
ATOM     11  C   UNL     1       1.692   4.550  20.460  0.00  0.00    +0.000 A 
ATOM     12  C   UNL     1       2.406   5.703  20.102  0.00  0.00    +0.000 A 
ATOM     13  C   UNL     1       3.713   5.538  19.614  0.00  0.00    +0.000 A 
BRANCH   8  18
ATOM     14  C   UNL     1       5.383   3.968  16.243  0.00  0.00    +0.000 C 
ATOM     15  S   UNL     1       6.097   4.818  17.636  0.00  0.00    +0.000 S 
ATOM     16  C   UNL     1       7.823   4.445  17.460  0.00  0.00    +0.000 C 
ATOM     17  O   UNL     1       5.963   6.241  17.376  0.00  0.00    +0.000 OA
ATOM     18  N   UNL     1       5.599   4.087  18.905  0.00  0.00    +0.000 NA
ENDBRANCH   8  18
ENDBRANCH   1  12
BRANCH   4  19
ATOM     19  C   UNL     1      -0.070  10.956  20.203  0.00  0.00    +0.000 C 
BRANCH  19  20
ATOM     20  C   UNL     1      -0.015  11.657  18.840  0.00  0.00    +0.000 C 
BRANCH  20  21
ATOM     21  N   UNL     1       0.607  12.988  18.948  0.00  0.00    +0.000 N 
ATOM     22  C   UNL     1       1.902  13.204  18.511  0.00  0.00    +0.000 C 
ATOM     23  O   UNL     1       2.587  12.306  18.032  0.00  0.00    +0.000 OA
ATOM     24  H   UNL     1       0.086  13.766  19.341  0.00  0.00    +0.000 HD
BRANCH  22  25
ATOM     25  C   UNL     1       2.405  14.656  18.684  0.00  0.00    +0.000 C 
ATOM     26  N   UNL     1       3.246  14.778  19.922  0.00  0.00    +0.000 NA
ATOM     27  C   UNL     1       4.539  15.329  19.426  0.00  0.00    +0.000 C 
ATOM     28  C   UNL     1       4.334  16.789  18.992  0.00  0.00    +0.000 C 
ATOM     29  C   UNL     1       3.534  16.647  17.688  0.00  0.00    +0.000 C 
ATOM     30  C   UNL     1       3.362  15.119  17.570  0.00  0.00    +0.000 C 
ATOM     31  C   UNL     1       4.707  14.621  18.091  0.00  0.00    +0.000 C 
ATOM     32  H   UNL     1       3.437  13.839  20.272  0.00  0.00    +0.000 HD
ENDBRANCH  22  25
ENDBRANCH  20  21
BRANCH  20  33
ATOM     33  C   UNL     1      -1.391  11.745  18.198  0.00  0.00    +0.000 C 
ATOM     34  N   UNL     1      -2.532  11.818  17.666  0.00  0.00    +0.000 NA
ENDBRANCH  20  33
ENDBRANCH  19  20
ENDBRANCH   4  19
TORSDOF 7
ENDMDL
MODEL 8
REMARK VINA RESULT:      -7.8      1.259      1.559
REMARK  Name = 
REMARK  9 active torsions:
REMARK  status: ('A' for Active; 'I' for Inactive)
REMARK    1  A    between atoms: C_1  and  S_2
REMARK    2  A    between atoms: S_2  and  C_3
REMARK    3  A    between atoms: N_5  and  C_6
REMARK    4  A    between atoms: C_10  and  C_11
REMARK    5  A    between atoms: C_14  and  C_15
REMARK    6  A    between atoms: C_15  and  C_16
REMARK    7  A    between atoms: C_16  and  C_17
REMARK    8  A    between atoms: C_16  and  N_19
REMARK    9  A    between atoms: C_20  and  C_22
REMARK                            x       y       z     vdW  Elec       q    Type
REMARK                         _______ _______ _______ _____ _____    ______ ____
ROOT
ATOM      1  C   UNL     1       2.232   7.286  19.475  0.00  0.00    +0.000 A 
ATOM      2  C   UNL     1       2.217   8.228  18.424  0.00  0.00    +0.000 A 
ATOM      3  C   UNL     1       1.481   9.409  18.510  0.00  0.00    +0.000 A 
ATOM      4  C   UNL     1       0.751   9.694  19.663  0.00  0.00    +0.000 A 
ATOM      5  C   UNL     1       0.757   8.761  20.703  0.00  0.00    +0.000 A 
ATOM      6  F   UNL     1       0.049   8.998  21.818  0.00  0.00    +0.000 F 
ATOM      7  C   UNL     1       1.492   7.584  20.624  0.00  0.00    +0.000 A 
ENDROOT
BRANCH   1  12
ATOM      8  C   UNL     1       4.369   4.558  17.969  0.00  0.00    +0.000 A 
ATOM      9  C   UNL     1       4.207   3.529  18.893  0.00  0.00    +0.000 A 
ATOM     10  C   UNL     1       3.404   3.712  20.022  0.00  0.00    +0.000 A 
ATOM     11  C   UNL     1       2.772   4.940  20.238  0.00  0.00    +0.000 A 
ATOM     12  C   UNL     1       2.930   5.998  19.330  0.00  0.00    +0.000 A 
ATOM     13  C   UNL     1       3.744   5.779  18.207  0.00  0.00    +0.000 A 
BRANCH   8  18
ATOM     14  C   UNL     1       5.293   6.527  15.337  0.00  0.00    +0.000 C 
ATOM     15  S   UNL     1       6.195   5.278  16.232  0.00  0.00    +0.000 S 
ATOM     16  C   UNL     1       7.060   4.435  14.932  0.00  0.00    +0.000 C 
ATOM     17  O   UNL     1       7.209   5.967  17.010  0.00  0.00    +0.000 OA
ATOM     18  N   UNL     1       5.147   4.292  16.797  0.00  0.00    +0.000 NA
ENDBRANCH   8  18
ENDBRANCH   1  12
BRANCH   4  19
ATOM     19  C   UNL     1       0.010  10.998  19.789  0.00  0.00    +0.000 C 
BRANCH  19  20
ATOM     20  C   UNL     1       0.601  11.903  20.877  0.00  0.00    +0.000 C 
BRANCH  20  21
ATOM     21  N   UNL     1      -0.449  12.686  21.550  0.00  0.00    +0.000 N 
ATOM     22  C   UNL     1      -0.971  12.279  22.765  0.00  0.00    +0.000 C 
ATOM     23  O   UNL     1      -0.596  11.252  23.324  0.00  0.00    +0.000 OA
ATOM     24  H   UNL     1      -0.799  13.541  21.129  0.00  0.00    +0.000 HD
BRANCH  22  25
ATOM     25  C   UNL     1      -2.058  13.213  23.345  0.00  0.00    +0.000 C 
ATOM     26  N   UNL     1      -2.350  14.335  22.391  0.00  0.00    +0.000 NA
ATOM     27  C   UNL     1      -3.819  14.234  22.156  0.00  0.00    +0.000 C 
ATOM     28  C   UNL     1      -4.566  14.650  23.433  0.00  0.00    +0.000 C 
ATOM     29  C   UNL     1      -4.318  13.462  24.374  0.00  0.00    +0.000 C 
ATOM     30  C   UNL     1      -3.431  12.538  23.514  0.00  0.00    +0.000 C 
ATOM     31  C   UNL     1      -4.045  12.730  22.131  0.00  0.00    +0.000 C 
ATOM     32  H   UNL     1      -1.892  14.129  21.504  0.00  0.00    +0.000 HD
ENDBRANCH  22  25
ENDBRANCH  20  21
BRANCH  20  33
ATOM     33  C   UNL     1       1.690  12.809  20.323  0.00  0.00    +0.000 C 
ATOM     34  N   UNL     1       2.593  13.559  19.864  0.00  0.00    +0.000 NA
ENDBRANCH  20  33
ENDBRANCH  19  20
ENDBRANCH   4  19
TORSDOF 7
ENDMDL
MODEL 9
REMARK VINA RESULT:      -7.8      2.971     10.829
REMARK  Name = 
REMARK  9 active torsions:
REMARK  status: ('A' for Active; 'I' for Inactive)
REMARK    1  A    between atoms: C_1  and  S_2
REMARK    2  A    between atoms: S_2  and  C_3
REMARK    3  A    between atoms: N_5  and  C_6
REMARK    4  A    between atoms: C_10  and  C_11
REMARK    5  A    between atoms: C_14  and  C_15
REMARK    6  A    between atoms: C_15  and  C_16
REMARK    7  A    between atoms: C_16  and  C_17
REMARK    8  A    between atoms: C_16  and  N_19
REMARK    9  A    between atoms: C_20  and  C_22
REMARK                            x       y       z     vdW  Elec       q    Type
REMARK                         _______ _______ _______ _____ _____    ______ ____
ROOT
ATOM      1  C   UNL     1       1.708   7.805  19.465  0.00  0.00    +0.000 A 
ATOM      2  C   UNL     1       2.237   7.296  18.259  0.00  0.00    +0.000 A 
ATOM      3  C   UNL     1       2.700   5.985  18.159  0.00  0.00    +0.000 A 
ATOM      4  C   UNL     1       2.629   5.133  19.261  0.00  0.00    +0.000 A 
ATOM      5  C   UNL     1       2.112   5.635  20.458  0.00  0.00    +0.000 A 
ATOM      6  F   UNL     1       2.048   4.846  21.541  0.00  0.00    +0.000 F 
ATOM      7  C   UNL     1       1.646   6.940  20.563  0.00  0.00    +0.000 A 
ENDROOT
BRANCH   1  12
ATOM      8  C   UNL     1       0.110  10.940  20.840  0.00  0.00    +0.000 A 
ATOM      9  C   UNL     1       0.417  11.872  19.851  0.00  0.00    +0.000 A 
ATOM     10  C   UNL     1       1.154  11.492  18.726  0.00  0.00    +0.000 A 
ATOM     11  C   UNL     1       1.602  10.174  18.597  0.00  0.00    +0.000 A 
ATOM     12  C   UNL     1       1.318   9.220  19.585  0.00  0.00    +0.000 A 
ATOM     13  C   UNL     1       0.576   9.636  20.702  0.00  0.00    +0.000 A 
BRANCH   8  18
ATOM     14  C   UNL     1      -1.018  14.020  21.787  0.00  0.00    +0.000 C 
ATOM     15  S   UNL     1      -1.822  12.430  21.797  0.00  0.00    +0.000 S 
ATOM     16  C   UNL     1      -2.704  12.465  23.336  0.00  0.00    +0.000 C 
ATOM     17  O   UNL     1      -2.831  12.462  20.753  0.00  0.00    +0.000 OA
ATOM     18  N   UNL     1      -0.706  11.369  21.935  0.00  0.00    +0.000 NA
ENDBRANCH   8  18
ENDBRANCH   1  12
BRANCH   4  19
ATOM     19  C   UNL     1       3.063   3.698  19.139  0.00  0.00    +0.000 C 
BRANCH  19  20
ATOM     20  C   UNL     1       4.579   3.529  19.304  0.00  0.00    +0.000 C 
BRANCH  20  21
ATOM     21  N   UNL     1       5.260   3.506  17.999  0.00  0.00    +0.000 N 
ATOM     22  C   UNL     1       6.226   4.445  17.684  0.00  0.00    +0.000 C 
ATOM     23  O   UNL     1       6.545   5.338  18.463  0.00  0.00    +0.000 OA
ATOM     24  H   UNL     1       5.031   2.791  17.315  0.00  0.00    +0.000 HD
BRANCH  22  25
ATOM     25  C   UNL     1       6.852   4.278  16.280  0.00  0.00    +0.000 C 
ATOM     26  N   UNL     1       6.117   3.230  15.496  0.00  0.00    +0.000 NA
ATOM     27  C   UNL     1       5.698   3.938  14.253  0.00  0.00    +0.000 C 
ATOM     28  C   UNL     1       6.938   4.220  13.390  0.00  0.00    +0.000 C 
ATOM     29  C   UNL     1       7.644   5.343  14.165  0.00  0.00    +0.000 C 
ATOM     30  C   UNL     1       6.723   5.528  15.390  0.00  0.00    +0.000 C 
ATOM     31  C   UNL     1       5.346   5.325  14.767  0.00  0.00    +0.000 C 
ATOM     32  H   UNL     1       5.265   2.990  16.003  0.00  0.00    +0.000 HD
ENDBRANCH  22  25
ENDBRANCH  20  21
BRANCH  20  33
ATOM     33  C   UNL     1       4.920   2.294  20.124  0.00  0.00    +0.000 C 
ATOM     34  N   UNL     1       5.203   1.270  20.803  0.00  0.00    +0.000 NA
ENDBRANCH  20  33
ENDBRANCH  19  20
ENDBRANCH   4  19
TORSDOF 7
ENDMDL
