MODEL 1
REMARK VINA RESULT:      -7.8      0.000      0.000
REMARK  Name = 
REMARK  6 active torsions:
REMARK  status: ('A' for Active; 'I' for Inactive)
REMARK    1  A    between atoms: C_1  and  O_2
REMARK    2  A    between atoms: O_2  and  C_3
REMARK    3  A    between atoms: C_6  and  C_7
REMARK    4  A    between atoms: C_7  and  C_9
REMARK    5  A    between atoms: N_13  and  C_14
REMARK    6  A    between atoms: C_17  and  O_18
REMARK                            x       y       z     vdW  Elec       q    Type
REMARK                         _______ _______ _______ _____ _____    ______ ____
ROOT
ATOM      1  C   UNL     1       3.886   3.727  19.089  0.00  0.00    +0.000 A 
ATOM      2  C   UNL     1       3.651   2.361  19.223  0.00  0.00    +0.000 A 
ATOM      3  C   UNL     1       2.314   2.173  19.612  0.00  0.00    +0.000 A 
ATOM      4  C   UNL     1       1.759   3.422  19.736  0.00  0.00    +0.000 A 
ATOM      5  N   UNL     1       2.690   4.386  19.381  0.00  0.00    +0.000 N 
ENDROOT
BRANCH   5   6
ATOM      6  C   UNL     1       2.397   5.783  19.300  0.00  0.00    +0.000 A 
ATOM      7  C   UNL     1       2.546   6.461  18.077  0.00  0.00    +0.000 A 
ATOM      8  C   UNL     1       2.251   7.827  17.979  0.00  0.00    +0.000 A 
ATOM      9  C   UNL     1       1.824   8.522  19.108  0.00  0.00    +0.000 A 
ATOM     10  C   UNL     1       1.703   7.859  20.326  0.00  0.00    +0.000 A 
ATOM     11  F   UNL     1       1.315   8.525  21.424  0.00  0.00    +0.000 F 
ATOM     12  C   UNL     1       1.988   6.500  20.431  0.00  0.00    +0.000 A 
BRANCH   9  13
ATOM     13  O   UNL     1       1.526   9.851  19.042  0.00  0.00    +0.000 OA
ATOM     14  H   UNL     1       1.682  10.169  18.139  0.00  0.00    +0.000 HD
ENDBRANCH   9  13
ENDBRANCH   5   6
BRANCH   1  15
ATOM     15  C   UNL     1       5.172   4.362  18.841  0.00  0.00    +0.000 C 
ATOM     16  O   UNL     1       5.862   4.831  19.744  0.00  0.00    +0.000 OA
BRANCH  15  20
ATOM     17  C   UNL     1       6.640   4.582  14.797  0.00  0.00    +0.000 A 
ATOM     18  C   UNL     1       5.307   4.266  15.061  0.00  0.00    +0.000 A 
ATOM     19  C   UNL     1       4.842   4.199  16.377  0.00  0.00    +0.000 A 
ATOM     20  C   UNL     1       5.714   4.436  17.448  0.00  0.00    +0.000 A 
ATOM     21  C   UNL     1       7.066   4.694  17.179  0.00  0.00    +0.000 A 
ATOM     22  C   UNL     1       7.522   4.778  15.859  0.00  0.00    +0.000 A 
BRANCH  17  24
ATOM     23  C   UNL     1       6.356   3.652  12.644  0.00  0.00    +0.000 C 
ATOM     24  O   UNL     1       6.976   4.630  13.473  0.00  0.00    +0.000 OA
ENDBRANCH  17  24
ENDBRANCH  15  20
ENDBRANCH   1  15
TORSDOF 5
ENDMDL
MODEL 2
REMARK VINA RESULT:      -7.7      0.935      1.372
REMARK  Name = 
REMARK  6 active torsions:
REMARK  status: ('A' for Active; 'I' for Inactive)
REMARK    1  A    between atoms: C_1  and  O_2
REMARK    2  A    between atoms: O_2  and  C_3
REMARK    3  A    between atoms: C_6  and  C_7
REMARK    4  A    between atoms: C_7  and  C_9
REMARK    5  A    between atoms: N_13  and  C_14
REMARK    6  A    between atoms: C_17  and  O_18
REMARK                            x       y       z     vdW  Elec       q    Type
REMARK                         _______ _______ _______ _____ _____    ______ ____
ROOT
ATOM      1  C   UNL     1       3.879   3.715  19.110  0.00  0.00    +0.000 A 
ATOM      2  C   UNL     1       3.661   2.343  19.194  0.00  0.00    +0.000 A 
ATOM      3  C   UNL     1       2.333   2.123  19.599  0.00  0.00    +0.000 A 
ATOM      4  C   UNL     1       1.767   3.360  19.782  0.00  0.00    +0.000 A 
ATOM      5  N   UNL     1       2.681   4.348  19.449  0.00  0.00    +0.000 N 
ENDROOT
BRANCH   5   6
ATOM      6  C   UNL     1       2.371   5.743  19.428  0.00  0.00    +0.000 A 
ATOM      7  C   UNL     1       1.864   6.367  20.583  0.00  0.00    +0.000 A 
ATOM      8  C   UNL     1       1.568   7.736  20.582  0.00  0.00    +0.000 A 
ATOM      9  C   UNL     1       1.761   8.481  19.422  0.00  0.00    +0.000 A 
ATOM     10  C   UNL     1       2.237   7.861  18.270  0.00  0.00    +0.000 A 
ATOM     11  F   UNL     1       2.404   8.566  17.141  0.00  0.00    +0.000 F 
ATOM     12  C   UNL     1       2.539   6.502  18.264  0.00  0.00    +0.000 A 
BRANCH   9  13
ATOM     13  O   UNL     1       1.485   9.817  19.392  0.00  0.00    +0.000 OA
ATOM     14  H   UNL     1       2.203  10.281  18.933  0.00  0.00    +0.000 HD
ENDBRANCH   9  13
ENDBRANCH   5   6
BRANCH   1  15
ATOM     15  C   UNL     1       5.154   4.375  18.865  0.00  0.00    +0.000 C 
ATOM     16  O   UNL     1       5.830   4.861  19.769  0.00  0.00    +0.000 OA
BRANCH  15  20
ATOM     17  C   UNL     1       6.635   4.605  14.828  0.00  0.00    +0.000 A 
ATOM     18  C   UNL     1       5.308   4.263  15.086  0.00  0.00    +0.000 A 
ATOM     19  C   UNL     1       4.838   4.194  16.401  0.00  0.00    +0.000 A 
ATOM     20  C   UNL     1       5.700   4.453  17.474  0.00  0.00    +0.000 A 
ATOM     21  C   UNL     1       7.048   4.736  17.210  0.00  0.00    +0.000 A 
ATOM     22  C   UNL     1       7.509   4.823  15.892  0.00  0.00    +0.000 A 
BRANCH  17  24
ATOM     23  C   UNL     1       6.343   3.690  12.669  0.00  0.00    +0.000 C 
ATOM     24  O   UNL     1       6.977   4.654  13.505  0.00  0.00    +0.000 OA
ENDBRANCH  17  24
ENDBRANCH  15  20
ENDBRANCH   1  15
TORSDOF 5
ENDMDL
MODEL 3
REMARK VINA RESULT:      -7.7      1.163      1.826
REMARK  Name = 
REMARK  6 active torsions:
REMARK  status: ('A' for Active; 'I' for Inactive)
REMARK    1  A    between atoms: C_1  and  O_2
REMARK    2  A    between atoms: O_2  and  C_3
REMARK    3  A    between atoms: C_6  and  C_7
REMARK    4  A    between atoms: C_7  and  C_9
REMARK    5  A    between atoms: N_13  and  C_14
REMARK    6  A    between atoms: C_17  and  O_18
REMARK                            x       y       z     vdW  Elec       q    Type
REMARK                         _______ _______ _______ _____ _____    ______ ____
ROOT
ATOM      1  C   UNL     1       3.530   3.228  18.647  0.00  0.00    +0.000 A 
ATOM      2  C   UNL     1       3.179   1.897  18.440  0.00  0.00    +0.000 A 
ATOM      3  C   UNL     1       1.795   1.761  18.640  0.00  0.00    +0.000 A 
ATOM      4  C   UNL     1       1.324   3.002  18.991  0.00  0.00    +0.000 A 
ATOM      5  N   UNL     1       2.359   3.923  18.961  0.00  0.00    +0.000 N 
ENDROOT
BRANCH   5   6
ATOM      6  C   UNL     1       2.183   5.325  19.174  0.00  0.00    +0.000 A 
ATOM      7  C   UNL     1       1.775   5.797  20.434  0.00  0.00    +0.000 A 
ATOM      8  C   UNL     1       1.609   7.170  20.662  0.00  0.00    +0.000 A 
ATOM      9  C   UNL     1       1.834   8.071  19.625  0.00  0.00    +0.000 A 
ATOM     10  C   UNL     1       2.212   7.604  18.369  0.00  0.00    +0.000 A 
ATOM     11  F   UNL     1       2.409   8.464  17.358  0.00  0.00    +0.000 F 
ATOM     12  C   UNL     1       2.384   6.243  18.136  0.00  0.00    +0.000 A 
BRANCH   9  13
ATOM     13  O   UNL     1       1.686   9.414  19.818  0.00  0.00    +0.000 OA
ATOM     14  H   UNL     1       0.775   9.668  19.601  0.00  0.00    +0.000 HD
ENDBRANCH   9  13
ENDBRANCH   5   6
BRANCH   1  15
ATOM     15  C   UNL     1       4.880   3.771  18.681  0.00  0.00    +0.000 C 
ATOM     16  O   UNL     1       5.524   3.875  19.723  0.00  0.00    +0.000 OA
BRANCH  15  20
ATOM     17  C   UNL     1       6.884   4.996  15.070  0.00  0.00    +0.000 A 
ATOM     18  C   UNL     1       7.533   5.050  16.304  0.00  0.00    +0.000 A 
ATOM     19  C   UNL     1       6.872   4.647  17.469  0.00  0.00    +0.000 A 
ATOM     20  C   UNL     1       5.546   4.200  17.411  0.00  0.00    +0.000 A 
ATOM     21  C   UNL     1       4.880   4.206  16.177  0.00  0.00    +0.000 A 
ATOM     22  C   UNL     1       5.551   4.591  15.011  0.00  0.00    +0.000 A 
BRANCH  17  24
ATOM     23  C   UNL     1       7.360   4.741  12.770  0.00  0.00    +0.000 C 
ATOM     24  O   UNL     1       7.633   5.402  14.001  0.00  0.00    +0.000 OA
ENDBRANCH  17  24
ENDBRANCH  15  20
ENDBRANCH   1  15
TORSDOF 5
ENDMDL
MODEL 4
REMARK VINA RESULT:      -7.7      0.162      1.019
REMARK  Name = 
REMARK  6 active torsions:
REMARK  status: ('A' for Active; 'I' for Inactive)
REMARK    1  A    between atoms: C_1  and  O_2
REMARK    2  A    between atoms: O_2  and  C_3
REMARK    3  A    between atoms: C_6  and  C_7
REMARK    4  A    between atoms: C_7  and  C_9
REMARK    5  A    between atoms: N_13  and  C_14
REMARK    6  A    between atoms: C_17  and  O_18
REMARK                            x       y       z     vdW  Elec       q    Type
REMARK                         _______ _______ _______ _____ _____    ______ ____
ROOT
ATOM      1  C   UNL     1       3.945   3.817  19.168  0.00  0.00    +0.000 A 
ATOM      2  C   UNL     1       3.740   2.457  19.385  0.00  0.00    +0.000 A 
ATOM      3  C   UNL     1       2.431   2.270  19.859  0.00  0.00    +0.000 A 
ATOM      4  C   UNL     1       1.863   3.517  19.950  0.00  0.00    +0.000 A 
ATOM      5  N   UNL     1       2.756   4.474  19.494  0.00  0.00    +0.000 N 
ENDROOT
BRANCH   5   6
ATOM      6  C   UNL     1       2.436   5.860  19.360  0.00  0.00    +0.000 A 
ATOM      7  C   UNL     1       2.600   6.501  18.118  0.00  0.00    +0.000 A 
ATOM      8  C   UNL     1       2.279   7.856  17.967  0.00  0.00    +0.000 A 
ATOM      9  C   UNL     1       1.810   8.578  19.061  0.00  0.00    +0.000 A 
ATOM     10  C   UNL     1       1.673   7.954  20.298  0.00  0.00    +0.000 A 
ATOM     11  F   UNL     1       1.244   8.647  21.363  0.00  0.00    +0.000 F 
ATOM     12  C   UNL     1       1.984   6.606  20.455  0.00  0.00    +0.000 A 
BRANCH   9  13
ATOM     13  O   UNL     1       1.485   9.898  18.943  0.00  0.00    +0.000 OA
ATOM     14  H   UNL     1       0.531   9.978  18.783  0.00  0.00    +0.000 HD
ENDBRANCH   9  13
ENDBRANCH   5   6
BRANCH   1  15
ATOM     15  C   UNL     1       5.205   4.457  18.816  0.00  0.00    +0.000 C 
ATOM     16  O   UNL     1       5.958   4.940  19.659  0.00  0.00    +0.000 OA
BRANCH  15  20
ATOM     17  C   UNL     1       6.546   4.618  14.726  0.00  0.00    +0.000 A 
ATOM     18  C   UNL     1       7.433   4.835  15.781  0.00  0.00    +0.000 A 
ATOM     19  C   UNL     1       6.986   4.778  17.104  0.00  0.00    +0.000 A 
ATOM     20  C   UNL     1       5.638   4.517  17.385  0.00  0.00    +0.000 A 
ATOM     21  C   UNL     1       4.741   4.359  16.320  0.00  0.00    +0.000 A 
ATOM     22  C   UNL     1       5.196   4.398  14.997  0.00  0.00    +0.000 A 
BRANCH  17  24
ATOM     23  C   UNL     1       6.609   3.739  12.534  0.00  0.00    +0.000 C 
ATOM     24  O   UNL     1       7.099   4.686  13.478  0.00  0.00    +0.000 OA
ENDBRANCH  17  24
ENDBRANCH  15  20
ENDBRANCH   1  15
TORSDOF 5
ENDMDL
MODEL 5
REMARK VINA RESULT:      -7.6      2.986      4.381
REMARK  Name = 
REMARK  6 active torsions:
REMARK  status: ('A' for Active; 'I' for Inactive)
REMARK    1  A    between atoms: C_1  and  O_2
REMARK    2  A    between atoms: O_2  and  C_3
REMARK    3  A    between atoms: C_6  and  C_7
REMARK    4  A    between atoms: C_7  and  C_9
REMARK    5  A    between atoms: N_13  and  C_14
REMARK    6  A    between atoms: C_17  and  O_18
REMARK                            x       y       z     vdW  Elec       q    Type
REMARK                         _______ _______ _______ _____ _____    ______ ____
ROOT
ATOM      1  C   UNL     1       6.316   5.859  17.200  0.00  0.00    +0.000 A 
ATOM      2  C   UNL     1       7.550   6.299  17.671  0.00  0.00    +0.000 A 
ATOM      3  C   UNL     1       7.657   5.963  19.031  0.00  0.00    +0.000 A 
ATOM      4  C   UNL     1       6.481   5.348  19.379  0.00  0.00    +0.000 A 
ATOM      5  N   UNL     1       5.662   5.236  18.265  0.00  0.00    +0.000 N 
ENDROOT
BRANCH   5   6
ATOM      6  C   UNL     1       4.409   4.550  18.265  0.00  0.00    +0.000 A 
ATOM      7  C   UNL     1       3.208   5.281  18.236  0.00  0.00    +0.000 A 
ATOM      8  C   UNL     1       1.972   4.622  18.223  0.00  0.00    +0.000 A 
ATOM      9  C   UNL     1       1.933   3.231  18.258  0.00  0.00    +0.000 A 
ATOM     10  C   UNL     1       3.120   2.505  18.315  0.00  0.00    +0.000 A 
ATOM     11  F   UNL     1       3.092   1.165  18.372  0.00  0.00    +0.000 F 
ATOM     12  C   UNL     1       4.353   3.151  18.322  0.00  0.00    +0.000 A 
BRANCH   9  13
ATOM     13  O   UNL     1       0.744   2.561  18.242  0.00  0.00    +0.000 OA
ATOM     14  H   UNL     1       0.018   3.202  18.182  0.00  0.00    +0.000 HD
ENDBRANCH   9  13
ENDBRANCH   5   6
BRANCH   1  15
ATOM     15  C   UNL     1       5.745   6.129  15.888  0.00  0.00    +0.000 C 
ATOM     16  O   UNL     1       4.995   7.080  15.677  0.00  0.00    +0.000 OA
BRANCH  15  20
ATOM     17  C   UNL     1       6.640   3.570  12.541  0.00  0.00    +0.000 A 
ATOM     18  C   UNL     1       5.465   3.407  13.275  0.00  0.00    +0.000 A 
ATOM     19  C   UNL     1       5.185   4.245  14.358  0.00  0.00    +0.000 A 
ATOM     20  C   UNL     1       6.089   5.249  14.727  0.00  0.00    +0.000 A 
ATOM     21  C   UNL     1       7.296   5.369  14.024  0.00  0.00    +0.000 A 
ATOM     22  C   UNL     1       7.563   4.540  12.929  0.00  0.00    +0.000 A 
BRANCH  17  24
ATOM     23  C   UNL     1       5.755   1.750  11.322  0.00  0.00    +0.000 C 
ATOM     24  O   UNL     1       6.800   2.701  11.498  0.00  0.00    +0.000 OA
ENDBRANCH  17  24
ENDBRANCH  15  20
ENDBRANCH   1  15
TORSDOF 5
ENDMDL
MODEL 6
REMARK VINA RESULT:      -7.6      1.002      1.738
REMARK  Name = 
REMARK  6 active torsions:
REMARK  status: ('A' for Active; 'I' for Inactive)
REMARK    1  A    between atoms: C_1  and  O_2
REMARK    2  A    between atoms: O_2  and  C_3
REMARK    3  A    between atoms: C_6  and  C_7
REMARK    4  A    between atoms: C_7  and  C_9
REMARK    5  A    between atoms: N_13  and  C_14
REMARK    6  A    between atoms: C_17  and  O_18
REMARK                            x       y       z     vdW  Elec       q    Type
REMARK                         _______ _______ _______ _____ _____    ______ ____
ROOT
ATOM      1  C   UNL     1       4.135   3.891  19.369  0.00  0.00    +0.000 A 
ATOM      2  C   UNL     1       4.017   2.531  19.645  0.00  0.00    +0.000 A 
ATOM      3  C   UNL     1       2.759   2.299  20.228  0.00  0.00    +0.000 A 
ATOM      4  C   UNL     1       2.138   3.519  20.324  0.00  0.00    +0.000 A 
ATOM      5  N   UNL     1       2.943   4.501  19.768  0.00  0.00    +0.000 N 
ENDROOT
BRANCH   5   6
ATOM      6  C   UNL     1       2.543   5.864  19.614  0.00  0.00    +0.000 A 
ATOM      7  C   UNL     1       1.929   6.541  20.683  0.00  0.00    +0.000 A 
ATOM      8  C   UNL     1       1.542   7.881  20.552  0.00  0.00    +0.000 A 
ATOM      9  C   UNL     1       1.753   8.543  19.345  0.00  0.00    +0.000 A 
ATOM     10  C   UNL     1       2.336   7.868  18.276  0.00  0.00    +0.000 A 
ATOM     11  F   UNL     1       2.522   8.491  17.103  0.00  0.00    +0.000 F 
ATOM     12  C   UNL     1       2.728   6.538  18.400  0.00  0.00    +0.000 A 
BRANCH   9  13
ATOM     13  O   UNL     1       1.392   9.849  19.189  0.00  0.00    +0.000 OA
ATOM     14  H   UNL     1       0.435   9.934  19.330  0.00  0.00    +0.000 HD
ENDBRANCH   9  13
ENDBRANCH   5   6
BRANCH   1  15
ATOM     15  C   UNL     1       5.329   4.577  18.897  0.00  0.00    +0.000 C 
ATOM     16  O   UNL     1       6.078   5.193  19.652  0.00  0.00    +0.000 OA
BRANCH  15  20
ATOM     17  C   UNL     1       6.487   4.418  14.752  0.00  0.00    +0.000 A 
ATOM     18  C   UNL     1       7.401   4.792  15.738  0.00  0.00    +0.000 A 
ATOM     19  C   UNL     1       7.013   4.838  17.080  0.00  0.00    +0.000 A 
ATOM     20  C   UNL     1       5.698   4.523  17.448  0.00  0.00    +0.000 A 
ATOM     21  C   UNL     1       4.770   4.207  16.446  0.00  0.00    +0.000 A 
ATOM     22  C   UNL     1       5.167   4.144  15.106  0.00  0.00    +0.000 A 
BRANCH  17  24
ATOM     23  C   UNL     1       6.260   3.597  12.548  0.00  0.00    +0.000 C 
ATOM     24  O   UNL     1       6.983   4.398  13.478  0.00  0.00    +0.000 OA
ENDBRANCH  17  24
ENDBRANCH  15  20
ENDBRANCH   1  15
TORSDOF 5
ENDMDL
MODEL 7
REMARK VINA RESULT:      -7.5      2.998      4.489
REMARK  Name = 
REMARK  6 active torsions:
REMARK  status: ('A' for Active; 'I' for Inactive)
REMARK    1  A    between atoms: C_1  and  O_2
REMARK    2  A    between atoms: O_2  and  C_3
REMARK    3  A    between atoms: C_6  and  C_7
REMARK    4  A    between atoms: C_7  and  C_9
REMARK    5  A    between atoms: N_13  and  C_14
REMARK    6  A    between atoms: C_17  and  O_18
REMARK                            x       y       z     vdW  Elec       q    Type
REMARK                         _______ _______ _______ _____ _____    ______ ____
ROOT
ATOM      1  C   UNL     1       6.268   5.853  17.114  0.00  0.00    +0.000 A 
ATOM      2  C   UNL     1       7.508   6.295  17.566  0.00  0.00    +0.000 A 
ATOM      3  C   UNL     1       7.634   5.964  18.926  0.00  0.00    +0.000 A 
ATOM      4  C   UNL     1       6.462   5.349  19.292  0.00  0.00    +0.000 A 
ATOM      5  N   UNL     1       5.629   5.233  18.190  0.00  0.00    +0.000 N 
ENDROOT
BRANCH   5   6
ATOM      6  C   UNL     1       4.376   4.546  18.210  0.00  0.00    +0.000 A 
ATOM      7  C   UNL     1       3.177   5.269  18.075  0.00  0.00    +0.000 A 
ATOM      8  C   UNL     1       1.941   4.608  18.080  0.00  0.00    +0.000 A 
ATOM      9  C   UNL     1       1.901   3.226  18.237  0.00  0.00    +0.000 A 
ATOM     10  C   UNL     1       3.085   2.511  18.399  0.00  0.00    +0.000 A 
ATOM     11  F   UNL     1       3.055   1.181  18.575  0.00  0.00    +0.000 F 
ATOM     12  C   UNL     1       4.317   3.159  18.390  0.00  0.00    +0.000 A 
BRANCH   9  13
ATOM     13  O   UNL     1       0.714   2.554  18.242  0.00  0.00    +0.000 OA
ATOM     14  H   UNL     1       0.216   2.791  19.040  0.00  0.00    +0.000 HD
ENDBRANCH   9  13
ENDBRANCH   5   6
BRANCH   1  15
ATOM     15  C   UNL     1       5.678   6.119  15.809  0.00  0.00    +0.000 C 
ATOM     16  O   UNL     1       4.966   7.097  15.593  0.00  0.00    +0.000 OA
BRANCH  15  20
ATOM     17  C   UNL     1       6.573   3.487  12.520  0.00  0.00    +0.000 A 
ATOM     18  C   UNL     1       7.511   4.416  12.970  0.00  0.00    +0.000 A 
ATOM     19  C   UNL     1       7.209   5.264  14.040  0.00  0.00    +0.000 A 
ATOM     20  C   UNL     1       5.956   5.198  14.662  0.00  0.00    +0.000 A 
ATOM     21  C   UNL     1       4.997   4.305  14.166  0.00  0.00    +0.000 A 
ATOM     22  C   UNL     1       5.309   3.445  13.107  0.00  0.00    +0.000 A 
BRANCH  17  24
ATOM     23  C   UNL     1       6.268   1.487  11.299  0.00  0.00    +0.000 C 
ATOM     24  O   UNL     1       6.984   2.705  11.476  0.00  0.00    +0.000 OA
ENDBRANCH  17  24
ENDBRANCH  15  20
ENDBRANCH   1  15
TORSDOF 5
ENDMDL
MODEL 8
REMARK VINA RESULT:      -7.5      2.892      5.998
REMARK  Name = 
REMARK  6 active torsions:
REMARK  status: ('A' for Active; 'I' for Inactive)
REMARK    1  A    between atoms: C_1  and  O_2
REMARK    2  A    between atoms: O_2  and  C_3
REMARK    3  A    between atoms: C_6  and  C_7
REMARK    4  A    between atoms: C_7  and  C_9
REMARK    5  A    between atoms: N_13  and  C_14
REMARK    6  A    between atoms: C_17  and  O_18
REMARK                            x       y       z     vdW  Elec       q    Type
REMARK                         _______ _______ _______ _____ _____    ______ ____
ROOT
ATOM      1  C   UNL     1       2.755   4.636  18.746  0.00  0.00    +0.000 A 
ATOM      2  C   UNL     1       1.885   3.682  18.226  0.00  0.00    +0.000 A 
ATOM      3  C   UNL     1       2.500   3.068  17.122  0.00  0.00    +0.000 A 
ATOM      4  C   UNL     1       3.723   3.671  16.966  0.00  0.00    +0.000 A 
ATOM      5  N   UNL     1       3.918   4.604  17.972  0.00  0.00    +0.000 N 
ENDROOT
BRANCH   5   6
ATOM      6  C   UNL     1       5.134   5.332  18.157  0.00  0.00    +0.000 A 
ATOM      7  C   UNL     1       5.479   6.361  17.264  0.00  0.00    +0.000 A 
ATOM      8  C   UNL     1       6.662   7.091  17.439  0.00  0.00    +0.000 A 
ATOM      9  C   UNL     1       7.511   6.782  18.498  0.00  0.00    +0.000 A 
ATOM     10  C   UNL     1       7.185   5.745  19.368  0.00  0.00    +0.000 A 
ATOM     11  F   UNL     1       8.009   5.425  20.378  0.00  0.00    +0.000 F 
ATOM     12  C   UNL     1       6.009   5.018  19.204  0.00  0.00    +0.000 A 
BRANCH   9  13
ATOM     13  O   UNL     1       8.667   7.478  18.697  0.00  0.00    +0.000 OA
ATOM     14  H   UNL     1       9.025   7.754  17.838  0.00  0.00    +0.000 HD
ENDBRANCH   9  13
ENDBRANCH   5   6
BRANCH   1  15
ATOM     15  C   UNL     1       2.457   5.596  19.800  0.00  0.00    +0.000 C 
ATOM     16  O   UNL     1       2.529   5.310  20.993  0.00  0.00    +0.000 OA
BRANCH  15  20
ATOM     17  C   UNL     1       1.363   9.659  18.879  0.00  0.00    +0.000 A 
ATOM     18  C   UNL     1       1.194   9.144  20.165  0.00  0.00    +0.000 A 
ATOM     19  C   UNL     1       1.554   7.824  20.451  0.00  0.00    +0.000 A 
ATOM     20  C   UNL     1       2.077   7.000  19.447  0.00  0.00    +0.000 A 
ATOM     21  C   UNL     1       2.188   7.504  18.143  0.00  0.00    +0.000 A 
ATOM     22  C   UNL     1       1.844   8.831  17.865  0.00  0.00    +0.000 A 
BRANCH  17  24
ATOM     23  C   UNL     1      -0.399  11.233  18.904  0.00  0.00    +0.000 C 
ATOM     24  O   UNL     1       0.987  10.964  18.721  0.00  0.00    +0.000 OA
ENDBRANCH  17  24
ENDBRANCH  15  20
ENDBRANCH   1  15
TORSDOF 5
ENDMDL
MODEL 9
REMARK VINA RESULT:      -7.4      2.612      4.055
REMARK  Name = 
REMARK  6 active torsions:
REMARK  status: ('A' for Active; 'I' for Inactive)
REMARK    1  A    between atoms: C_1  and  O_2
REMARK    2  A    between atoms: O_2  and  C_3
REMARK    3  A    between atoms: C_6  and  C_7
REMARK    4  A    between atoms: C_7  and  C_9
REMARK    5  A    between atoms: N_13  and  C_14
REMARK    6  A    between atoms: C_17  and  O_18
REMARK                            x       y       z     vdW  Elec       q    Type
REMARK                         _______ _______ _______ _____ _____    ______ ____
ROOT
ATOM      1  C   UNL     1       6.277   5.814  17.202  0.00  0.00    +0.000 A 
ATOM      2  C   UNL     1       7.525   6.242  17.645  0.00  0.00    +0.000 A 
ATOM      3  C   UNL     1       7.652   5.920  19.008  0.00  0.00    +0.000 A 
ATOM      4  C   UNL     1       6.474   5.326  19.384  0.00  0.00    +0.000 A 
ATOM      5  N   UNL     1       5.634   5.213  18.287  0.00  0.00    +0.000 N 
ENDROOT
BRANCH   5   6
ATOM      6  C   UNL     1       4.371   4.544  18.318  0.00  0.00    +0.000 A 
ATOM      7  C   UNL     1       4.152   3.421  17.500  0.00  0.00    +0.000 A 
ATOM      8  C   UNL     1       2.924   2.747  17.528  0.00  0.00    +0.000 A 
ATOM      9  C   UNL     1       1.907   3.205  18.361  0.00  0.00    +0.000 A 
ATOM     10  C   UNL     1       2.111   4.333  19.151  0.00  0.00    +0.000 A 
ATOM     11  F   UNL     1       1.129   4.795  19.939  0.00  0.00    +0.000 F 
ATOM     12  C   UNL     1       3.330   5.005  19.133  0.00  0.00    +0.000 A 
BRANCH   9  13
ATOM     13  O   UNL     1       0.702   2.567  18.413  0.00  0.00    +0.000 OA
ATOM     14  H   UNL     1       0.125   2.917  17.715  0.00  0.00    +0.000 HD
ENDBRANCH   9  13
ENDBRANCH   5   6
BRANCH   1  15
ATOM     15  C   UNL     1       5.686   6.075  15.898  0.00  0.00    +0.000 C 
ATOM     16  O   UNL     1       4.902   7.002  15.702  0.00  0.00    +0.000 OA
BRANCH  15  20
ATOM     17  C   UNL     1       6.639   3.587  12.514  0.00  0.00    +0.000 A 
ATOM     18  C   UNL     1       5.420   3.456  13.181  0.00  0.00    +0.000 A 
ATOM     19  C   UNL     1       5.122   4.270  14.276  0.00  0.00    +0.000 A 
ATOM     20  C   UNL     1       6.050   5.218  14.726  0.00  0.00    +0.000 A 
ATOM     21  C   UNL     1       7.296   5.304  14.090  0.00  0.00    +0.000 A 
ATOM     22  C   UNL     1       7.583   4.500  12.982  0.00  0.00    +0.000 A 
BRANCH  17  24
ATOM     23  C   UNL     1       5.883   1.673  11.354  0.00  0.00    +0.000 C 
ATOM     24  O   UNL     1       6.814   2.746  11.450  0.00  0.00    +0.000 OA
ENDBRANCH  17  24
ENDBRANCH  15  20
ENDBRANCH   1  15
TORSDOF 5
ENDMDL
