MODEL 1
REMARK VINA RESULT:      -7.6      0.000      0.000
REMARK  Name = 
REMARK  18 active torsions:
REMARK  status: ('A' for Active; 'I' for Inactive)
REMARK    1  A    between atoms: C_1  and  N_2
REMARK    2  A    between atoms: N_2  and  C_3
REMARK    3  A    between atoms: C_3  and  C_4
REMARK    4  A    between atoms: C_3  and  C_5
REMARK    5  A    between atoms: N_7  and  C_8
REMARK    6  A    between atoms: C_8  and  C_9
REMARK    7  A    between atoms: C_8  and  C_28
REMARK    8  A    between atoms: N_11  and  C_12
REMARK    9  A    between atoms: C_12  and  C_13
REMARK   10  A    between atoms: C_12  and  C_18
REMARK   11  A    between atoms: C_13  and  C_14
REMARK   12  A    between atoms: C_14  and  C_15
REMARK   13  A    between atoms: C_15  and  C_16
REMARK   14  A    between atoms: C_16  and  N_17
REMARK   15  A    between atoms: N_20  and  N_21
REMARK   16  A    between atoms: N_21  and  C_22
REMARK   17  A    between atoms: C_28  and  C_29
REMARK   18  A    between atoms: C_28  and  C_30
REMARK                            x       y       z     vdW  Elec       q    Type
REMARK                         _______ _______ _______ _____ _____    ______ ____
ROOT
ATOM      1  C   UNL     1       7.186   5.878  18.430  0.00  0.00    +0.000 C 
ENDROOT
BRANCH   1   4
ATOM      2  C   UNL     1       5.102   4.678  19.163  0.00  0.00    +0.000 C 
ATOM      3  O   UNL     1       5.683   3.650  19.464  0.00  0.00    +0.000 OA
ATOM      4  N   UNL     1       5.746   5.752  18.607  0.00  0.00    +0.000 N 
ATOM      5  H   UNL     1       5.174   6.546  18.352  0.00  0.00    +0.000 HD
BRANCH   2   6
ATOM      6  C   UNL     1       3.550   4.810  19.158  0.00  0.00    +0.000 C 
BRANCH   6   9
ATOM      7  C   UNL     1       2.114   6.558  20.363  0.00  0.00    +0.000 C 
ATOM      8  O   UNL     1       1.463   5.728  20.996  0.00  0.00    +0.000 OA
ATOM      9  N   UNL     1       3.127   6.197  19.502  0.00  0.00    +0.000 N 
ATOM     10  H   UNL     1       3.666   6.962  19.108  0.00  0.00    +0.000 HD
BRANCH   7  11
ATOM     11  C   UNL     1       1.760   8.065  20.436  0.00  0.00    +0.000 C 
ATOM     12  C   UNL     1       0.492   8.284  21.258  0.00  0.00    +0.000 C 
BRANCH  11  14
ATOM     13  C   UNL     1       0.753   9.783  19.038  0.00  0.00    +0.000 C 
ATOM     14  N   UNL     1       1.633   8.614  19.065  0.00  0.00    +0.000 NA
ATOM     15  H   UNL     1       2.563   8.917  18.767  0.00  0.00    +0.000 HD
ENDBRANCH  11  14
ENDBRANCH   7  11
ENDBRANCH   6   9
BRANCH   6  16
ATOM     16  C   UNL     1       2.988   4.279  17.811  0.00  0.00    +0.000 C 
ATOM     17  C   UNL     1       3.126   2.755  17.674  0.00  0.00    +0.000 C 
ATOM     18  C   UNL     1       1.521   4.663  17.607  0.00  0.00    +0.000 C 
ENDBRANCH   6  16
ENDBRANCH   2   6
ENDBRANCH   1   4
BRANCH   1  19
ATOM     19  C   UNL     1       7.554   7.276  17.860  0.00  0.00    +0.000 C 
ATOM     20  O   UNL     1       7.156   7.661  16.758  0.00  0.00    +0.000 OA
ATOM     21  N   UNL     1       8.396   8.058  18.647  0.00  0.00    +0.000 N 
ATOM     22  H   UNL     1       8.298   8.028  19.657  0.00  0.00    +0.000 HD
BRANCH  21  23
ATOM     23  N   UNL     1       8.663   9.358  18.121  0.00  0.00    +0.000 N 
ATOM     24  H   UNL     1       9.047   9.279  17.171  0.00  0.00    +0.000 HD
BRANCH  23  25
ATOM     25  C   UNL     1       9.442  10.234  18.925  0.00  0.00    +0.000 A 
ATOM     26  C   UNL     1      10.410  11.043  18.299  0.00  0.00    +0.000 A 
ATOM     27  C   UNL     1      11.081  12.063  18.994  0.00  0.00    +0.000 A 
ATOM     28  C   UNL     1      10.784  12.310  20.327  0.00  0.00    +0.000 A 
ATOM     29  C   UNL     1       9.834  11.518  20.969  0.00  0.00    +0.000 A 
ATOM     30  C   UNL     1       9.170  10.489  20.277  0.00  0.00    +0.000 A 
ENDBRANCH  23  25
ENDBRANCH  21  23
ENDBRANCH   1  19
BRANCH   1  31
ATOM     31  C   UNL     1       7.651   4.708  17.558  0.00  0.00    +0.000 C 
BRANCH  31  32
ATOM     32  C   UNL     1       7.263   4.720  16.066  0.00  0.00    +0.000 C 
BRANCH  32  33
ATOM     33  C   UNL     1       6.074   3.858  15.625  0.00  0.00    +0.000 C 
BRANCH  33  34
ATOM     34  C   UNL     1       5.498   4.168  14.243  0.00  0.00    +0.000 C 
BRANCH  34  35
ATOM     35  N   UNL     1       6.200   3.459  13.183  0.00  0.00    +0.000 NA
ATOM     36  H   UNL     1       6.671   2.636  13.558  0.00  0.00    +0.000 HD
ATOM     37  H   UNL     1       6.945   4.055  12.826  0.00  0.00    +0.000 HD
ENDBRANCH  34  35
ENDBRANCH  33  34
ENDBRANCH  32  33
ENDBRANCH  31  32
ENDBRANCH   1  31
TORSDOF 14
ENDMDL
MODEL 2
REMARK VINA RESULT:      -7.5      1.245      1.506
REMARK  Name = 
REMARK  18 active torsions:
REMARK  status: ('A' for Active; 'I' for Inactive)
REMARK    1  A    between atoms: C_1  and  N_2
REMARK    2  A    between atoms: N_2  and  C_3
REMARK    3  A    between atoms: C_3  and  C_4
REMARK    4  A    between atoms: C_3  and  C_5
REMARK    5  A    between atoms: N_7  and  C_8
REMARK    6  A    between atoms: C_8  and  C_9
REMARK    7  A    between atoms: C_8  and  C_28
REMARK    8  A    between atoms: N_11  and  C_12
REMARK    9  A    between atoms: C_12  and  C_13
REMARK   10  A    between atoms: C_12  and  C_18
REMARK   11  A    between atoms: C_13  and  C_14
REMARK   12  A    between atoms: C_14  and  C_15
REMARK   13  A    between atoms: C_15  and  C_16
REMARK   14  A    between atoms: C_16  and  N_17
REMARK   15  A    between atoms: N_20  and  N_21
REMARK   16  A    between atoms: N_21  and  C_22
REMARK   17  A    between atoms: C_28  and  C_29
REMARK   18  A    between atoms: C_28  and  C_30
REMARK                            x       y       z     vdW  Elec       q    Type
REMARK                         _______ _______ _______ _____ _____    ______ ____
ROOT
ATOM      1  C   UNL     1       7.034   5.682  17.281  0.00  0.00    +0.000 C 
ENDROOT
BRANCH   1   4
ATOM      2  C   UNL     1       5.418   5.001  19.083  0.00  0.00    +0.000 C 
ATOM      3  O   UNL     1       6.216   5.152  19.991  0.00  0.00    +0.000 OA
ATOM      4  N   UNL     1       5.759   5.174  17.767  0.00  0.00    +0.000 N 
ATOM      5  H   UNL     1       5.040   4.987  17.080  0.00  0.00    +0.000 HD
BRANCH   2   6
ATOM      6  C   UNL     1       4.004   4.381  19.285  0.00  0.00    +0.000 C 
BRANCH   6   9
ATOM      7  C   UNL     1       2.807   6.618  18.923  0.00  0.00    +0.000 C 
ATOM      8  O   UNL     1       3.454   6.913  17.919  0.00  0.00    +0.000 OA
ATOM      9  N   UNL     1       2.996   5.432  19.599  0.00  0.00    +0.000 N 
ATOM     10  H   UNL     1       2.342   5.244  20.353  0.00  0.00    +0.000 HD
BRANCH   7  11
ATOM     11  C   UNL     1       1.799   7.622  19.539  0.00  0.00    +0.000 C 
ATOM     12  C   UNL     1       1.857   8.963  18.811  0.00  0.00    +0.000 C 
BRANCH  11  14
ATOM     13  C   UNL     1       1.120   8.698  21.613  0.00  0.00    +0.000 C 
ATOM     14  N   UNL     1       2.063   7.768  20.989  0.00  0.00    +0.000 NA
ATOM     15  H   UNL     1       1.928   6.851  21.421  0.00  0.00    +0.000 HD
ENDBRANCH  11  14
ENDBRANCH   7  11
ENDBRANCH   6   9
BRANCH   6  16
ATOM     16  C   UNL     1       3.649   3.489  18.064  0.00  0.00    +0.000 C 
ATOM     17  C   UNL     1       3.776   1.989  18.372  0.00  0.00    +0.000 C 
ATOM     18  C   UNL     1       2.240   3.767  17.538  0.00  0.00    +0.000 C 
ENDBRANCH   6  16
ENDBRANCH   2   6
ENDBRANCH   1   4
BRANCH   1  19
ATOM     19  C   UNL     1       7.023   7.234  17.215  0.00  0.00    +0.000 C 
ATOM     20  O   UNL     1       6.216   7.856  16.520  0.00  0.00    +0.000 OA
ATOM     21  N   UNL     1       8.007   7.887  17.953  0.00  0.00    +0.000 N 
ATOM     22  H   UNL     1       8.285   7.507  18.851  0.00  0.00    +0.000 HD
BRANCH  21  23
ATOM     23  N   UNL     1       7.928   9.312  17.916  0.00  0.00    +0.000 N 
ATOM     24  H   UNL     1       7.777   9.630  16.951  0.00  0.00    +0.000 HD
BRANCH  23  25
ATOM     25  C   UNL     1       8.982  10.035  18.542  0.00  0.00    +0.000 A 
ATOM     26  C   UNL     1       9.841  10.806  17.736  0.00  0.00    +0.000 A 
ATOM     27  C   UNL     1      10.779  11.691  18.294  0.00  0.00    +0.000 A 
ATOM     28  C   UNL     1      10.864  11.839  19.672  0.00  0.00    +0.000 A 
ATOM     29  C   UNL     1      10.026  11.081  20.489  0.00  0.00    +0.000 A 
ATOM     30  C   UNL     1       9.096  10.187  19.931  0.00  0.00    +0.000 A 
ENDBRANCH  23  25
ENDBRANCH  21  23
ENDBRANCH   1  19
BRANCH   1  31
ATOM     31  C   UNL     1       7.323   5.003  15.939  0.00  0.00    +0.000 C 
BRANCH  31  32
ATOM     32  C   UNL     1       6.339   3.921  15.451  0.00  0.00    +0.000 C 
BRANCH  32  33
ATOM     33  C   UNL     1       5.682   4.113  14.079  0.00  0.00    +0.000 C 
BRANCH  33  34
ATOM     34  C   UNL     1       6.551   3.777  12.867  0.00  0.00    +0.000 C 
BRANCH  34  35
ATOM     35  N   UNL     1       6.031   2.645  12.114  0.00  0.00    +0.000 NA
ATOM     36  H   UNL     1       5.334   2.957  11.439  0.00  0.00    +0.000 HD
ATOM     37  H   UNL     1       5.529   2.029  12.752  0.00  0.00    +0.000 HD
ENDBRANCH  34  35
ENDBRANCH  33  34
ENDBRANCH  32  33
ENDBRANCH  31  32
ENDBRANCH   1  31
TORSDOF 14
ENDMDL
MODEL 3
REMARK VINA RESULT:      -7.4      2.948      7.710
REMARK  Name = 
REMARK  18 active torsions:
REMARK  status: ('A' for Active; 'I' for Inactive)
REMARK    1  A    between atoms: C_1  and  N_2
REMARK    2  A    between atoms: N_2  and  C_3
REMARK    3  A    between atoms: C_3  and  C_4
REMARK    4  A    between atoms: C_3  and  C_5
REMARK    5  A    between atoms: N_7  and  C_8
REMARK    6  A    between atoms: C_8  and  C_9
REMARK    7  A    between atoms: C_8  and  C_28
REMARK    8  A    between atoms: N_11  and  C_12
REMARK    9  A    between atoms: C_12  and  C_13
REMARK   10  A    between atoms: C_12  and  C_18
REMARK   11  A    between atoms: C_13  and  C_14
REMARK   12  A    between atoms: C_14  and  C_15
REMARK   13  A    between atoms: C_15  and  C_16
REMARK   14  A    between atoms: C_16  and  N_17
REMARK   15  A    between atoms: N_20  and  N_21
REMARK   16  A    between atoms: N_21  and  C_22
REMARK   17  A    between atoms: C_28  and  C_29
REMARK   18  A    between atoms: C_28  and  C_30
REMARK                            x       y       z     vdW  Elec       q    Type
REMARK                         _______ _______ _______ _____ _____    ______ ____
ROOT
ATOM      1  C   UNL     1       2.749   5.826  18.147  0.00  0.00    +0.000 C 
ENDROOT
BRANCH   1   4
ATOM      2  C   UNL     1       5.071   6.102  17.225  0.00  0.00    +0.000 C 
ATOM      3  O   UNL     1       4.828   7.157  16.664  0.00  0.00    +0.000 OA
ATOM      4  N   UNL     1       4.114   5.386  17.893  0.00  0.00    +0.000 N 
ATOM      5  H   UNL     1       4.400   4.501  18.293  0.00  0.00    +0.000 HD
BRANCH   2   6
ATOM      6  C   UNL     1       6.419   5.339  17.059  0.00  0.00    +0.000 C 
BRANCH   6   9
ATOM      7  C   UNL     1       6.287   4.029  14.859  0.00  0.00    +0.000 C 
ATOM      8  O   UNL     1       5.530   3.167  15.306  0.00  0.00    +0.000 OA
ATOM      9  N   UNL     1       6.722   5.091  15.621  0.00  0.00    +0.000 N 
ATOM     10  H   UNL     1       7.261   5.796  15.127  0.00  0.00    +0.000 HD
BRANCH   7  11
ATOM     11  C   UNL     1       6.867   3.908  13.428  0.00  0.00    +0.000 C 
ATOM     12  C   UNL     1       7.649   5.165  13.053  0.00  0.00    +0.000 C 
BRANCH  11  14
ATOM     13  C   UNL     1       6.005   2.377  11.744  0.00  0.00    +0.000 C 
ATOM     14  N   UNL     1       5.774   3.629  12.468  0.00  0.00    +0.000 NA
ATOM     15  H   UNL     1       4.911   3.523  13.006  0.00  0.00    +0.000 HD
ENDBRANCH  11  14
ENDBRANCH   7  11
ENDBRANCH   6   9
BRANCH   6  16
ATOM     16  C   UNL     1       7.537   6.084  17.836  0.00  0.00    +0.000 C 
ATOM     17  C   UNL     1       7.516   7.601  17.591  0.00  0.00    +0.000 C 
ATOM     18  C   UNL     1       7.462   5.826  19.342  0.00  0.00    +0.000 C 
ENDBRANCH   6  16
ENDBRANCH   2   6
ENDBRANCH   1   4
BRANCH   1  19
ATOM     19  C   UNL     1       2.569   6.244  19.633  0.00  0.00    +0.000 C 
ATOM     20  O   UNL     1       2.877   5.500  20.567  0.00  0.00    +0.000 OA
ATOM     21  N   UNL     1       2.000   7.496  19.853  0.00  0.00    +0.000 N 
ATOM     22  H   UNL     1       2.227   8.260  19.226  0.00  0.00    +0.000 HD
BRANCH  21  23
ATOM     23  N   UNL     1       1.906   7.872  21.227  0.00  0.00    +0.000 N 
ATOM     24  H   UNL     1       1.634   7.059  21.795  0.00  0.00    +0.000 HD
BRANCH  23  25
ATOM     25  C   UNL     1       1.110   9.010  21.535  0.00  0.00    +0.000 A 
ATOM     26  C   UNL     1       0.735   9.873  20.487  0.00  0.00    +0.000 A 
ATOM     27  C   UNL     1      -0.200  10.903  20.679  0.00  0.00    +0.000 A 
ATOM     28  C   UNL     1      -0.796  11.082  21.920  0.00  0.00    +0.000 A 
ATOM     29  C   UNL     1      -0.435  10.242  22.973  0.00  0.00    +0.000 A 
ATOM     30  C   UNL     1       0.509   9.218  22.784  0.00  0.00    +0.000 A 
ENDBRANCH  23  25
ENDBRANCH  21  23
ENDBRANCH   1  19
BRANCH   1  31
ATOM     31  C   UNL     1       1.809   4.703  17.698  0.00  0.00    +0.000 C 
BRANCH  31  32
ATOM     32  C   UNL     1       2.370   3.269  17.646  0.00  0.00    +0.000 C 
BRANCH  32  33
ATOM     33  C   UNL     1       2.469   2.486  18.961  0.00  0.00    +0.000 C 
BRANCH  33  34
ATOM     34  C   UNL     1       1.142   2.164  19.649  0.00  0.00    +0.000 C 
BRANCH  34  35
ATOM     35  N   UNL     1       0.774   3.172  20.633  0.00  0.00    +0.000 NA
ATOM     36  H   UNL     1       0.101   3.827  20.236  0.00  0.00    +0.000 HD
ATOM     37  H   UNL     1       1.597   3.734  20.851  0.00  0.00    +0.000 HD
ENDBRANCH  34  35
ENDBRANCH  33  34
ENDBRANCH  32  33
ENDBRANCH  31  32
ENDBRANCH   1  31
TORSDOF 14
ENDMDL
MODEL 4
REMARK VINA RESULT:      -7.4      2.887      7.641
REMARK  Name = 
REMARK  18 active torsions:
REMARK  status: ('A' for Active; 'I' for Inactive)
REMARK    1  A    between atoms: C_1  and  N_2
REMARK    2  A    between atoms: N_2  and  C_3
REMARK    3  A    between atoms: C_3  and  C_4
REMARK    4  A    between atoms: C_3  and  C_5
REMARK    5  A    between atoms: N_7  and  C_8
REMARK    6  A    between atoms: C_8  and  C_9
REMARK    7  A    between atoms: C_8  and  C_28
REMARK    8  A    between atoms: N_11  and  C_12
REMARK    9  A    between atoms: C_12  and  C_13
REMARK   10  A    between atoms: C_12  and  C_18
REMARK   11  A    between atoms: C_13  and  C_14
REMARK   12  A    between atoms: C_14  and  C_15
REMARK   13  A    between atoms: C_15  and  C_16
REMARK   14  A    between atoms: C_16  and  N_17
REMARK   15  A    between atoms: N_20  and  N_21
REMARK   16  A    between atoms: N_21  and  C_22
REMARK   17  A    between atoms: C_28  and  C_29
REMARK   18  A    between atoms: C_28  and  C_30
REMARK                            x       y       z     vdW  Elec       q    Type
REMARK                         _______ _______ _______ _____ _____    ______ ____
ROOT
ATOM      1  C   UNL     1       2.956   5.973  18.123  0.00  0.00    +0.000 C 
ENDROOT
BRANCH   1   4
ATOM      2  C   UNL     1       5.195   6.272  17.017  0.00  0.00    +0.000 C 
ATOM      3  O   UNL     1       4.799   7.105  16.220  0.00  0.00    +0.000 OA
ATOM      4  N   UNL     1       4.360   5.647  17.905  0.00  0.00    +0.000 N 
ATOM      5  H   UNL     1       4.771   4.940  18.501  0.00  0.00    +0.000 HD
BRANCH   2   6
ATOM      6  C   UNL     1       6.625   5.658  16.968  0.00  0.00    +0.000 C 
BRANCH   6   9
ATOM      7  C   UNL     1       6.525   4.194  14.867  0.00  0.00    +0.000 C 
ATOM      8  O   UNL     1       5.672   3.433  15.320  0.00  0.00    +0.000 OA
ATOM      9  N   UNL     1       6.999   5.275  15.578  0.00  0.00    +0.000 N 
ATOM     10  H   UNL     1       7.626   5.894  15.074  0.00  0.00    +0.000 HD
BRANCH   7  11
ATOM     11  C   UNL     1       7.185   3.915  13.493  0.00  0.00    +0.000 C 
ATOM     12  C   UNL     1       7.501   5.223  12.769  0.00  0.00    +0.000 C 
BRANCH  11  14
ATOM     13  C   UNL     1       6.882   2.771  11.366  0.00  0.00    +0.000 C 
ATOM     14  N   UNL     1       6.307   3.035  12.687  0.00  0.00    +0.000 NA
ATOM     15  H   UNL     1       6.232   2.141  13.178  0.00  0.00    +0.000 HD
ENDBRANCH  11  14
ENDBRANCH   7  11
ENDBRANCH   6   9
BRANCH   6  16
ATOM     16  C   UNL     1       7.627   6.618  17.666  0.00  0.00    +0.000 C 
ATOM     17  C   UNL     1       7.136   8.073  17.680  0.00  0.00    +0.000 C 
ATOM     18  C   UNL     1       7.934   6.186  19.101  0.00  0.00    +0.000 C 
ENDBRANCH   6  16
ENDBRANCH   2   6
ENDBRANCH   1   4
BRANCH   1  19
ATOM     19  C   UNL     1       2.690   6.305  19.617  0.00  0.00    +0.000 C 
ATOM     20  O   UNL     1       3.022   5.542  20.528  0.00  0.00    +0.000 OA
ATOM     21  N   UNL     1       2.014   7.496  19.871  0.00  0.00    +0.000 N 
ATOM     22  H   UNL     1       2.202   8.304  19.288  0.00  0.00    +0.000 HD
BRANCH  21  23
ATOM     23  N   UNL     1       1.840   7.796  21.255  0.00  0.00    +0.000 N 
ATOM     24  H   UNL     1       1.505   6.963  21.755  0.00  0.00    +0.000 HD
BRANCH  23  25
ATOM     25  C   UNL     1       1.062   8.942  21.576  0.00  0.00    +0.000 A 
ATOM     26  C   UNL     1       0.710   9.830  20.542  0.00  0.00    +0.000 A 
ATOM     27  C   UNL     1      -0.209  10.873  20.744  0.00  0.00    +0.000 A 
ATOM     28  C   UNL     1      -0.811  11.040  21.983  0.00  0.00    +0.000 A 
ATOM     29  C   UNL     1      -0.473  10.176  23.024  0.00  0.00    +0.000 A 
ATOM     30  C   UNL     1       0.454   9.139  22.825  0.00  0.00    +0.000 A 
ENDBRANCH  23  25
ENDBRANCH  21  23
ENDBRANCH   1  19
BRANCH   1  31
ATOM     31  C   UNL     1       2.122   4.808  17.584  0.00  0.00    +0.000 C 
BRANCH  31  32
ATOM     32  C   UNL     1       2.801   3.430  17.459  0.00  0.00    +0.000 C 
BRANCH  32  33
ATOM     33  C   UNL     1       2.652   2.446  18.625  0.00  0.00    +0.000 C 
BRANCH  33  34
ATOM     34  C   UNL     1       3.953   1.989  19.285  0.00  0.00    +0.000 C 
BRANCH  34  35
ATOM     35  N   UNL     1       4.890   3.087  19.474  0.00  0.00    +0.000 NA
ATOM     36  H   UNL     1       5.838   2.730  19.588  0.00  0.00    +0.000 HD
ATOM     37  H   UNL     1       4.673   3.556  20.353  0.00  0.00    +0.000 HD
ENDBRANCH  34  35
ENDBRANCH  33  34
ENDBRANCH  32  33
ENDBRANCH  31  32
ENDBRANCH   1  31
TORSDOF 14
ENDMDL
MODEL 5
REMARK VINA RESULT:      -7.4      1.303      1.635
REMARK  Name = 
REMARK  18 active torsions:
REMARK  status: ('A' for Active; 'I' for Inactive)
REMARK    1  A    between atoms: C_1  and  N_2
REMARK    2  A    between atoms: N_2  and  C_3
REMARK    3  A    between atoms: C_3  and  C_4
REMARK    4  A    between atoms: C_3  and  C_5
REMARK    5  A    between atoms: N_7  and  C_8
REMARK    6  A    between atoms: C_8  and  C_9
REMARK    7  A    between atoms: C_8  and  C_28
REMARK    8  A    between atoms: N_11  and  C_12
REMARK    9  A    between atoms: C_12  and  C_13
REMARK   10  A    between atoms: C_12  and  C_18
REMARK   11  A    between atoms: C_13  and  C_14
REMARK   12  A    between atoms: C_14  and  C_15
REMARK   13  A    between atoms: C_15  and  C_16
REMARK   14  A    between atoms: C_16  and  N_17
REMARK   15  A    between atoms: N_20  and  N_21
REMARK   16  A    between atoms: N_21  and  C_22
REMARK   17  A    between atoms: C_28  and  C_29
REMARK   18  A    between atoms: C_28  and  C_30
REMARK                            x       y       z     vdW  Elec       q    Type
REMARK                         _______ _______ _______ _____ _____    ______ ____
ROOT
ATOM      1  C   UNL     1       6.546   5.614  17.772  0.00  0.00    +0.000 C 
ENDROOT
BRANCH   1   4
ATOM      2  C   UNL     1       4.748   4.676  19.257  0.00  0.00    +0.000 C 
ATOM      3  O   UNL     1       5.337   3.631  19.476  0.00  0.00    +0.000 OA
ATOM      4  N   UNL     1       5.235   5.633  18.407  0.00  0.00    +0.000 N 
ATOM      5  H   UNL     1       4.657   6.449  18.256  0.00  0.00    +0.000 HD
BRANCH   2   6
ATOM      6  C   UNL     1       3.287   4.945  19.727  0.00  0.00    +0.000 C 
BRANCH   6   9
ATOM      7  C   UNL     1       1.981   7.067  20.329  0.00  0.00    +0.000 C 
ATOM      8  O   UNL     1       1.316   6.524  21.211  0.00  0.00    +0.000 OA
ATOM      9  N   UNL     1       2.943   6.390  19.611  0.00  0.00    +0.000 N 
ATOM     10  H   UNL     1       3.501   6.956  18.978  0.00  0.00    +0.000 HD
BRANCH   7  11
ATOM     11  C   UNL     1       1.700   8.533  19.915  0.00  0.00    +0.000 C 
ATOM     12  C   UNL     1       0.431   9.052  20.587  0.00  0.00    +0.000 C 
BRANCH  11  14
ATOM     13  C   UNL     1       1.755  10.015  17.985  0.00  0.00    +0.000 C 
ATOM     14  N   UNL     1       1.623   8.629  18.438  0.00  0.00    +0.000 NA
ATOM     15  H   UNL     1       2.408   8.099  18.054  0.00  0.00    +0.000 HD
ENDBRANCH  11  14
ENDBRANCH   7  11
ENDBRANCH   6   9
BRANCH   6  16
ATOM     16  C   UNL     1       2.318   3.988  18.982  0.00  0.00    +0.000 C 
ATOM     17  C   UNL     1       1.151   3.523  19.867  0.00  0.00    +0.000 C 
ATOM     18  C   UNL     1       1.750   4.619  17.709  0.00  0.00    +0.000 C 
ENDBRANCH   6  16
ENDBRANCH   2   6
ENDBRANCH   1   4
BRANCH   1  19
ATOM     19  C   UNL     1       7.594   6.364  18.640  0.00  0.00    +0.000 C 
ATOM     20  O   UNL     1       8.104   5.854  19.641  0.00  0.00    +0.000 OA
ATOM     21  N   UNL     1       7.894   7.667  18.250  0.00  0.00    +0.000 N 
ATOM     22  H   UNL     1       7.930   7.891  17.261  0.00  0.00    +0.000 HD
BRANCH  21  23
ATOM     23  N   UNL     1       8.903   8.303  19.034  0.00  0.00    +0.000 N 
ATOM     24  H   UNL     1       8.872   7.950  19.998  0.00  0.00    +0.000 HD
BRANCH  23  25
ATOM     25  C   UNL     1       8.948   9.724  19.002  0.00  0.00    +0.000 A 
ATOM     26  C   UNL     1       9.579  10.403  20.062  0.00  0.00    +0.000 A 
ATOM     27  C   UNL     1       9.829  11.785  20.009  0.00  0.00    +0.000 A 
ATOM     28  C   UNL     1       9.470  12.515  18.885  0.00  0.00    +0.000 A 
ATOM     29  C   UNL     1       8.838  11.864  17.826  0.00  0.00    +0.000 A 
ATOM     30  C   UNL     1       8.578  10.484  17.883  0.00  0.00    +0.000 A 
ENDBRANCH  23  25
ENDBRANCH  21  23
ENDBRANCH   1  19
BRANCH   1  31
ATOM     31  C   UNL     1       6.385   6.183  16.360  0.00  0.00    +0.000 C 
BRANCH  31  32
ATOM     32  C   UNL     1       5.443   5.446  15.387  0.00  0.00    +0.000 C 
BRANCH  32  33
ATOM     33  C   UNL     1       5.901   4.094  14.828  0.00  0.00    +0.000 C 
BRANCH  33  34
ATOM     34  C   UNL     1       6.609   4.133  13.474  0.00  0.00    +0.000 C 
BRANCH  34  35
ATOM     35  N   UNL     1       7.575   5.219  13.389  0.00  0.00    +0.000 NA
ATOM     36  H   UNL     1       7.115   6.082  13.099  0.00  0.00    +0.000 HD
ATOM     37  H   UNL     1       8.242   5.008  12.648  0.00  0.00    +0.000 HD
ENDBRANCH  34  35
ENDBRANCH  33  34
ENDBRANCH  32  33
ENDBRANCH  31  32
ENDBRANCH   1  31
TORSDOF 14
ENDMDL
MODEL 6
REMARK VINA RESULT:      -7.3      1.450      1.795
REMARK  Name = 
REMARK  18 active torsions:
REMARK  status: ('A' for Active; 'I' for Inactive)
REMARK    1  A    between atoms: C_1  and  N_2
REMARK    2  A    between atoms: N_2  and  C_3
REMARK    3  A    between atoms: C_3  and  C_4
REMARK    4  A    between atoms: C_3  and  C_5
REMARK    5  A    between atoms: N_7  and  C_8
REMARK    6  A    between atoms: C_8  and  C_9
REMARK    7  A    between atoms: C_8  and  C_28
REMARK    8  A    between atoms: N_11  and  C_12
REMARK    9  A    between atoms: C_12  and  C_13
REMARK   10  A    between atoms: C_12  and  C_18
REMARK   11  A    between atoms: C_13  and  C_14
REMARK   12  A    between atoms: C_14  and  C_15
REMARK   13  A    between atoms: C_15  and  C_16
REMARK   14  A    between atoms: C_16  and  N_17
REMARK   15  A    between atoms: N_20  and  N_21
REMARK   16  A    between atoms: N_21  and  C_22
REMARK   17  A    between atoms: C_28  and  C_29
REMARK   18  A    between atoms: C_28  and  C_30
REMARK                            x       y       z     vdW  Elec       q    Type
REMARK                         _______ _______ _______ _____ _____    ______ ____
ROOT
ATOM      1  C   UNL     1       6.376   5.623  17.602  0.00  0.00    +0.000 C 
ENDROOT
BRANCH   1   4
ATOM      2  C   UNL     1       4.581   4.863  19.189  0.00  0.00    +0.000 C 
ATOM      3  O   UNL     1       5.161   3.839  19.509  0.00  0.00    +0.000 OA
ATOM      4  N   UNL     1       5.071   5.722  18.242  0.00  0.00    +0.000 N 
ATOM      5  H   UNL     1       4.500   6.525  18.013  0.00  0.00    +0.000 HD
BRANCH   2   6
ATOM      6  C   UNL     1       3.127   5.195  19.640  0.00  0.00    +0.000 C 
BRANCH   6   9
ATOM      7  C   UNL     1       1.938   7.464  19.725  0.00  0.00    +0.000 C 
ATOM      8  O   UNL     1       1.611   7.357  20.906  0.00  0.00    +0.000 OA
ATOM      9  N   UNL     1       2.674   6.497  19.075  0.00  0.00    +0.000 N 
ATOM     10  H   UNL     1       2.975   6.730  18.134  0.00  0.00    +0.000 HD
BRANCH   7  11
ATOM     11  C   UNL     1       1.453   8.664  18.874  0.00  0.00    +0.000 C 
ATOM     12  C   UNL     1       2.435   8.958  17.742  0.00  0.00    +0.000 C 
BRANCH  11  14
ATOM     13  C   UNL     1      -0.140  10.314  19.690  0.00  0.00    +0.000 C 
ATOM     14  N   UNL     1       1.246   9.844  19.747  0.00  0.00    +0.000 NA
ATOM     15  H   UNL     1       1.437   9.553  20.708  0.00  0.00    +0.000 HD
ENDBRANCH  11  14
ENDBRANCH   7  11
ENDBRANCH   6   9
BRANCH   6  16
ATOM     16  C   UNL     1       2.197   3.993  19.322  0.00  0.00    +0.000 C 
ATOM     17  C   UNL     1       1.060   3.840  20.342  0.00  0.00    +0.000 C 
ATOM     18  C   UNL     1       1.593   4.088  17.919  0.00  0.00    +0.000 C 
ENDBRANCH   6  16
ENDBRANCH   2   6
ENDBRANCH   1   4
BRANCH   1  19
ATOM     19  C   UNL     1       7.468   6.322  18.458  0.00  0.00    +0.000 C 
ATOM     20  O   UNL     1       8.053   5.743  19.376  0.00  0.00    +0.000 OA
ATOM     21  N   UNL     1       7.720   7.659  18.159  0.00  0.00    +0.000 N 
ATOM     22  H   UNL     1       7.685   7.964  17.192  0.00  0.00    +0.000 HD
BRANCH  21  23
ATOM     23  N   UNL     1       8.770   8.250  18.924  0.00  0.00    +0.000 N 
ATOM     24  H   UNL     1       8.670   7.991  19.914  0.00  0.00    +0.000 HD
BRANCH  23  25
ATOM     25  C   UNL     1       8.973   9.650  18.772  0.00  0.00    +0.000 A 
ATOM     26  C   UNL     1       8.329  10.312  17.709  0.00  0.00    +0.000 A 
ATOM     27  C   UNL     1       8.327  11.713  17.606  0.00  0.00    +0.000 A 
ATOM     28  C   UNL     1       8.954  12.484  18.575  0.00  0.00    +0.000 A 
ATOM     29  C   UNL     1       9.603  11.849  19.633  0.00  0.00    +0.000 A 
ATOM     30  C   UNL     1       9.614  10.447  19.730  0.00  0.00    +0.000 A 
ENDBRANCH  23  25
ENDBRANCH  21  23
ENDBRANCH   1  19
BRANCH   1  31
ATOM     31  C   UNL     1       6.241   6.186  16.185  0.00  0.00    +0.000 C 
BRANCH  31  32
ATOM     32  C   UNL     1       6.846   5.373  15.023  0.00  0.00    +0.000 C 
BRANCH  32  33
ATOM     33  C   UNL     1       6.248   3.994  14.722  0.00  0.00    +0.000 C 
BRANCH  33  34
ATOM     34  C   UNL     1       5.560   3.843  13.365  0.00  0.00    +0.000 C 
BRANCH  34  35
ATOM     35  N   UNL     1       6.332   3.020  12.445  0.00  0.00    +0.000 NA
ATOM     36  H   UNL     1       6.601   3.562  11.625  0.00  0.00    +0.000 HD
ATOM     37  H   UNL     1       5.733   2.275  12.089  0.00  0.00    +0.000 HD
ENDBRANCH  34  35
ENDBRANCH  33  34
ENDBRANCH  32  33
ENDBRANCH  31  32
ENDBRANCH   1  31
TORSDOF 14
ENDMDL
MODEL 7
REMARK VINA RESULT:      -7.3      2.000      3.538
REMARK  Name = 
REMARK  18 active torsions:
REMARK  status: ('A' for Active; 'I' for Inactive)
REMARK    1  A    between atoms: C_1  and  N_2
REMARK    2  A    between atoms: N_2  and  C_3
REMARK    3  A    between atoms: C_3  and  C_4
REMARK    4  A    between atoms: C_3  and  C_5
REMARK    5  A    between atoms: N_7  and  C_8
REMARK    6  A    between atoms: C_8  and  C_9
REMARK    7  A    between atoms: C_8  and  C_28
REMARK    8  A    between atoms: N_11  and  C_12
REMARK    9  A    between atoms: C_12  and  C_13
REMARK   10  A    between atoms: C_12  and  C_18
REMARK   11  A    between atoms: C_13  and  C_14
REMARK   12  A    between atoms: C_14  and  C_15
REMARK   13  A    between atoms: C_15  and  C_16
REMARK   14  A    between atoms: C_16  and  N_17
REMARK   15  A    between atoms: N_20  and  N_21
REMARK   16  A    between atoms: N_21  and  C_22
REMARK   17  A    between atoms: C_28  and  C_29
REMARK   18  A    between atoms: C_28  and  C_30
REMARK                            x       y       z     vdW  Elec       q    Type
REMARK                         _______ _______ _______ _____ _____    ______ ____
ROOT
ATOM      1  C   UNL     1       6.426   4.898  17.903  0.00  0.00    +0.000 C 
ENDROOT
BRANCH   1   4
ATOM      2  C   UNL     1       4.322   6.258  17.690  0.00  0.00    +0.000 C 
ATOM      3  O   UNL     1       4.875   7.213  17.173  0.00  0.00    +0.000 OA
ATOM      4  N   UNL     1       5.008   5.153  18.120  0.00  0.00    +0.000 N 
ATOM      5  H   UNL     1       4.469   4.428  18.574  0.00  0.00    +0.000 HD
BRANCH   2   6
ATOM      6  C   UNL     1       2.827   6.274  18.129  0.00  0.00    +0.000 C 
BRANCH   6   9
ATOM      7  C   UNL     1       1.551   4.056  18.273  0.00  0.00    +0.000 C 
ATOM      8  O   UNL     1       1.000   4.191  17.181  0.00  0.00    +0.000 OA
ATOM      9  N   UNL     1       2.441   4.984  18.767  0.00  0.00    +0.000 N 
ATOM     10  H   UNL     1       2.913   4.728  19.629  0.00  0.00    +0.000 HD
BRANCH   7  11
ATOM     11  C   UNL     1       1.194   2.865  19.199  0.00  0.00    +0.000 C 
ATOM     12  C   UNL     1       1.201   3.297  20.664  0.00  0.00    +0.000 C 
BRANCH  11  14
ATOM     13  C   UNL     1       3.010   2.023  17.815  0.00  0.00    +0.000 C 
ATOM     14  N   UNL     1       2.127   1.742  18.949  0.00  0.00    +0.000 NA
ATOM     15  H   UNL     1       2.712   1.636  19.781  0.00  0.00    +0.000 HD
ENDBRANCH  11  14
ENDBRANCH   7  11
ENDBRANCH   6   9
BRANCH   6  16
ATOM     16  C   UNL     1       2.554   7.532  18.997  0.00  0.00    +0.000 C 
ATOM     17  C   UNL     1       1.783   8.619  18.234  0.00  0.00    +0.000 C 
ATOM     18  C   UNL     1       1.792   7.193  20.279  0.00  0.00    +0.000 C 
ENDBRANCH   6  16
ENDBRANCH   2   6
ENDBRANCH   1   4
BRANCH   1  19
ATOM     19  C   UNL     1       7.298   5.816  18.804  0.00  0.00    +0.000 C 
ATOM     20  O   UNL     1       7.506   5.563  19.993  0.00  0.00    +0.000 OA
ATOM     21  N   UNL     1       7.799   6.968  18.204  0.00  0.00    +0.000 N 
ATOM     22  H   UNL     1       8.091   6.933  17.233  0.00  0.00    +0.000 HD
BRANCH  21  23
ATOM     23  N   UNL     1       8.644   7.755  19.043  0.00  0.00    +0.000 N 
ATOM     24  H   UNL     1       8.463   7.533  20.030  0.00  0.00    +0.000 HD
BRANCH  23  25
ATOM     25  C   UNL     1       8.650   9.160  18.821  0.00  0.00    +0.000 A 
ATOM     26  C   UNL     1       9.473   9.967  19.629  0.00  0.00    +0.000 A 
ATOM     27  C   UNL     1       9.677  11.329  19.348  0.00  0.00    +0.000 A 
ATOM     28  C   UNL     1       9.076  11.909  18.240  0.00  0.00    +0.000 A 
ATOM     29  C   UNL     1       8.251  11.130  17.429  0.00  0.00    +0.000 A 
ATOM     30  C   UNL     1       8.039   9.770  17.716  0.00  0.00    +0.000 A 
ENDBRANCH  23  25
ENDBRANCH  21  23
ENDBRANCH   1  19
BRANCH   1  31
ATOM     31  C   UNL     1       6.701   5.053  16.405  0.00  0.00    +0.000 C 
BRANCH  31  32
ATOM     32  C   UNL     1       5.960   4.113  15.433  0.00  0.00    +0.000 C 
BRANCH  32  33
ATOM     33  C   UNL     1       6.394   4.112  13.963  0.00  0.00    +0.000 C 
BRANCH  33  34
ATOM     34  C   UNL     1       7.721   4.807  13.655  0.00  0.00    +0.000 C 
BRANCH  34  35
ATOM     35  N   UNL     1       7.652   5.612  12.444  0.00  0.00    +0.000 NA
ATOM     36  H   UNL     1       8.137   5.145  11.679  0.00  0.00    +0.000 HD
ATOM     37  H   UNL     1       8.167   6.479  12.597  0.00  0.00    +0.000 HD
ENDBRANCH  34  35
ENDBRANCH  33  34
ENDBRANCH  32  33
ENDBRANCH  31  32
ENDBRANCH   1  31
TORSDOF 14
ENDMDL
MODEL 8
REMARK VINA RESULT:      -7.2      1.843      3.300
REMARK  Name = 
REMARK  18 active torsions:
REMARK  status: ('A' for Active; 'I' for Inactive)
REMARK    1  A    between atoms: C_1  and  N_2
REMARK    2  A    between atoms: N_2  and  C_3
REMARK    3  A    between atoms: C_3  and  C_4
REMARK    4  A    between atoms: C_3  and  C_5
REMARK    5  A    between atoms: N_7  and  C_8
REMARK    6  A    between atoms: C_8  and  C_9
REMARK    7  A    between atoms: C_8  and  C_28
REMARK    8  A    between atoms: N_11  and  C_12
REMARK    9  A    between atoms: C_12  and  C_13
REMARK   10  A    between atoms: C_12  and  C_18
REMARK   11  A    between atoms: C_13  and  C_14
REMARK   12  A    between atoms: C_14  and  C_15
REMARK   13  A    between atoms: C_15  and  C_16
REMARK   14  A    between atoms: C_16  and  N_17
REMARK   15  A    between atoms: N_20  and  N_21
REMARK   16  A    between atoms: N_21  and  C_22
REMARK   17  A    between atoms: C_28  and  C_29
REMARK   18  A    between atoms: C_28  and  C_30
REMARK                            x       y       z     vdW  Elec       q    Type
REMARK                         _______ _______ _______ _____ _____    ______ ____
ROOT
ATOM      1  C   UNL     1       6.603   5.478  17.912  0.00  0.00    +0.000 C 
ENDROOT
BRANCH   1   4
ATOM      2  C   UNL     1       4.328   6.394  17.357  0.00  0.00    +0.000 C 
ATOM      3  O   UNL     1       4.719   7.064  16.417  0.00  0.00    +0.000 OA
ATOM      4  N   UNL     1       5.178   5.668  18.149  0.00  0.00    +0.000 N 
ATOM      5  H   UNL     1       4.767   5.175  18.931  0.00  0.00    +0.000 HD
BRANCH   2   6
ATOM      6  C   UNL     1       2.872   6.464  17.906  0.00  0.00    +0.000 C 
BRANCH   6   9
ATOM      7  C   UNL     1       1.700   4.219  18.305  0.00  0.00    +0.000 C 
ATOM      8  O   UNL     1       1.165   4.192  17.197  0.00  0.00    +0.000 OA
ATOM      9  N   UNL     1       2.535   5.244  18.693  0.00  0.00    +0.000 N 
ATOM     10  H   UNL     1       3.002   5.119  19.586  0.00  0.00    +0.000 HD
BRANCH   7  11
ATOM     11  C   UNL     1       1.382   3.135  19.364  0.00  0.00    +0.000 C 
ATOM     12  C   UNL     1       2.070   3.455  20.690  0.00  0.00    +0.000 C 
BRANCH  11  14
ATOM     13  C   UNL     1       3.213   1.723  18.604  0.00  0.00    +0.000 C 
ATOM     14  N   UNL     1       1.771   1.802  18.847  0.00  0.00    +0.000 NA
ATOM     15  H   UNL     1       1.538   1.112  19.565  0.00  0.00    +0.000 HD
ENDBRANCH  11  14
ENDBRANCH   7  11
ENDBRANCH   6   9
BRANCH   6  16
ATOM     16  C   UNL     1       2.668   7.801  18.668  0.00  0.00    +0.000 C 
ATOM     17  C   UNL     1       1.830   8.812  17.871  0.00  0.00    +0.000 C 
ATOM     18  C   UNL     1       2.018   7.591  20.037  0.00  0.00    +0.000 C 
ENDBRANCH   6  16
ENDBRANCH   2   6
ENDBRANCH   1   4
BRANCH   1  19
ATOM     19  C   UNL     1       7.223   6.729  17.232  0.00  0.00    +0.000 C 
ATOM     20  O   UNL     1       7.634   6.709  16.069  0.00  0.00    +0.000 OA
ATOM     21  N   UNL     1       7.330   7.869  18.025  0.00  0.00    +0.000 N 
ATOM     22  H   UNL     1       6.597   8.075  18.696  0.00  0.00    +0.000 HD
BRANCH  21  23
ATOM     23  N   UNL     1       7.848   9.015  17.350  0.00  0.00    +0.000 N 
ATOM     24  H   UNL     1       8.395   8.722  16.531  0.00  0.00    +0.000 HD
BRANCH  23  25
ATOM     25  C   UNL     1       8.558   9.964  18.137  0.00  0.00    +0.000 A 
ATOM     26  C   UNL     1       8.573  11.308  17.721  0.00  0.00    +0.000 A 
ATOM     27  C   UNL     1       9.088  12.328  18.540  0.00  0.00    +0.000 A 
ATOM     28  C   UNL     1       9.582  12.027  19.801  0.00  0.00    +0.000 A 
ATOM     29  C   UNL     1       9.582  10.701  20.231  0.00  0.00    +0.000 A 
ATOM     30  C   UNL     1       9.078   9.679  19.408  0.00  0.00    +0.000 A 
ENDBRANCH  23  25
ENDBRANCH  21  23
ENDBRANCH   1  19
BRANCH   1  31
ATOM     31  C   UNL     1       6.770   4.185  17.108  0.00  0.00    +0.000 C 
BRANCH  31  32
ATOM     32  C   UNL     1       5.558   3.671  16.305  0.00  0.00    +0.000 C 
BRANCH  32  33
ATOM     33  C   UNL     1       5.405   4.141  14.854  0.00  0.00    +0.000 C 
BRANCH  33  34
ATOM     34  C   UNL     1       6.643   3.996  13.969  0.00  0.00    +0.000 C 
BRANCH  34  35
ATOM     35  N   UNL     1       6.344   3.330  12.710  0.00  0.00    +0.000 NA
ATOM     36  H   UNL     1       5.618   2.626  12.844  0.00  0.00    +0.000 HD
ATOM     37  H   UNL     1       7.168   2.810  12.409  0.00  0.00    +0.000 HD
ENDBRANCH  34  35
ENDBRANCH  33  34
ENDBRANCH  32  33
ENDBRANCH  31  32
ENDBRANCH   1  31
TORSDOF 14
ENDMDL
MODEL 9
REMARK VINA RESULT:      -7.2      1.070      1.227
REMARK  Name = 
REMARK  18 active torsions:
REMARK  status: ('A' for Active; 'I' for Inactive)
REMARK    1  A    between atoms: C_1  and  N_2
REMARK    2  A    between atoms: N_2  and  C_3
REMARK    3  A    between atoms: C_3  and  C_4
REMARK    4  A    between atoms: C_3  and  C_5
REMARK    5  A    between atoms: N_7  and  C_8
REMARK    6  A    between atoms: C_8  and  C_9
REMARK    7  A    between atoms: C_8  and  C_28
REMARK    8  A    between atoms: N_11  and  C_12
REMARK    9  A    between atoms: C_12  and  C_13
REMARK   10  A    between atoms: C_12  and  C_18
REMARK   11  A    between atoms: C_13  and  C_14
REMARK   12  A    between atoms: C_14  and  C_15
REMARK   13  A    between atoms: C_15  and  C_16
REMARK   14  A    between atoms: C_16  and  N_17
REMARK   15  A    between atoms: N_20  and  N_21
REMARK   16  A    between atoms: N_21  and  C_22
REMARK   17  A    between atoms: C_28  and  C_29
REMARK   18  A    between atoms: C_28  and  C_30
REMARK                            x       y       z     vdW  Elec       q    Type
REMARK                         _______ _______ _______ _____ _____    ______ ____
ROOT
ATOM      1  C   UNL     1       7.099   6.159  18.193  0.00  0.00    +0.000 C 
ENDROOT
BRANCH   1   4
ATOM      2  C   UNL     1       5.065   5.208  19.323  0.00  0.00    +0.000 C 
ATOM      3  O   UNL     1       5.699   4.534  20.116  0.00  0.00    +0.000 OA
ATOM      4  N   UNL     1       5.665   5.952  18.342  0.00  0.00    +0.000 N 
ATOM      5  H   UNL     1       5.055   6.447  17.704  0.00  0.00    +0.000 HD
BRANCH   2   6
ATOM      6  C   UNL     1       3.515   5.124  19.182  0.00  0.00    +0.000 C 
BRANCH   6   9
ATOM      7  C   UNL     1       2.056   7.175  19.665  0.00  0.00    +0.000 C 
ATOM      8  O   UNL     1       1.696   6.779  20.773  0.00  0.00    +0.000 OA
ATOM      9  N   UNL     1       2.931   6.460  18.876  0.00  0.00    +0.000 N 
ATOM     10  H   UNL     1       3.240   6.924  18.027  0.00  0.00    +0.000 HD
BRANCH   7  11
ATOM     11  C   UNL     1       1.464   8.471  19.057  0.00  0.00    +0.000 C 
ATOM     12  C   UNL     1       2.361   9.006  17.942  0.00  0.00    +0.000 C 
BRANCH  11  14
ATOM     13  C   UNL     1      -0.117   9.989  20.116  0.00  0.00    +0.000 C 
ATOM     14  N   UNL     1       1.254   9.475  20.127  0.00  0.00    +0.000 NA
ATOM     15  H   UNL     1       1.403   9.005  21.023  0.00  0.00    +0.000 HD
ENDBRANCH  11  14
ENDBRANCH   7  11
ENDBRANCH   6   9
BRANCH   6  16
ATOM     16  C   UNL     1       3.146   4.009  18.167  0.00  0.00    +0.000 C 
ATOM     17  C   UNL     1       3.331   2.598  18.746  0.00  0.00    +0.000 C 
ATOM     18  C   UNL     1       1.711   4.148  17.655  0.00  0.00    +0.000 C 
ENDBRANCH   6  16
ENDBRANCH   2   6
ENDBRANCH   1   4
BRANCH   1  19
ATOM     19  C   UNL     1       7.405   7.612  17.735  0.00  0.00    +0.000 C 
ATOM     20  O   UNL     1       6.853   8.122  16.758  0.00  0.00    +0.000 OA
ATOM     21  N   UNL     1       8.374   8.294  18.467  0.00  0.00    +0.000 N 
ATOM     22  H   UNL     1       8.430   8.149  19.469  0.00  0.00    +0.000 HD
BRANCH  21  23
ATOM     23  N   UNL     1       8.585   9.645  18.056  0.00  0.00    +0.000 N 
ATOM     24  H   UNL     1       8.812   9.675  17.054  0.00  0.00    +0.000 HD
BRANCH  23  25
ATOM     25  C   UNL     1       9.502  10.418  18.820  0.00  0.00    +0.000 A 
ATOM     26  C   UNL     1      10.524  11.113  18.146  0.00  0.00    +0.000 A 
ATOM     27  C   UNL     1      11.345  12.042  18.806  0.00  0.00    +0.000 A 
ATOM     28  C   UNL     1      11.148  12.312  20.153  0.00  0.00    +0.000 A 
ATOM     29  C   UNL     1      10.145  11.632  20.842  0.00  0.00    +0.000 A 
ATOM     30  C   UNL     1       9.331  10.693  20.184  0.00  0.00    +0.000 A 
ENDBRANCH  23  25
ENDBRANCH  21  23
ENDBRANCH   1  19
BRANCH   1  31
ATOM     31  C   UNL     1       7.626   5.081  17.241  0.00  0.00    +0.000 C 
BRANCH  31  32
ATOM     32  C   UNL     1       6.637   4.005  16.750  0.00  0.00    +0.000 C 
BRANCH  32  33
ATOM     33  C   UNL     1       6.241   4.013  15.269  0.00  0.00    +0.000 C 
BRANCH  33  34
ATOM     34  C   UNL     1       6.245   5.379  14.582  0.00  0.00    +0.000 C 
BRANCH  34  35
ATOM     35  N   UNL     1       5.250   6.281  15.144  0.00  0.00    +0.000 NA
ATOM     36  H   UNL     1       5.656   6.831  15.901  0.00  0.00    +0.000 HD
ATOM     37  H   UNL     1       4.514   5.726  15.582  0.00  0.00    +0.000 HD
ENDBRANCH  34  35
ENDBRANCH  33  34
ENDBRANCH  32  33
ENDBRANCH  31  32
ENDBRANCH   1  31
TORSDOF 14
ENDMDL
