MODEL 1
REMARK VINA RESULT:      -7.7      0.000      0.000
REMARK  Name = 
REMARK  9 active torsions:
REMARK  status: ('A' for Active; 'I' for Inactive)
REMARK    1  A    between atoms: N_1  and  C_2
REMARK    2  A    between atoms: C_2  and  C_3
REMARK    3  A    between atoms: C_2  and  C_7
REMARK    4  A    between atoms: C_3  and  C_4
REMARK    5  A    between atoms: C_4  and  O_6
REMARK    6  A    between atoms: N_9  and  C_10
REMARK    7  A    between atoms: C_13  and  O_14
REMARK    8  A    between atoms: O_14  and  C_15
REMARK    9  A    between atoms: C_15  and  C_16
REMARK                            x       y       z     vdW  Elec       q    Type
REMARK                         _______ _______ _______ _____ _____    ______ ____
ROOT
ATOM      1  C   UNL     1       6.413   5.311  18.348  0.00  0.00    +0.000 A 
ATOM      2  C   UNL     1       7.542   5.635  19.101  0.00  0.00    +0.000 A 
ATOM      3  C   UNL     1       8.194   6.850  18.928  0.00  0.00    +0.000 A 
ATOM      4  C   UNL     1       7.761   7.749  17.962  0.00  0.00    +0.000 A 
ATOM      5  C   UNL     1       6.614   7.456  17.223  0.00  0.00    +0.000 A 
ATOM      6  C   UNL     1       5.950   6.231  17.403  0.00  0.00    +0.000 A 
ENDROOT
BRANCH   1   9
ATOM      7  C   UNL     1       4.502   3.892  19.047  0.00  0.00    +0.000 C 
ATOM      8  O   UNL     1       3.694   4.779  19.339  0.00  0.00    +0.000 OA
ATOM      9  N   UNL     1       5.758   4.072  18.497  0.00  0.00    +0.000 N 
ATOM     10  H   UNL     1       6.241   3.227  18.209  0.00  0.00    +0.000 HD
BRANCH   7  11
ATOM     11  C   UNL     1       4.102   2.422  19.256  0.00  0.00    +0.000 C 
BRANCH  11  12
ATOM     12  N   UNL     1       5.002   1.754  20.217  0.00  0.00    +0.000 NA
ATOM     13  H   UNL     1       5.896   2.255  20.233  0.00  0.00    +0.000 HD
ATOM     14  H   UNL     1       5.256   0.826  19.857  0.00  0.00    +0.000 HD
ENDBRANCH  11  12
BRANCH  11  15
ATOM     15  C   UNL     1       2.615   2.357  19.619  0.00  0.00    +0.000 C 
BRANCH  15  16
ATOM     16  C   UNL     1       2.340   2.818  21.028  0.00  0.00    +0.000 C 
ATOM     17  O   UNL     1       2.900   2.339  22.005  0.00  0.00    +0.000 OA
BRANCH  16  18
ATOM     18  O   UNL     1       1.449   3.825  21.131  0.00  0.00    +0.000 OA
ATOM     19  H   UNL     1       0.671   3.615  21.703  0.00  0.00    +0.000 HD
ENDBRANCH  16  18
ENDBRANCH  15  16
ENDBRANCH  11  15
ENDBRANCH   7  11
ENDBRANCH   1   9
BRANCH   4  20
ATOM     20  O   UNL     1       8.415   8.916  17.662  0.00  0.00    +0.000 OA
BRANCH  20  21
ATOM     21  C   UNL     1       8.952   9.582  18.812  0.00  0.00    +0.000 C 
BRANCH  21  22
ATOM     22  C   UNL     1       9.504  10.940  18.477  0.00  0.00    +0.000 A 
ATOM     23  C   UNL     1       8.734  11.905  17.818  0.00  0.00    +0.000 A 
ATOM     24  C   UNL     1       9.275  13.161  17.546  0.00  0.00    +0.000 A 
ATOM     25  C   UNL     1      10.577  13.469  17.938  0.00  0.00    +0.000 A 
ATOM     26  C   UNL     1      11.343  12.524  18.617  0.00  0.00    +0.000 A 
ATOM     27  C   UNL     1      10.804  11.270  18.892  0.00  0.00    +0.000 A 
ENDBRANCH  21  22
ENDBRANCH  20  21
ENDBRANCH   4  20
TORSDOF 9
ENDMDL
MODEL 2
REMARK VINA RESULT:      -7.6      1.139      1.750
REMARK  Name = 
REMARK  9 active torsions:
REMARK  status: ('A' for Active; 'I' for Inactive)
REMARK    1  A    between atoms: N_1  and  C_2
REMARK    2  A    between atoms: C_2  and  C_3
REMARK    3  A    between atoms: C_2  and  C_7
REMARK    4  A    between atoms: C_3  and  C_4
REMARK    5  A    between atoms: C_4  and  O_6
REMARK    6  A    between atoms: N_9  and  C_10
REMARK    7  A    between atoms: C_13  and  O_14
REMARK    8  A    between atoms: O_14  and  C_15
REMARK    9  A    between atoms: C_15  and  C_16
REMARK                            x       y       z     vdW  Elec       q    Type
REMARK                         _______ _______ _______ _____ _____    ______ ____
ROOT
ATOM      1  C   UNL     1       6.431   5.299  18.172  0.00  0.00    +0.000 A 
ATOM      2  C   UNL     1       5.978   6.210  17.216  0.00  0.00    +0.000 A 
ATOM      3  C   UNL     1       6.623   7.425  17.022  0.00  0.00    +0.000 A 
ATOM      4  C   UNL     1       7.707   7.781  17.816  0.00  0.00    +0.000 A 
ATOM      5  C   UNL     1       8.193   6.869  18.753  0.00  0.00    +0.000 A 
ATOM      6  C   UNL     1       7.546   5.636  18.944  0.00  0.00    +0.000 A 
ENDROOT
BRANCH   1   9
ATOM      7  C   UNL     1       4.668   3.895  19.206  0.00  0.00    +0.000 C 
ATOM      8  O   UNL     1       3.990   4.783  19.731  0.00  0.00    +0.000 OA
ATOM      9  N   UNL     1       5.772   4.074  18.393  0.00  0.00    +0.000 N 
ATOM     10  H   UNL     1       6.136   3.237  17.950  0.00  0.00    +0.000 HD
BRANCH   7  11
ATOM     11  C   UNL     1       4.260   2.426  19.412  0.00  0.00    +0.000 C 
BRANCH  11  12
ATOM     12  N   UNL     1       5.141   1.757  20.391  0.00  0.00    +0.000 NA
ATOM     13  H   UNL     1       4.636   0.964  20.797  0.00  0.00    +0.000 HD
ATOM     14  H   UNL     1       5.291   2.380  21.194  0.00  0.00    +0.000 HD
ENDBRANCH  11  12
BRANCH  11  15
ATOM     15  C   UNL     1       2.767   2.367  19.750  0.00  0.00    +0.000 C 
BRANCH  15  16
ATOM     16  C   UNL     1       1.888   2.549  18.538  0.00  0.00    +0.000 C 
ATOM     17  O   UNL     1       0.999   3.388  18.482  0.00  0.00    +0.000 OA
BRANCH  16  18
ATOM     18  O   UNL     1       2.176   1.735  17.502  0.00  0.00    +0.000 OA
ATOM     19  H   UNL     1       1.433   1.137  17.243  0.00  0.00    +0.000 HD
ENDBRANCH  16  18
ENDBRANCH  15  16
ENDBRANCH  11  15
ENDBRANCH   7  11
ENDBRANCH   1   9
BRANCH   4  20
ATOM     20  O   UNL     1       8.324   9.003  17.755  0.00  0.00    +0.000 OA
BRANCH  20  21
ATOM     21  C   UNL     1       8.925   9.402  18.994  0.00  0.00    +0.000 C 
BRANCH  21  22
ATOM     22  C   UNL     1       9.478  10.799  18.934  0.00  0.00    +0.000 A 
ATOM     23  C   UNL     1       9.104  11.696  17.928  0.00  0.00    +0.000 A 
ATOM     24  C   UNL     1       9.622  12.991  17.920  0.00  0.00    +0.000 A 
ATOM     25  C   UNL     1      10.503  13.404  18.919  0.00  0.00    +0.000 A 
ATOM     26  C   UNL     1      10.862  12.527  19.940  0.00  0.00    +0.000 A 
ATOM     27  C   UNL     1      10.344  11.234  19.951  0.00  0.00    +0.000 A 
ENDBRANCH  21  22
ENDBRANCH  20  21
ENDBRANCH   4  20
TORSDOF 9
ENDMDL
MODEL 3
REMARK VINA RESULT:      -7.6      0.787      1.699
REMARK  Name = 
REMARK  9 active torsions:
REMARK  status: ('A' for Active; 'I' for Inactive)
REMARK    1  A    between atoms: N_1  and  C_2
REMARK    2  A    between atoms: C_2  and  C_3
REMARK    3  A    between atoms: C_2  and  C_7
REMARK    4  A    between atoms: C_3  and  C_4
REMARK    5  A    between atoms: C_4  and  O_6
REMARK    6  A    between atoms: N_9  and  C_10
REMARK    7  A    between atoms: C_13  and  O_14
REMARK    8  A    between atoms: O_14  and  C_15
REMARK    9  A    between atoms: C_15  and  C_16
REMARK                            x       y       z     vdW  Elec       q    Type
REMARK                         _______ _______ _______ _____ _____    ______ ____
ROOT
ATOM      1  C   UNL     1       6.294   5.218  18.219  0.00  0.00    +0.000 A 
ATOM      2  C   UNL     1       5.852   6.045  17.185  0.00  0.00    +0.000 A 
ATOM      3  C   UNL     1       6.504   7.235  16.891  0.00  0.00    +0.000 A 
ATOM      4  C   UNL     1       7.585   7.654  17.658  0.00  0.00    +0.000 A 
ATOM      5  C   UNL     1       8.060   6.825  18.674  0.00  0.00    +0.000 A 
ATOM      6  C   UNL     1       7.406   5.616  18.966  0.00  0.00    +0.000 A 
ENDROOT
BRANCH   1   9
ATOM      7  C   UNL     1       4.485   3.923  19.316  0.00  0.00    +0.000 C 
ATOM      8  O   UNL     1       3.781   4.859  19.706  0.00  0.00    +0.000 OA
ATOM      9  N   UNL     1       5.627   4.020  18.542  0.00  0.00    +0.000 N 
ATOM     10  H   UNL     1       6.015   3.142  18.211  0.00  0.00    +0.000 HD
BRANCH   7  11
ATOM     11  C   UNL     1       4.070   2.483  19.662  0.00  0.00    +0.000 C 
BRANCH  11  12
ATOM     12  N   UNL     1       5.208   1.713  20.205  0.00  0.00    +0.000 NA
ATOM     13  H   UNL     1       4.963   1.386  21.144  0.00  0.00    +0.000 HD
ATOM     14  H   UNL     1       5.999   2.348  20.373  0.00  0.00    +0.000 HD
ENDBRANCH  11  12
BRANCH  11  15
ATOM     15  C   UNL     1       2.836   2.524  20.568  0.00  0.00    +0.000 C 
BRANCH  15  16
ATOM     16  C   UNL     1       1.545   2.583  19.790  0.00  0.00    +0.000 C 
ATOM     17  O   UNL     1       1.430   2.130  18.659  0.00  0.00    +0.000 OA
BRANCH  16  18
ATOM     18  O   UNL     1       0.512   3.147  20.449  0.00  0.00    +0.000 OA
ATOM     19  H   UNL     1      -0.014   3.780  19.901  0.00  0.00    +0.000 HD
ENDBRANCH  16  18
ENDBRANCH  15  16
ENDBRANCH  11  15
ENDBRANCH   7  11
ENDBRANCH   1   9
BRANCH   4  20
ATOM     20  O   UNL     1       8.209   8.864  17.495  0.00  0.00    +0.000 OA
BRANCH  20  21
ATOM     21  C   UNL     1       8.810   9.362  18.697  0.00  0.00    +0.000 C 
BRANCH  21  22
ATOM     22  C   UNL     1       9.343  10.759  18.530  0.00  0.00    +0.000 A 
ATOM     23  C   UNL     1      10.607  11.126  19.004  0.00  0.00    +0.000 A 
ATOM     24  C   UNL     1      11.075  12.425  18.809  0.00  0.00    +0.000 A 
ATOM     25  C   UNL     1      10.295  13.360  18.131  0.00  0.00    +0.000 A 
ATOM     26  C   UNL     1       9.046  12.998  17.633  0.00  0.00    +0.000 A 
ATOM     27  C   UNL     1       8.577  11.701  17.824  0.00  0.00    +0.000 A 
ENDBRANCH  21  22
ENDBRANCH  20  21
ENDBRANCH   4  20
TORSDOF 9
ENDMDL
MODEL 4
REMARK VINA RESULT:      -7.5      0.900      1.418
REMARK  Name = 
REMARK  9 active torsions:
REMARK  status: ('A' for Active; 'I' for Inactive)
REMARK    1  A    between atoms: N_1  and  C_2
REMARK    2  A    between atoms: C_2  and  C_3
REMARK    3  A    between atoms: C_2  and  C_7
REMARK    4  A    between atoms: C_3  and  C_4
REMARK    5  A    between atoms: C_4  and  O_6
REMARK    6  A    between atoms: N_9  and  C_10
REMARK    7  A    between atoms: C_13  and  O_14
REMARK    8  A    between atoms: O_14  and  C_15
REMARK    9  A    between atoms: C_15  and  C_16
REMARK                            x       y       z     vdW  Elec       q    Type
REMARK                         _______ _______ _______ _____ _____    ______ ____
ROOT
ATOM      1  C   UNL     1       6.325   5.201  18.626  0.00  0.00    +0.000 A 
ATOM      2  C   UNL     1       5.704   6.004  17.668  0.00  0.00    +0.000 A 
ATOM      3  C   UNL     1       6.297   7.181  17.228  0.00  0.00    +0.000 A 
ATOM      4  C   UNL     1       7.501   7.609  17.773  0.00  0.00    +0.000 A 
ATOM      5  C   UNL     1       8.151   6.802  18.707  0.00  0.00    +0.000 A 
ATOM      6  C   UNL     1       7.556   5.607  19.147  0.00  0.00    +0.000 A 
ENDROOT
BRANCH   1   9
ATOM      7  C   UNL     1       4.551   3.467  18.611  0.00  0.00    +0.000 C 
ATOM      8  O   UNL     1       3.940   3.819  17.598  0.00  0.00    +0.000 OA
ATOM      9  N   UNL     1       5.723   4.017  19.097  0.00  0.00    +0.000 N 
ATOM     10  H   UNL     1       6.154   3.527  19.875  0.00  0.00    +0.000 HD
BRANCH   7  11
ATOM     11  C   UNL     1       4.022   2.274  19.424  0.00  0.00    +0.000 C 
BRANCH  11  12
ATOM     12  N   UNL     1       5.129   1.502  20.026  0.00  0.00    +0.000 NA
ATOM     13  H   UNL     1       5.711   1.123  19.272  0.00  0.00    +0.000 HD
ATOM     14  H   UNL     1       4.750   0.662  20.479  0.00  0.00    +0.000 HD
ENDBRANCH  11  12
BRANCH  11  15
ATOM     15  C   UNL     1       2.976   2.777  20.423  0.00  0.00    +0.000 C 
BRANCH  15  16
ATOM     16  C   UNL     1       1.563   2.576  19.937  0.00  0.00    +0.000 C 
ATOM     17  O   UNL     1       1.296   2.010  18.886  0.00  0.00    +0.000 OA
BRANCH  16  18
ATOM     18  O   UNL     1       0.607   3.041  20.768  0.00  0.00    +0.000 OA
ATOM     19  H   UNL     1       0.907   3.147  21.703  0.00  0.00    +0.000 HD
ENDBRANCH  16  18
ENDBRANCH  15  16
ENDBRANCH  11  15
ENDBRANCH   7  11
ENDBRANCH   1   9
BRANCH   4  20
ATOM     20  O   UNL     1       8.090   8.809  17.467  0.00  0.00    +0.000 OA
BRANCH  20  21
ATOM     21  C   UNL     1       8.743   9.426  18.584  0.00  0.00    +0.000 C 
BRANCH  21  22
ATOM     22  C   UNL     1       9.270  10.795  18.250  0.00  0.00    +0.000 A 
ATOM     23  C   UNL     1       8.433  11.808  17.772  0.00  0.00    +0.000 A 
ATOM     24  C   UNL     1       8.956  13.071  17.495  0.00  0.00    +0.000 A 
ATOM     25  C   UNL     1      10.308  13.336  17.705  0.00  0.00    +0.000 A 
ATOM     26  C   UNL     1      11.145  12.341  18.204  0.00  0.00    +0.000 A 
ATOM     27  C   UNL     1      10.625  11.080  18.483  0.00  0.00    +0.000 A 
ENDBRANCH  21  22
ENDBRANCH  20  21
ENDBRANCH   4  20
TORSDOF 9
ENDMDL
MODEL 5
REMARK VINA RESULT:      -7.5      1.280      1.797
REMARK  Name = 
REMARK  9 active torsions:
REMARK  status: ('A' for Active; 'I' for Inactive)
REMARK    1  A    between atoms: N_1  and  C_2
REMARK    2  A    between atoms: C_2  and  C_3
REMARK    3  A    between atoms: C_2  and  C_7
REMARK    4  A    between atoms: C_3  and  C_4
REMARK    5  A    between atoms: C_4  and  O_6
REMARK    6  A    between atoms: N_9  and  C_10
REMARK    7  A    between atoms: C_13  and  O_14
REMARK    8  A    between atoms: O_14  and  C_15
REMARK    9  A    between atoms: C_15  and  C_16
REMARK                            x       y       z     vdW  Elec       q    Type
REMARK                         _______ _______ _______ _____ _____    ______ ____
ROOT
ATOM      1  C   UNL     1       5.448   5.435  18.193  0.00  0.00    +0.000 A 
ATOM      2  C   UNL     1       5.437   6.508  17.300  0.00  0.00    +0.000 A 
ATOM      3  C   UNL     1       6.510   7.387  17.225  0.00  0.00    +0.000 A 
ATOM      4  C   UNL     1       7.598   7.245  18.078  0.00  0.00    +0.000 A 
ATOM      5  C   UNL     1       7.639   6.160  18.953  0.00  0.00    +0.000 A 
ATOM      6  C   UNL     1       6.558   5.265  19.024  0.00  0.00    +0.000 A 
ENDROOT
BRANCH   1   9
ATOM      7  C   UNL     1       3.327   4.651  19.213  0.00  0.00    +0.000 C 
ATOM      8  O   UNL     1       3.109   5.601  19.971  0.00  0.00    +0.000 OA
ATOM      9  N   UNL     1       4.356   4.550  18.295  0.00  0.00    +0.000 N 
ATOM     10  H   UNL     1       4.316   3.752  17.669  0.00  0.00    +0.000 HD
BRANCH   7  11
ATOM     11  C   UNL     1       2.363   3.453  19.223  0.00  0.00    +0.000 C 
BRANCH  11  12
ATOM     12  N   UNL     1       3.099   2.172  19.209  0.00  0.00    +0.000 NA
ATOM     13  H   UNL     1       2.990   1.722  20.123  0.00  0.00    +0.000 HD
ATOM     14  H   UNL     1       4.107   2.360  19.154  0.00  0.00    +0.000 HD
ENDBRANCH  11  12
BRANCH  11  15
ATOM     15  C   UNL     1       1.381   3.614  20.388  0.00  0.00    +0.000 C 
BRANCH  15  16
ATOM     16  C   UNL     1       1.795   2.833  21.610  0.00  0.00    +0.000 C 
ATOM     17  O   UNL     1       2.962   2.709  21.955  0.00  0.00    +0.000 OA
BRANCH  16  18
ATOM     18  O   UNL     1       0.775   2.305  22.317  0.00  0.00    +0.000 OA
ATOM     19  H   UNL     1      -0.119   2.568  21.987  0.00  0.00    +0.000 HD
ENDBRANCH  16  18
ENDBRANCH  15  16
ENDBRANCH  11  15
ENDBRANCH   7  11
ENDBRANCH   1   9
BRANCH   4  20
ATOM     20  O   UNL     1       8.640   8.134  18.135  0.00  0.00    +0.000 OA
BRANCH  20  21
ATOM     21  C   UNL     1       8.221   9.505  18.158  0.00  0.00    +0.000 C 
BRANCH  21  22
ATOM     22  C   UNL     1       9.296  10.420  18.677  0.00  0.00    +0.000 A 
ATOM     23  C   UNL     1      10.197  11.057  17.817  0.00  0.00    +0.000 A 
ATOM     24  C   UNL     1      11.166  11.916  18.335  0.00  0.00    +0.000 A 
ATOM     25  C   UNL     1      11.235  12.156  19.707  0.00  0.00    +0.000 A 
ATOM     26  C   UNL     1      10.327  11.545  20.568  0.00  0.00    +0.000 A 
ATOM     27  C   UNL     1       9.357  10.689  20.053  0.00  0.00    +0.000 A 
ENDBRANCH  21  22
ENDBRANCH  20  21
ENDBRANCH   4  20
TORSDOF 9
ENDMDL
MODEL 6
REMARK VINA RESULT:      -7.4      1.726      2.302
REMARK  Name = 
REMARK  9 active torsions:
REMARK  status: ('A' for Active; 'I' for Inactive)
REMARK    1  A    between atoms: N_1  and  C_2
REMARK    2  A    between atoms: C_2  and  C_3
REMARK    3  A    between atoms: C_2  and  C_7
REMARK    4  A    between atoms: C_3  and  C_4
REMARK    5  A    between atoms: C_4  and  O_6
REMARK    6  A    between atoms: N_9  and  C_10
REMARK    7  A    between atoms: C_13  and  O_14
REMARK    8  A    between atoms: O_14  and  C_15
REMARK    9  A    between atoms: C_15  and  C_16
REMARK                            x       y       z     vdW  Elec       q    Type
REMARK                         _______ _______ _______ _____ _____    ______ ____
ROOT
ATOM      1  C   UNL     1       5.565   5.556  18.455  0.00  0.00    +0.000 A 
ATOM      2  C   UNL     1       5.404   6.602  17.545  0.00  0.00    +0.000 A 
ATOM      3  C   UNL     1       6.435   7.500  17.296  0.00  0.00    +0.000 A 
ATOM      4  C   UNL     1       7.634   7.404  17.991  0.00  0.00    +0.000 A 
ATOM      5  C   UNL     1       7.823   6.346  18.880  0.00  0.00    +0.000 A 
ATOM      6  C   UNL     1       6.784   5.432  19.125  0.00  0.00    +0.000 A 
ENDROOT
BRANCH   1   9
ATOM      7  C   UNL     1       3.905   3.831  17.805  0.00  0.00    +0.000 C 
ATOM      8  O   UNL     1       4.269   3.634  16.642  0.00  0.00    +0.000 OA
ATOM      9  N   UNL     1       4.519   4.653  18.732  0.00  0.00    +0.000 N 
ATOM     10  H   UNL     1       4.155   4.605  19.678  0.00  0.00    +0.000 HD
BRANCH   7  11
ATOM     11  C   UNL     1       2.673   3.079  18.337  0.00  0.00    +0.000 C 
BRANCH  11  12
ATOM     12  N   UNL     1       2.169   2.108  17.345  0.00  0.00    +0.000 NA
ATOM     13  H   UNL     1       2.907   1.425  17.151  0.00  0.00    +0.000 HD
ATOM     14  H   UNL     1       2.038   2.580  16.443  0.00  0.00    +0.000 HD
ENDBRANCH  11  12
BRANCH  11  15
ATOM     15  C   UNL     1       3.009   2.480  19.706  0.00  0.00    +0.000 C 
BRANCH  15  16
ATOM     16  C   UNL     1       4.290   1.685  19.695  0.00  0.00    +0.000 C 
ATOM     17  O   UNL     1       5.221   1.915  20.455  0.00  0.00    +0.000 OA
BRANCH  16  18
ATOM     18  O   UNL     1       4.322   0.674  18.802  0.00  0.00    +0.000 OA
ATOM     19  H   UNL     1       5.233   0.424  18.514  0.00  0.00    +0.000 HD
ENDBRANCH  16  18
ENDBRANCH  15  16
ENDBRANCH  11  15
ENDBRANCH   7  11
ENDBRANCH   1   9
BRANCH   4  20
ATOM     20  O   UNL     1       8.653   8.315  17.879  0.00  0.00    +0.000 OA
BRANCH  20  21
ATOM     21  C   UNL     1       8.223   9.674  18.031  0.00  0.00    +0.000 C 
BRANCH  21  22
ATOM     22  C   UNL     1       9.287  10.541  18.646  0.00  0.00    +0.000 A 
ATOM     23  C   UNL     1      10.215  11.235  17.862  0.00  0.00    +0.000 A 
ATOM     24  C   UNL     1      11.172  12.047  18.470  0.00  0.00    +0.000 A 
ATOM     25  C   UNL     1      11.203  12.184  19.857  0.00  0.00    +0.000 A 
ATOM     26  C   UNL     1      10.268  11.517  20.645  0.00  0.00    +0.000 A 
ATOM     27  C   UNL     1       9.310  10.707  20.040  0.00  0.00    +0.000 A 
ENDBRANCH  21  22
ENDBRANCH  20  21
ENDBRANCH   4  20
TORSDOF 9
ENDMDL
MODEL 7
REMARK VINA RESULT:      -7.4      1.448      2.169
REMARK  Name = 
REMARK  9 active torsions:
REMARK  status: ('A' for Active; 'I' for Inactive)
REMARK    1  A    between atoms: N_1  and  C_2
REMARK    2  A    between atoms: C_2  and  C_3
REMARK    3  A    between atoms: C_2  and  C_7
REMARK    4  A    between atoms: C_3  and  C_4
REMARK    5  A    between atoms: C_4  and  O_6
REMARK    6  A    between atoms: N_9  and  C_10
REMARK    7  A    between atoms: C_13  and  O_14
REMARK    8  A    between atoms: O_14  and  C_15
REMARK    9  A    between atoms: C_15  and  C_16
REMARK                            x       y       z     vdW  Elec       q    Type
REMARK                         _______ _______ _______ _____ _____    ______ ____
ROOT
ATOM      1  C   UNL     1       5.901   5.313  18.407  0.00  0.00    +0.000 A 
ATOM      2  C   UNL     1       5.622   6.229  17.392  0.00  0.00    +0.000 A 
ATOM      3  C   UNL     1       6.513   7.250  17.084  0.00  0.00    +0.000 A 
ATOM      4  C   UNL     1       7.681   7.410  17.820  0.00  0.00    +0.000 A 
ATOM      5  C   UNL     1       7.990   6.484  18.816  0.00  0.00    +0.000 A 
ATOM      6  C   UNL     1       7.094   5.446  19.122  0.00  0.00    +0.000 A 
ENDROOT
BRANCH   1   9
ATOM      7  C   UNL     1       3.872   4.440  19.535  0.00  0.00    +0.000 C 
ATOM      8  O   UNL     1       3.393   5.506  19.935  0.00  0.00    +0.000 OA
ATOM      9  N   UNL     1       4.995   4.288  18.744  0.00  0.00    +0.000 N 
ATOM     10  H   UNL     1       5.177   3.347  18.409  0.00  0.00    +0.000 HD
BRANCH   7  11
ATOM     11  C   UNL     1       3.160   3.124  19.891  0.00  0.00    +0.000 C 
BRANCH  11  12
ATOM     12  N   UNL     1       3.677   2.560  21.155  0.00  0.00    +0.000 NA
ATOM     13  H   UNL     1       3.517   1.548  21.152  0.00  0.00    +0.000 HD
ATOM     14  H   UNL     1       3.097   2.890  21.937  0.00  0.00    +0.000 HD
ENDBRANCH  11  12
BRANCH  11  15
ATOM     15  C   UNL     1       1.645   3.354  19.866  0.00  0.00    +0.000 C 
BRANCH  15  16
ATOM     16  C   UNL     1       1.036   3.068  18.516  0.00  0.00    +0.000 C 
ATOM     17  O   UNL     1       1.174   3.813  17.555  0.00  0.00    +0.000 OA
BRANCH  16  18
ATOM     18  O   UNL     1       0.352   1.909  18.438  0.00  0.00    +0.000 OA
ATOM     19  H   UNL     1      -0.109   1.659  19.276  0.00  0.00    +0.000 HD
ENDBRANCH  16  18
ENDBRANCH  15  16
ENDBRANCH  11  15
ENDBRANCH   7  11
ENDBRANCH   1   9
BRANCH   4  20
ATOM     20  O   UNL     1       8.552   8.455  17.646  0.00  0.00    +0.000 OA
BRANCH  20  21
ATOM     21  C   UNL     1       8.076   9.693  18.190  0.00  0.00    +0.000 C 
BRANCH  21  22
ATOM     22  C   UNL     1       9.192  10.542  18.732  0.00  0.00    +0.000 A 
ATOM     23  C   UNL     1       9.348  10.763  20.104  0.00  0.00    +0.000 A 
ATOM     24  C   UNL     1      10.410  11.538  20.569  0.00  0.00    +0.000 A 
ATOM     25  C   UNL     1      11.328  12.086  19.675  0.00  0.00    +0.000 A 
ATOM     26  C   UNL     1      11.196  11.852  18.308  0.00  0.00    +0.000 A 
ATOM     27  C   UNL     1      10.138  11.076  17.841  0.00  0.00    +0.000 A 
ENDBRANCH  21  22
ENDBRANCH  20  21
ENDBRANCH   4  20
TORSDOF 9
ENDMDL
MODEL 8
REMARK VINA RESULT:      -7.3      1.685      2.088
REMARK  Name = 
REMARK  9 active torsions:
REMARK  status: ('A' for Active; 'I' for Inactive)
REMARK    1  A    between atoms: N_1  and  C_2
REMARK    2  A    between atoms: C_2  and  C_3
REMARK    3  A    between atoms: C_2  and  C_7
REMARK    4  A    between atoms: C_3  and  C_4
REMARK    5  A    between atoms: C_4  and  O_6
REMARK    6  A    between atoms: N_9  and  C_10
REMARK    7  A    between atoms: C_13  and  O_14
REMARK    8  A    between atoms: O_14  and  C_15
REMARK    9  A    between atoms: C_15  and  C_16
REMARK                            x       y       z     vdW  Elec       q    Type
REMARK                         _______ _______ _______ _____ _____    ______ ____
ROOT
ATOM      1  C   UNL     1       5.831   5.212  18.194  0.00  0.00    +0.000 A 
ATOM      2  C   UNL     1       5.749   6.324  17.355  0.00  0.00    +0.000 A 
ATOM      3  C   UNL     1       6.720   7.317  17.385  0.00  0.00    +0.000 A 
ATOM      4  C   UNL     1       7.769   7.248  18.294  0.00  0.00    +0.000 A 
ATOM      5  C   UNL     1       7.884   6.128  19.118  0.00  0.00    +0.000 A 
ATOM      6  C   UNL     1       6.907   5.119  19.081  0.00  0.00    +0.000 A 
ENDROOT
BRANCH   1   9
ATOM      7  C   UNL     1       4.296   3.629  17.058  0.00  0.00    +0.000 C 
ATOM      8  O   UNL     1       4.694   3.767  15.897  0.00  0.00    +0.000 OA
ATOM      9  N   UNL     1       4.840   4.210  18.188  0.00  0.00    +0.000 N 
ATOM     10  H   UNL     1       4.462   3.893  19.076  0.00  0.00    +0.000 HD
BRANCH   7  11
ATOM     11  C   UNL     1       3.106   2.694  17.331  0.00  0.00    +0.000 C 
BRANCH  11  12
ATOM     12  N   UNL     1       3.521   1.516  18.120  0.00  0.00    +0.000 NA
ATOM     13  H   UNL     1       4.381   1.747  18.626  0.00  0.00    +0.000 HD
ATOM     14  H   UNL     1       3.814   0.766  17.482  0.00  0.00    +0.000 HD
ENDBRANCH  11  12
BRANCH  11  15
ATOM     15  C   UNL     1       1.965   3.508  17.950  0.00  0.00    +0.000 C 
BRANCH  15  16
ATOM     16  C   UNL     1       1.164   2.717  18.953  0.00  0.00    +0.000 C 
ATOM     17  O   UNL     1       1.306   2.842  20.162  0.00  0.00    +0.000 OA
BRANCH  16  18
ATOM     18  O   UNL     1       0.253   1.880  18.417  0.00  0.00    +0.000 OA
ATOM     19  H   UNL     1       0.414   0.927  18.625  0.00  0.00    +0.000 HD
ENDBRANCH  16  18
ENDBRANCH  15  16
ENDBRANCH  11  15
ENDBRANCH   7  11
ENDBRANCH   1   9
BRANCH   4  20
ATOM     20  O   UNL     1       8.701   8.240  18.455  0.00  0.00    +0.000 OA
BRANCH  20  21
ATOM     21  C   UNL     1       8.284   9.507  17.930  0.00  0.00    +0.000 C 
BRANCH  21  22
ATOM     22  C   UNL     1       9.031  10.655  18.552  0.00  0.00    +0.000 A 
ATOM     23  C   UNL     1       9.163  11.886  17.901  0.00  0.00    +0.000 A 
ATOM     24  C   UNL     1       9.843  12.933  18.521  0.00  0.00    +0.000 A 
ATOM     25  C   UNL     1      10.385  12.766  19.795  0.00  0.00    +0.000 A 
ATOM     26  C   UNL     1      10.238  11.552  20.462  0.00  0.00    +0.000 A 
ATOM     27  C   UNL     1       9.556  10.506  19.846  0.00  0.00    +0.000 A 
ENDBRANCH  21  22
ENDBRANCH  20  21
ENDBRANCH   4  20
TORSDOF 9
ENDMDL
MODEL 9
REMARK VINA RESULT:      -7.3      6.040      7.757
REMARK  Name = 
REMARK  9 active torsions:
REMARK  status: ('A' for Active; 'I' for Inactive)
REMARK    1  A    between atoms: N_1  and  C_2
REMARK    2  A    between atoms: C_2  and  C_3
REMARK    3  A    between atoms: C_2  and  C_7
REMARK    4  A    between atoms: C_3  and  C_4
REMARK    5  A    between atoms: C_4  and  O_6
REMARK    6  A    between atoms: N_9  and  C_10
REMARK    7  A    between atoms: C_13  and  O_14
REMARK    8  A    between atoms: O_14  and  C_15
REMARK    9  A    between atoms: C_15  and  C_16
REMARK                            x       y       z     vdW  Elec       q    Type
REMARK                         _______ _______ _______ _____ _____    ______ ____
ROOT
ATOM      1  C   UNL     1       2.521   6.738  18.803  0.00  0.00    +0.000 A 
ATOM      2  C   UNL     1       2.597   7.630  17.732  0.00  0.00    +0.000 A 
ATOM      3  C   UNL     1       2.070   8.913  17.830  0.00  0.00    +0.000 A 
ATOM      4  C   UNL     1       1.408   9.315  18.983  0.00  0.00    +0.000 A 
ATOM      5  C   UNL     1       1.351   8.448  20.074  0.00  0.00    +0.000 A 
ATOM      6  C   UNL     1       1.892   7.154  19.979  0.00  0.00    +0.000 A 
ENDROOT
BRANCH   1   9
ATOM      7  C   UNL     1       2.406   4.370  18.075  0.00  0.00    +0.000 C 
ATOM      8  O   UNL     1       1.401   4.431  17.360  0.00  0.00    +0.000 OA
ATOM      9  N   UNL     1       3.031   5.428  18.708  0.00  0.00    +0.000 N 
ATOM     10  H   UNL     1       3.916   5.216  19.158  0.00  0.00    +0.000 HD
BRANCH   7  11
ATOM     11  C   UNL     1       3.094   3.010  18.277  0.00  0.00    +0.000 C 
BRANCH  11  12
ATOM     12  N   UNL     1       4.494   3.178  18.717  0.00  0.00    +0.000 NA
ATOM     13  H   UNL     1       5.079   3.344  17.893  0.00  0.00    +0.000 HD
ATOM     14  H   UNL     1       4.845   2.284  19.082  0.00  0.00    +0.000 HD
ENDBRANCH  11  12
BRANCH  11  15
ATOM     15  C   UNL     1       2.232   2.147  19.203  0.00  0.00    +0.000 C 
BRANCH  15  16
ATOM     16  C   UNL     1       1.956   2.813  20.528  0.00  0.00    +0.000 C 
ATOM     17  O   UNL     1       2.840   3.278  21.234  0.00  0.00    +0.000 OA
BRANCH  16  18
ATOM     18  O   UNL     1       0.652   2.886  20.864  0.00  0.00    +0.000 OA
ATOM     19  H   UNL     1       0.049   3.039  20.096  0.00  0.00    +0.000 HD
ENDBRANCH  16  18
ENDBRANCH  15  16
ENDBRANCH  11  15
ENDBRANCH   7  11
ENDBRANCH   1   9
BRANCH   4  20
ATOM     20  O   UNL     1       0.771  10.523  19.111  0.00  0.00    +0.000 OA
BRANCH  20  21
ATOM     21  C   UNL     1      -0.573  10.411  19.595  0.00  0.00    +0.000 C 
BRANCH  21  22
ATOM     22  C   UNL     1      -1.588  10.578  18.497  0.00  0.00    +0.000 A 
ATOM     23  C   UNL     1      -1.501   9.861  17.299  0.00  0.00    +0.000 A 
ATOM     24  C   UNL     1      -2.474  10.026  16.315  0.00  0.00    +0.000 A 
ATOM     25  C   UNL     1      -3.546  10.894  16.522  0.00  0.00    +0.000 A 
ATOM     26  C   UNL     1      -3.656  11.593  17.721  0.00  0.00    +0.000 A 
ATOM     27  C   UNL     1      -2.686  11.428  18.707  0.00  0.00    +0.000 A 
ENDBRANCH  21  22
ENDBRANCH  20  21
ENDBRANCH   4  20
TORSDOF 9
ENDMDL
