MODEL 1
REMARK VINA RESULT:      -9.8      0.000      0.000
REMARK  Name = 
REMARK  12 active torsions:
REMARK  status: ('A' for Active; 'I' for Inactive)
REMARK    1  A    between atoms: C_1  and  C_2
REMARK    2  A    between atoms: C_2  and  C_3
REMARK    3  A    between atoms: C_2  and  C_4
REMARK    4  A    between atoms: C_2  and  C_5
REMARK    5  A    between atoms: C_8  and  C_9
REMARK    6  A    between atoms: C_9  and  C_10
REMARK    7  A    between atoms: C_15  and  C_16
REMARK    8  A    between atoms: C_15  and  C_17
REMARK    9  A    between atoms: N_19  and  S_20
REMARK   10  A    between atoms: S_20  and  C_23
REMARK   11  A    between atoms: C_27  and  O_28
REMARK   12  A    between atoms: O_28  and  C_29
REMARK                            x       y       z     vdW  Elec       q    Type
REMARK                         _______ _______ _______ _____ _____    ______ ____
ROOT
ATOM      1  C   UNL     1       2.844   5.481  19.695  0.00  0.00    +0.000 C 
ATOM      2  O   UNL     1       2.802   5.654  20.911  0.00  0.00    +0.000 OA
ATOM      3  N   UNL     1       2.686   4.242  19.131  0.00  0.00    +0.000 N 
ATOM      4  C   UNL     1       2.297   3.006  19.798  0.00  0.00    +0.000 C 
ATOM      5  C   UNL     1       3.338   2.283  18.950  0.00  0.00    +0.000 C 
ATOM      6  C   UNL     1       3.527   3.573  18.115  0.00  0.00    +0.000 C 
ATOM      7  C   UNL     1       2.782   3.570  16.776  0.00  0.00    +0.000 C 
ENDROOT
BRANCH   6   8
ATOM      8  C   UNL     1       5.033   4.039  17.954  0.00  0.00    +0.000 C 
ATOM      9  O   UNL     1       5.844   4.020  18.879  0.00  0.00    +0.000 OA
ATOM     10  N   UNL     1       5.410   4.451  16.660  0.00  0.00    +0.000 N 
ATOM     11  H   UNL     1       4.767   4.465  15.870  0.00  0.00    +0.000 HD
BRANCH  10  12
ATOM     12  S   UNL     1       6.958   4.950  16.274  0.00  0.00    +0.000 S 
ATOM     13  O   UNL     1       6.989   6.377  16.512  0.00  0.00    +0.000 OA
ATOM     14  O   UNL     1       7.927   4.072  16.886  0.00  0.00    +0.000 OA
BRANCH  12  15
ATOM     15  C   UNL     1       6.966   4.701  14.513  0.00  0.00    +0.000 A 
ATOM     16  C   UNL     1       7.782   5.499  13.709  0.00  0.00    +0.000 A 
ATOM     17  C   UNL     1       7.808   5.284  12.334  0.00  0.00    +0.000 A 
ATOM     18  C   UNL     1       7.011   4.286  11.775  0.00  0.00    +0.000 A 
ATOM     19  C   UNL     1       6.196   3.482  12.579  0.00  0.00    +0.000 A 
ATOM     20  C   UNL     1       6.154   3.702  13.955  0.00  0.00    +0.000 A 
BRANCH  19  21
ATOM     21  O   UNL     1       5.467   2.550  11.900  0.00  0.00    +0.000 OA
BRANCH  21  22
ATOM     22  C   UNL     1       6.201   1.638  11.100  0.00  0.00    +0.000 C 
ATOM     23  F   UNL     1       7.519   1.776  11.376  0.00  0.00    +0.000 F 
ATOM     24  F   UNL     1       5.844   0.388  11.489  0.00  0.00    +0.000 F 
ENDBRANCH  21  22
ENDBRANCH  19  21
ENDBRANCH  12  15
ENDBRANCH  10  12
ENDBRANCH   6   8
BRANCH   1  25
ATOM     25  C   UNL     1       3.050   6.634  18.726  0.00  0.00    +0.000 C 
BRANCH  25  29
ATOM     26  C   UNL     1       0.350  10.022  19.223  0.00  0.00    +0.000 A 
ATOM     27  C   UNL     1       0.755   9.249  20.322  0.00  0.00    +0.000 A 
ATOM     28  C   UNL     1       1.619   8.159  20.173  0.00  0.00    +0.000 A 
ATOM     29  C   UNL     1       2.091   7.785  18.913  0.00  0.00    +0.000 A 
ATOM     30  C   UNL     1       1.707   8.555  17.809  0.00  0.00    +0.000 A 
ATOM     31  C   UNL     1       0.843   9.646  17.961  0.00  0.00    +0.000 A 
BRANCH  26  33
ATOM     32  C   UNL     1      -0.962  11.545  20.835  0.00  0.00    +0.000 C 
ATOM     33  C   UNL     1      -0.572  11.244  19.371  0.00  0.00    +0.000 C 
ATOM     34  C   UNL     1      -1.883  11.019  18.589  0.00  0.00    +0.000 C 
ATOM     35  C   UNL     1       0.143  12.497  18.816  0.00  0.00    +0.000 C 
ENDBRANCH  26  33
ENDBRANCH  25  29
ENDBRANCH   1  25
TORSDOF 8
ENDMDL
MODEL 2
REMARK VINA RESULT:      -9.7      1.152      1.583
REMARK  Name = 
REMARK  12 active torsions:
REMARK  status: ('A' for Active; 'I' for Inactive)
REMARK    1  A    between atoms: C_1  and  C_2
REMARK    2  A    between atoms: C_2  and  C_3
REMARK    3  A    between atoms: C_2  and  C_4
REMARK    4  A    between atoms: C_2  and  C_5
REMARK    5  A    between atoms: C_8  and  C_9
REMARK    6  A    between atoms: C_9  and  C_10
REMARK    7  A    between atoms: C_15  and  C_16
REMARK    8  A    between atoms: C_15  and  C_17
REMARK    9  A    between atoms: N_19  and  S_20
REMARK   10  A    between atoms: S_20  and  C_23
REMARK   11  A    between atoms: C_27  and  O_28
REMARK   12  A    between atoms: O_28  and  C_29
REMARK                            x       y       z     vdW  Elec       q    Type
REMARK                         _______ _______ _______ _____ _____    ______ ____
ROOT
ATOM      1  C   UNL     1       2.750   5.249  19.614  0.00  0.00    +0.000 C 
ATOM      2  O   UNL     1       2.701   5.429  20.830  0.00  0.00    +0.000 OA
ATOM      3  N   UNL     1       2.699   3.996  19.063  0.00  0.00    +0.000 N 
ATOM      4  C   UNL     1       2.426   2.736  19.744  0.00  0.00    +0.000 C 
ATOM      5  C   UNL     1       3.522   2.101  18.894  0.00  0.00    +0.000 C 
ATOM      6  C   UNL     1       3.589   3.394  18.046  0.00  0.00    +0.000 C 
ATOM      7  C   UNL     1       2.837   3.312  16.713  0.00  0.00    +0.000 C 
ENDROOT
BRANCH   6   8
ATOM      8  C   UNL     1       5.047   3.992  17.870  0.00  0.00    +0.000 C 
ATOM      9  O   UNL     1       5.878   4.013  18.777  0.00  0.00    +0.000 OA
ATOM     10  N   UNL     1       5.357   4.473  16.583  0.00  0.00    +0.000 N 
ATOM     11  H   UNL     1       4.697   4.458  15.807  0.00  0.00    +0.000 HD
BRANCH  10  12
ATOM     12  S   UNL     1       6.848   5.114  16.181  0.00  0.00    +0.000 S 
ATOM     13  O   UNL     1       6.732   6.545  16.366  0.00  0.00    +0.000 OA
ATOM     14  O   UNL     1       7.898   4.362  16.827  0.00  0.00    +0.000 OA
BRANCH  12  15
ATOM     15  C   UNL     1       6.891   4.802  14.430  0.00  0.00    +0.000 A 
ATOM     16  C   UNL     1       7.834   5.461  13.638  0.00  0.00    +0.000 A 
ATOM     17  C   UNL     1       7.884   5.194  12.273  0.00  0.00    +0.000 A 
ATOM     18  C   UNL     1       6.987   4.287  11.711  0.00  0.00    +0.000 A 
ATOM     19  C   UNL     1       6.045   3.623  12.504  0.00  0.00    +0.000 A 
ATOM     20  C   UNL     1       5.980   3.896  13.870  0.00  0.00    +0.000 A 
BRANCH  19  21
ATOM     21  O   UNL     1       5.230   2.766  11.823  0.00  0.00    +0.000 OA
BRANCH  21  22
ATOM     22  C   UNL     1       3.944   3.257  11.484  0.00  0.00    +0.000 C 
ATOM     23  F   UNL     1       4.086   4.379  10.739  0.00  0.00    +0.000 F 
ATOM     24  F   UNL     1       3.358   2.326  10.689  0.00  0.00    +0.000 F 
ENDBRANCH  21  22
ENDBRANCH  19  21
ENDBRANCH  12  15
ENDBRANCH  10  12
ENDBRANCH   6   8
BRANCH   1  25
ATOM     25  C   UNL     1       2.845   6.407  18.634  0.00  0.00    +0.000 C 
BRANCH  25  29
ATOM     26  C   UNL     1       0.704   9.970  19.951  0.00  0.00    +0.000 A 
ATOM     27  C   UNL     1       1.096   9.811  18.613  0.00  0.00    +0.000 A 
ATOM     28  C   UNL     1       1.785   8.674  18.180  0.00  0.00    +0.000 A 
ATOM     29  C   UNL     1       2.130   7.660  19.077  0.00  0.00    +0.000 A 
ATOM     30  C   UNL     1       1.734   7.797  20.413  0.00  0.00    +0.000 A 
ATOM     31  C   UNL     1       1.043   8.937  20.843  0.00  0.00    +0.000 A 
BRANCH  26  33
ATOM     32  C   UNL     1       0.728  12.510  20.382  0.00  0.00    +0.000 C 
ATOM     33  C   UNL     1      -0.085  11.197  20.438  0.00  0.00    +0.000 C 
ATOM     34  C   UNL     1      -0.524  10.998  21.904  0.00  0.00    +0.000 C 
ATOM     35  C   UNL     1      -1.336  11.389  19.552  0.00  0.00    +0.000 C 
ENDBRANCH  26  33
ENDBRANCH  25  29
ENDBRANCH   1  25
TORSDOF 8
ENDMDL
MODEL 3
REMARK VINA RESULT:      -9.5      3.725      4.618
REMARK  Name = 
REMARK  12 active torsions:
REMARK  status: ('A' for Active; 'I' for Inactive)
REMARK    1  A    between atoms: C_1  and  C_2
REMARK    2  A    between atoms: C_2  and  C_3
REMARK    3  A    between atoms: C_2  and  C_4
REMARK    4  A    between atoms: C_2  and  C_5
REMARK    5  A    between atoms: C_8  and  C_9
REMARK    6  A    between atoms: C_9  and  C_10
REMARK    7  A    between atoms: C_15  and  C_16
REMARK    8  A    between atoms: C_15  and  C_17
REMARK    9  A    between atoms: N_19  and  S_20
REMARK   10  A    between atoms: S_20  and  C_23
REMARK   11  A    between atoms: C_27  and  O_28
REMARK   12  A    between atoms: O_28  and  C_29
REMARK                            x       y       z     vdW  Elec       q    Type
REMARK                         _______ _______ _______ _____ _____    ______ ____
ROOT
ATOM      1  C   UNL     1       2.608   4.668  20.323  0.00  0.00    +0.000 C 
ATOM      2  O   UNL     1       2.833   4.255  21.459  0.00  0.00    +0.000 OA
ATOM      3  N   UNL     1       1.701   4.060  19.495  0.00  0.00    +0.000 N 
ATOM      4  C   UNL     1       0.770   2.990  19.831  0.00  0.00    +0.000 C 
ATOM      5  C   UNL     1       1.093   2.357  18.481  0.00  0.00    +0.000 C 
ATOM      6  C   UNL     1       1.870   3.638  18.087  0.00  0.00    +0.000 C 
ATOM      7  C   UNL     1       1.086   4.596  17.183  0.00  0.00    +0.000 C 
ENDROOT
BRANCH   6   8
ATOM      8  C   UNL     1       3.337   3.379  17.547  0.00  0.00    +0.000 C 
ATOM      9  O   UNL     1       4.006   2.396  17.864  0.00  0.00    +0.000 OA
ATOM     10  N   UNL     1       3.830   4.335  16.637  0.00  0.00    +0.000 N 
ATOM     11  H   UNL     1       3.297   5.152  16.343  0.00  0.00    +0.000 HD
BRANCH  10  12
ATOM     12  S   UNL     1       5.341   4.230  15.928  0.00  0.00    +0.000 S 
ATOM     13  O   UNL     1       5.758   2.852  16.079  0.00  0.00    +0.000 OA
ATOM     14  O   UNL     1       5.322   4.865  14.631  0.00  0.00    +0.000 OA
BRANCH  12  15
ATOM     15  C   UNL     1       6.312   5.210  17.050  0.00  0.00    +0.000 A 
ATOM     16  C   UNL     1       6.540   4.745  18.347  0.00  0.00    +0.000 A 
ATOM     17  C   UNL     1       7.323   5.500  19.215  0.00  0.00    +0.000 A 
ATOM     18  C   UNL     1       7.858   6.714  18.786  0.00  0.00    +0.000 A 
ATOM     19  C   UNL     1       7.634   7.180  17.486  0.00  0.00    +0.000 A 
ATOM     20  C   UNL     1       6.838   6.435  16.616  0.00  0.00    +0.000 A 
BRANCH  19  21
ATOM     21  O   UNL     1       8.213   8.382  17.203  0.00  0.00    +0.000 OA
BRANCH  21  22
ATOM     22  C   UNL     1       8.165   9.361  18.227  0.00  0.00    +0.000 C 
ATOM     23  F   UNL     1       9.325   9.321  18.925  0.00  0.00    +0.000 F 
ATOM     24  F   UNL     1       8.112  10.573  17.619  0.00  0.00    +0.000 F 
ENDBRANCH  21  22
ENDBRANCH  19  21
ENDBRANCH  12  15
ENDBRANCH  10  12
ENDBRANCH   6   8
BRANCH   1  25
ATOM     25  C   UNL     1       3.303   5.898  19.763  0.00  0.00    +0.000 C 
BRANCH  25  29
ATOM     26  C   UNL     1       0.834   9.476  19.417  0.00  0.00    +0.000 A 
ATOM     27  C   UNL     1       0.864   8.727  20.603  0.00  0.00    +0.000 A 
ATOM     28  C   UNL     1       1.651   7.576  20.724  0.00  0.00    +0.000 A 
ATOM     29  C   UNL     1       2.420   7.118  19.652  0.00  0.00    +0.000 A 
ATOM     30  C   UNL     1       2.411   7.862  18.467  0.00  0.00    +0.000 A 
ATOM     31  C   UNL     1       1.624   9.014  18.349  0.00  0.00    +0.000 A 
BRANCH  26  33
ATOM     32  C   UNL     1       0.827  11.976  18.793  0.00  0.00    +0.000 C 
ATOM     33  C   UNL     1       0.003  10.762  19.277  0.00  0.00    +0.000 C 
ATOM     34  C   UNL     1      -0.615  11.146  20.638  0.00  0.00    +0.000 C 
ATOM     35  C   UNL     1      -1.129  10.533  18.250  0.00  0.00    +0.000 C 
ENDBRANCH  26  33
ENDBRANCH  25  29
ENDBRANCH   1  25
TORSDOF 8
ENDMDL
MODEL 4
REMARK VINA RESULT:      -9.4      1.107      1.639
REMARK  Name = 
REMARK  12 active torsions:
REMARK  status: ('A' for Active; 'I' for Inactive)
REMARK    1  A    between atoms: C_1  and  C_2
REMARK    2  A    between atoms: C_2  and  C_3
REMARK    3  A    between atoms: C_2  and  C_4
REMARK    4  A    between atoms: C_2  and  C_5
REMARK    5  A    between atoms: C_8  and  C_9
REMARK    6  A    between atoms: C_9  and  C_10
REMARK    7  A    between atoms: C_15  and  C_16
REMARK    8  A    between atoms: C_15  and  C_17
REMARK    9  A    between atoms: N_19  and  S_20
REMARK   10  A    between atoms: S_20  and  C_23
REMARK   11  A    between atoms: C_27  and  O_28
REMARK   12  A    between atoms: O_28  and  C_29
REMARK                            x       y       z     vdW  Elec       q    Type
REMARK                         _______ _______ _______ _____ _____    ______ ____
ROOT
ATOM      1  C   UNL     1       2.792   5.573  19.653  0.00  0.00    +0.000 C 
ATOM      2  O   UNL     1       2.767   5.836  20.854  0.00  0.00    +0.000 OA
ATOM      3  N   UNL     1       2.643   4.293  19.186  0.00  0.00    +0.000 N 
ATOM      4  C   UNL     1       2.281   3.106  19.949  0.00  0.00    +0.000 C 
ATOM      5  C   UNL     1       3.319   2.335  19.141  0.00  0.00    +0.000 C 
ATOM      6  C   UNL     1       3.477   3.561  18.209  0.00  0.00    +0.000 C 
ATOM      7  C   UNL     1       2.712   3.449  16.886  0.00  0.00    +0.000 C 
ENDROOT
BRANCH   6   8
ATOM      8  C   UNL     1       4.974   4.034  17.989  0.00  0.00    +0.000 C 
ATOM      9  O   UNL     1       5.830   3.984  18.872  0.00  0.00    +0.000 OA
ATOM     10  N   UNL     1       5.287   4.488  16.693  0.00  0.00    +0.000 N 
ATOM     11  H   UNL     1       4.606   4.529  15.936  0.00  0.00    +0.000 HD
BRANCH  10  12
ATOM     12  S   UNL     1       6.815   5.001  16.247  0.00  0.00    +0.000 S 
ATOM     13  O   UNL     1       6.818   6.439  16.413  0.00  0.00    +0.000 OA
ATOM     14  O   UNL     1       7.816   4.176  16.880  0.00  0.00    +0.000 OA
BRANCH  12  15
ATOM     15  C   UNL     1       6.790   4.664  14.501  0.00  0.00    +0.000 A 
ATOM     16  C   UNL     1       7.756   5.243  13.676  0.00  0.00    +0.000 A 
ATOM     17  C   UNL     1       7.752   4.955  12.314  0.00  0.00    +0.000 A 
ATOM     18  C   UNL     1       6.779   4.106  11.788  0.00  0.00    +0.000 A 
ATOM     19  C   UNL     1       5.813   3.522  12.614  0.00  0.00    +0.000 A 
ATOM     20  C   UNL     1       5.803   3.817  13.977  0.00  0.00    +0.000 A 
BRANCH  19  21
ATOM     21  O   UNL     1       4.922   2.717  11.967  0.00  0.00    +0.000 OA
BRANCH  21  22
ATOM     22  C   UNL     1       4.210   3.302  10.890  0.00  0.00    +0.000 C 
ATOM     23  F   UNL     1       3.217   2.462  10.514  0.00  0.00    +0.000 F 
ATOM     24  F   UNL     1       3.618   4.427  11.365  0.00  0.00    +0.000 F 
ENDBRANCH  21  22
ENDBRANCH  19  21
ENDBRANCH  12  15
ENDBRANCH  10  12
ENDBRANCH   6   8
BRANCH   1  25
ATOM     25  C   UNL     1       2.967   6.653  18.598  0.00  0.00    +0.000 C 
BRANCH  25  29
ATOM     26  C   UNL     1       0.370  10.101  19.217  0.00  0.00    +0.000 A 
ATOM     27  C   UNL     1       0.854   9.777  17.941  0.00  0.00    +0.000 A 
ATOM     28  C   UNL     1       1.690   8.674  17.731  0.00  0.00    +0.000 A 
ATOM     29  C   UNL     1       2.093   7.868  18.798  0.00  0.00    +0.000 A 
ATOM     30  C   UNL     1       1.607   8.170  20.076  0.00  0.00    +0.000 A 
ATOM     31  C   UNL     1       0.770   9.273  20.282  0.00  0.00    +0.000 A 
BRANCH  26  33
ATOM     32  C   UNL     1      -1.913  11.175  18.694  0.00  0.00    +0.000 C 
ATOM     33  C   UNL     1      -0.576  11.288  19.462  0.00  0.00    +0.000 C 
ATOM     34  C   UNL     1       0.095  12.603  19.014  0.00  0.00    +0.000 C 
ATOM     35  C   UNL     1      -0.914  11.375  20.967  0.00  0.00    +0.000 C 
ENDBRANCH  26  33
ENDBRANCH  25  29
ENDBRANCH   1  25
TORSDOF 8
ENDMDL
MODEL 5
REMARK VINA RESULT:      -9.4      3.712      4.623
REMARK  Name = 
REMARK  12 active torsions:
REMARK  status: ('A' for Active; 'I' for Inactive)
REMARK    1  A    between atoms: C_1  and  C_2
REMARK    2  A    between atoms: C_2  and  C_3
REMARK    3  A    between atoms: C_2  and  C_4
REMARK    4  A    between atoms: C_2  and  C_5
REMARK    5  A    between atoms: C_8  and  C_9
REMARK    6  A    between atoms: C_9  and  C_10
REMARK    7  A    between atoms: C_15  and  C_16
REMARK    8  A    between atoms: C_15  and  C_17
REMARK    9  A    between atoms: N_19  and  S_20
REMARK   10  A    between atoms: S_20  and  C_23
REMARK   11  A    between atoms: C_27  and  O_28
REMARK   12  A    between atoms: O_28  and  C_29
REMARK                            x       y       z     vdW  Elec       q    Type
REMARK                         _______ _______ _______ _____ _____    ______ ____
ROOT
ATOM      1  C   UNL     1       2.656   4.877  20.326  0.00  0.00    +0.000 C 
ATOM      2  O   UNL     1       2.888   4.528  21.483  0.00  0.00    +0.000 OA
ATOM      3  N   UNL     1       1.737   4.230  19.542  0.00  0.00    +0.000 N 
ATOM      4  C   UNL     1       0.802   3.188  19.946  0.00  0.00    +0.000 C 
ATOM      5  C   UNL     1       1.108   2.477  18.632  0.00  0.00    +0.000 C 
ATOM      6  C   UNL     1       1.890   3.728  18.160  0.00  0.00    +0.000 C 
ATOM      7  C   UNL     1       1.105   4.639  17.209  0.00  0.00    +0.000 C 
ENDROOT
BRANCH   6   8
ATOM      8  C   UNL     1       3.351   3.427  17.622  0.00  0.00    +0.000 C 
ATOM      9  O   UNL     1       4.002   2.440  17.962  0.00  0.00    +0.000 OA
ATOM     10  N   UNL     1       3.859   4.351  16.687  0.00  0.00    +0.000 N 
ATOM     11  H   UNL     1       3.340   5.170  16.374  0.00  0.00    +0.000 HD
BRANCH  10  12
ATOM     12  S   UNL     1       5.365   4.200  15.977  0.00  0.00    +0.000 S 
ATOM     13  O   UNL     1       5.760   2.820  16.167  0.00  0.00    +0.000 OA
ATOM     14  O   UNL     1       5.353   4.796  14.663  0.00  0.00    +0.000 OA
BRANCH  12  15
ATOM     15  C   UNL     1       6.356   5.196  17.067  0.00  0.00    +0.000 A 
ATOM     16  C   UNL     1       6.673   4.715  18.340  0.00  0.00    +0.000 A 
ATOM     17  C   UNL     1       7.472   5.483  19.181  0.00  0.00    +0.000 A 
ATOM     18  C   UNL     1       7.934   6.727  18.752  0.00  0.00    +0.000 A 
ATOM     19  C   UNL     1       7.622   7.209  17.476  0.00  0.00    +0.000 A 
ATOM     20  C   UNL     1       6.810   6.450  16.633  0.00  0.00    +0.000 A 
BRANCH  19  21
ATOM     21  O   UNL     1       8.136   8.439  17.189  0.00  0.00    +0.000 OA
BRANCH  21  22
ATOM     22  C   UNL     1       8.167   9.373  18.255  0.00  0.00    +0.000 C 
ATOM     23  F   UNL     1       9.292   9.172  18.981  0.00  0.00    +0.000 F 
ATOM     24  F   UNL     1       8.269  10.608  17.702  0.00  0.00    +0.000 F 
ENDBRANCH  21  22
ENDBRANCH  19  21
ENDBRANCH  12  15
ENDBRANCH  10  12
ENDBRANCH   6   8
BRANCH   1  25
ATOM     25  C   UNL     1       3.354   6.069  19.692  0.00  0.00    +0.000 C 
BRANCH  25  29
ATOM     26  C   UNL     1       0.750   9.537  19.244  0.00  0.00    +0.000 A 
ATOM     27  C   UNL     1       1.545   9.085  18.180  0.00  0.00    +0.000 A 
ATOM     28  C   UNL     1       2.386   7.975  18.314  0.00  0.00    +0.000 A 
ATOM     29  C   UNL     1       2.481   7.289  19.527  0.00  0.00    +0.000 A 
ATOM     30  C   UNL     1       1.683   7.720  20.594  0.00  0.00    +0.000 A 
ATOM     31  C   UNL     1       0.841   8.831  20.456  0.00  0.00    +0.000 A 
BRANCH  26  33
ATOM     32  C   UNL     1      -0.942  11.086  20.418  0.00  0.00    +0.000 C 
ATOM     33  C   UNL     1      -0.206  10.734  19.106  0.00  0.00    +0.000 C 
ATOM     34  C   UNL     1      -1.287  10.431  18.047  0.00  0.00    +0.000 C 
ATOM     35  C   UNL     1       0.594  11.984  18.674  0.00  0.00    +0.000 C 
ENDBRANCH  26  33
ENDBRANCH  25  29
ENDBRANCH   1  25
TORSDOF 8
ENDMDL
MODEL 6
REMARK VINA RESULT:      -9.3      1.186      1.437
REMARK  Name = 
REMARK  12 active torsions:
REMARK  status: ('A' for Active; 'I' for Inactive)
REMARK    1  A    between atoms: C_1  and  C_2
REMARK    2  A    between atoms: C_2  and  C_3
REMARK    3  A    between atoms: C_2  and  C_4
REMARK    4  A    between atoms: C_2  and  C_5
REMARK    5  A    between atoms: C_8  and  C_9
REMARK    6  A    between atoms: C_9  and  C_10
REMARK    7  A    between atoms: C_15  and  C_16
REMARK    8  A    between atoms: C_15  and  C_17
REMARK    9  A    between atoms: N_19  and  S_20
REMARK   10  A    between atoms: S_20  and  C_23
REMARK   11  A    between atoms: C_27  and  O_28
REMARK   12  A    between atoms: O_28  and  C_29
REMARK                            x       y       z     vdW  Elec       q    Type
REMARK                         _______ _______ _______ _____ _____    ______ ____
ROOT
ATOM      1  C   UNL     1       2.643   5.209  19.523  0.00  0.00    +0.000 C 
ATOM      2  O   UNL     1       2.483   5.606  20.676  0.00  0.00    +0.000 OA
ATOM      3  N   UNL     1       2.790   3.879  19.226  0.00  0.00    +0.000 N 
ATOM      4  C   UNL     1       2.629   2.745  20.127  0.00  0.00    +0.000 C 
ATOM      5  C   UNL     1       3.855   2.118  19.472  0.00  0.00    +0.000 C 
ATOM      6  C   UNL     1       3.821   3.226  18.391  0.00  0.00    +0.000 C 
ATOM      7  C   UNL     1       3.186   2.792  17.065  0.00  0.00    +0.000 C 
ENDROOT
BRANCH   6   8
ATOM      8  C   UNL     1       5.201   3.974  18.170  0.00  0.00    +0.000 C 
ATOM      9  O   UNL     1       5.932   4.321  19.097  0.00  0.00    +0.000 OA
ATOM     10  N   UNL     1       5.569   4.192  16.828  0.00  0.00    +0.000 N 
ATOM     11  H   UNL     1       4.994   3.904  16.038  0.00  0.00    +0.000 HD
BRANCH  10  12
ATOM     12  S   UNL     1       6.999   4.936  16.381  0.00  0.00    +0.000 S 
ATOM     13  O   UNL     1       6.804   6.350  16.616  0.00  0.00    +0.000 OA
ATOM     14  O   UNL     1       8.121   4.233  16.956  0.00  0.00    +0.000 OA
BRANCH  12  15
ATOM     15  C   UNL     1       6.979   4.678  14.621  0.00  0.00    +0.000 A 
ATOM     16  C   UNL     1       7.815   5.444  13.806  0.00  0.00    +0.000 A 
ATOM     17  C   UNL     1       7.819   5.221  12.432  0.00  0.00    +0.000 A 
ATOM     18  C   UNL     1       6.982   4.249  11.885  0.00  0.00    +0.000 A 
ATOM     19  C   UNL     1       6.148   3.477  12.701  0.00  0.00    +0.000 A 
ATOM     20  C   UNL     1       6.128   3.705  14.077  0.00  0.00    +0.000 A 
BRANCH  19  21
ATOM     21  O   UNL     1       5.381   2.567  12.034  0.00  0.00    +0.000 OA
BRANCH  21  22
ATOM     22  C   UNL     1       4.125   3.025  11.565  0.00  0.00    +0.000 C 
ATOM     23  F   UNL     1       4.084   4.375  11.672  0.00  0.00    +0.000 F 
ATOM     24  F   UNL     1       4.061   2.732  10.241  0.00  0.00    +0.000 F 
ENDBRANCH  21  22
ENDBRANCH  19  21
ENDBRANCH  12  15
ENDBRANCH  10  12
ENDBRANCH   6   8
BRANCH   1  25
ATOM     25  C   UNL     1       2.663   6.163  18.340  0.00  0.00    +0.000 C 
BRANCH  25  29
ATOM     26  C   UNL     1       1.192  10.179  19.190  0.00  0.00    +0.000 A 
ATOM     27  C   UNL     1       1.048   9.141  20.122  0.00  0.00    +0.000 A 
ATOM     28  C   UNL     1       1.513   7.848  19.859  0.00  0.00    +0.000 A 
ATOM     29  C   UNL     1       2.121   7.540  18.640  0.00  0.00    +0.000 A 
ATOM     30  C   UNL     1       2.285   8.569  17.705  0.00  0.00    +0.000 A 
ATOM     31  C   UNL     1       1.819   9.861  17.971  0.00  0.00    +0.000 A 
BRANCH  26  33
ATOM     32  C   UNL     1       1.564  12.693  18.764  0.00  0.00    +0.000 C 
ATOM     33  C   UNL     1       0.717  11.614  19.475  0.00  0.00    +0.000 C 
ATOM     34  C   UNL     1       0.788  11.906  20.988  0.00  0.00    +0.000 C 
ATOM     35  C   UNL     1      -0.741  11.778  18.991  0.00  0.00    +0.000 C 
ENDBRANCH  26  33
ENDBRANCH  25  29
ENDBRANCH   1  25
TORSDOF 8
ENDMDL
MODEL 7
REMARK VINA RESULT:      -9.0      1.337      1.644
REMARK  Name = 
REMARK  12 active torsions:
REMARK  status: ('A' for Active; 'I' for Inactive)
REMARK    1  A    between atoms: C_1  and  C_2
REMARK    2  A    between atoms: C_2  and  C_3
REMARK    3  A    between atoms: C_2  and  C_4
REMARK    4  A    between atoms: C_2  and  C_5
REMARK    5  A    between atoms: C_8  and  C_9
REMARK    6  A    between atoms: C_9  and  C_10
REMARK    7  A    between atoms: C_15  and  C_16
REMARK    8  A    between atoms: C_15  and  C_17
REMARK    9  A    between atoms: N_19  and  S_20
REMARK   10  A    between atoms: S_20  and  C_23
REMARK   11  A    between atoms: C_27  and  O_28
REMARK   12  A    between atoms: O_28  and  C_29
REMARK                            x       y       z     vdW  Elec       q    Type
REMARK                         _______ _______ _______ _____ _____    ______ ____
ROOT
ATOM      1  C   UNL     1       2.943   5.404  19.872  0.00  0.00    +0.000 C 
ATOM      2  O   UNL     1       2.921   5.865  21.012  0.00  0.00    +0.000 OA
ATOM      3  N   UNL     1       3.106   4.064  19.633  0.00  0.00    +0.000 N 
ATOM      4  C   UNL     1       3.114   2.983  20.610  0.00  0.00    +0.000 C 
ATOM      5  C   UNL     1       4.268   2.359  19.831  0.00  0.00    +0.000 C 
ATOM      6  C   UNL     1       4.044   3.397  18.704  0.00  0.00    +0.000 C 
ATOM      7  C   UNL     1       3.257   2.861  17.503  0.00  0.00    +0.000 C 
ENDROOT
BRANCH   6   8
ATOM      8  C   UNL     1       5.349   4.178  18.257  0.00  0.00    +0.000 C 
ATOM      9  O   UNL     1       6.247   4.486  19.040  0.00  0.00    +0.000 OA
ATOM     10  N   UNL     1       5.443   4.472  16.883  0.00  0.00    +0.000 N 
ATOM     11  H   UNL     1       4.724   4.218  16.207  0.00  0.00    +0.000 HD
BRANCH  10  12
ATOM     12  S   UNL     1       6.752   5.262  16.204  0.00  0.00    +0.000 S 
ATOM     13  O   UNL     1       6.441   6.674  16.261  0.00  0.00    +0.000 OA
ATOM     14  O   UNL     1       7.981   4.746  16.761  0.00  0.00    +0.000 OA
BRANCH  12  15
ATOM     15  C   UNL     1       6.614   4.750  14.506  0.00  0.00    +0.000 A 
ATOM     16  C   UNL     1       7.675   4.984  13.630  0.00  0.00    +0.000 A 
ATOM     17  C   UNL     1       7.576   4.558  12.308  0.00  0.00    +0.000 A 
ATOM     18  C   UNL     1       6.417   3.918  11.872  0.00  0.00    +0.000 A 
ATOM     19  C   UNL     1       5.354   3.679  12.750  0.00  0.00    +0.000 A 
ATOM     20  C   UNL     1       5.441   4.116  14.072  0.00  0.00    +0.000 A 
BRANCH  19  21
ATOM     21  O   UNL     1       4.283   3.047  12.189  0.00  0.00    +0.000 OA
BRANCH  21  22
ATOM     22  C   UNL     1       4.092   3.245  10.799  0.00  0.00    +0.000 C 
ATOM     23  F   UNL     1       3.065   2.466  10.383  0.00  0.00    +0.000 F 
ATOM     24  F   UNL     1       3.704   4.535  10.628  0.00  0.00    +0.000 F 
ENDBRANCH  21  22
ENDBRANCH  19  21
ENDBRANCH  12  15
ENDBRANCH  10  12
ENDBRANCH   6   8
BRANCH   1  25
ATOM     25  C   UNL     1       2.765   6.284  18.646  0.00  0.00    +0.000 C 
BRANCH  25  29
ATOM     26  C   UNL     1       0.936  10.152  19.488  0.00  0.00    +0.000 A 
ATOM     27  C   UNL     1       1.598   9.911  18.275  0.00  0.00    +0.000 A 
ATOM     28  C   UNL     1       2.191   8.675  17.995  0.00  0.00    +0.000 A 
ATOM     29  C   UNL     1       2.163   7.639  18.932  0.00  0.00    +0.000 A 
ATOM     30  C   UNL     1       1.494   7.859  20.142  0.00  0.00    +0.000 A 
ATOM     31  C   UNL     1       0.901   9.097  20.418  0.00  0.00    +0.000 A 
BRANCH  26  33
ATOM     32  C   UNL     1       0.504  11.993  21.239  0.00  0.00    +0.000 C 
ATOM     33  C   UNL     1       0.249  11.492  19.799  0.00  0.00    +0.000 C 
ATOM     34  C   UNL     1      -1.279  11.358  19.630  0.00  0.00    +0.000 C 
ATOM     35  C   UNL     1       0.776  12.576  18.832  0.00  0.00    +0.000 C 
ENDBRANCH  26  33
ENDBRANCH  25  29
ENDBRANCH   1  25
TORSDOF 8
ENDMDL
MODEL 8
REMARK VINA RESULT:      -8.7      1.168      1.476
REMARK  Name = 
REMARK  12 active torsions:
REMARK  status: ('A' for Active; 'I' for Inactive)
REMARK    1  A    between atoms: C_1  and  C_2
REMARK    2  A    between atoms: C_2  and  C_3
REMARK    3  A    between atoms: C_2  and  C_4
REMARK    4  A    between atoms: C_2  and  C_5
REMARK    5  A    between atoms: C_8  and  C_9
REMARK    6  A    between atoms: C_9  and  C_10
REMARK    7  A    between atoms: C_15  and  C_16
REMARK    8  A    between atoms: C_15  and  C_17
REMARK    9  A    between atoms: N_19  and  S_20
REMARK   10  A    between atoms: S_20  and  C_23
REMARK   11  A    between atoms: C_27  and  O_28
REMARK   12  A    between atoms: O_28  and  C_29
REMARK                            x       y       z     vdW  Elec       q    Type
REMARK                         _______ _______ _______ _____ _____    ______ ____
ROOT
ATOM      1  C   UNL     1       2.236   5.698  20.135  0.00  0.00    +0.000 C 
ATOM      2  O   UNL     1       2.138   5.983  21.327  0.00  0.00    +0.000 OA
ATOM      3  N   UNL     1       2.027   4.425  19.672  0.00  0.00    +0.000 N 
ATOM      4  C   UNL     1       1.519   3.281  20.419  0.00  0.00    +0.000 C 
ATOM      5  C   UNL     1       2.555   2.421  19.703  0.00  0.00    +0.000 C 
ATOM      6  C   UNL     1       2.877   3.616  18.772  0.00  0.00    +0.000 C 
ATOM      7  C   UNL     1       2.210   3.538  17.395  0.00  0.00    +0.000 C 
ENDROOT
BRANCH   6   8
ATOM      8  C   UNL     1       4.418   3.972  18.665  0.00  0.00    +0.000 C 
ATOM      9  O   UNL     1       5.253   3.595  19.487  0.00  0.00    +0.000 OA
ATOM     10  N   UNL     1       4.792   4.728  17.537  0.00  0.00    +0.000 N 
ATOM     11  H   UNL     1       4.129   5.043  16.831  0.00  0.00    +0.000 HD
BRANCH  10  12
ATOM     12  S   UNL     1       6.371   5.181  17.223  0.00  0.00    +0.000 S 
ATOM     13  O   UNL     1       6.417   6.617  17.396  0.00  0.00    +0.000 OA
ATOM     14  O   UNL     1       7.283   4.315  17.933  0.00  0.00    +0.000 OA
BRANCH  12  15
ATOM     15  C   UNL     1       6.479   4.848  15.479  0.00  0.00    +0.000 A 
ATOM     16  C   UNL     1       7.634   5.208  14.781  0.00  0.00    +0.000 A 
ATOM     17  C   UNL     1       7.728   4.921  13.422  0.00  0.00    +0.000 A 
ATOM     18  C   UNL     1       6.667   4.293  12.772  0.00  0.00    +0.000 A 
ATOM     19  C   UNL     1       5.511   3.928  13.470  0.00  0.00    +0.000 A 
ATOM     20  C   UNL     1       5.404   4.225  14.829  0.00  0.00    +0.000 A 
BRANCH  19  21
ATOM     21  O   UNL     1       4.552   3.325  12.710  0.00  0.00    +0.000 OA
BRANCH  21  22
ATOM     22  C   UNL     1       4.882   3.087  11.352  0.00  0.00    +0.000 C 
ATOM     23  F   UNL     1       5.303   1.806  11.222  0.00  0.00    +0.000 F 
ATOM     24  F   UNL     1       3.734   3.201  10.636  0.00  0.00    +0.000 F 
ENDBRANCH  21  22
ENDBRANCH  19  21
ENDBRANCH  12  15
ENDBRANCH  10  12
ENDBRANCH   6   8
BRANCH   1  25
ATOM     25  C   UNL     1       2.573   6.744  19.085  0.00  0.00    +0.000 C 
BRANCH  25  29
ATOM     26  C   UNL     1       0.578  10.592  19.560  0.00  0.00    +0.000 A 
ATOM     27  C   UNL     1       0.673   9.687  20.628  0.00  0.00    +0.000 A 
ATOM     28  C   UNL     1       1.309   8.449  20.486  0.00  0.00    +0.000 A 
ATOM     29  C   UNL     1       1.853   8.059  19.260  0.00  0.00    +0.000 A 
ATOM     30  C   UNL     1       1.778   8.957  18.188  0.00  0.00    +0.000 A 
ATOM     31  C   UNL     1       1.143  10.196  18.334  0.00  0.00    +0.000 A 
BRANCH  26  33
ATOM     32  C   UNL     1       0.414  13.006  18.674  0.00  0.00    +0.000 C 
ATOM     33  C   UNL     1      -0.086  11.971  19.707  0.00  0.00    +0.000 C 
ATOM     34  C   UNL     1       0.201  12.553  21.107  0.00  0.00    +0.000 C 
ATOM     35  C   UNL     1      -1.613  11.829  19.517  0.00  0.00    +0.000 C 
ENDBRANCH  26  33
ENDBRANCH  25  29
ENDBRANCH   1  25
TORSDOF 8
ENDMDL
MODEL 9
REMARK VINA RESULT:      -8.7      1.220      1.358
REMARK  Name = 
REMARK  12 active torsions:
REMARK  status: ('A' for Active; 'I' for Inactive)
REMARK    1  A    between atoms: C_1  and  C_2
REMARK    2  A    between atoms: C_2  and  C_3
REMARK    3  A    between atoms: C_2  and  C_4
REMARK    4  A    between atoms: C_2  and  C_5
REMARK    5  A    between atoms: C_8  and  C_9
REMARK    6  A    between atoms: C_9  and  C_10
REMARK    7  A    between atoms: C_15  and  C_16
REMARK    8  A    between atoms: C_15  and  C_17
REMARK    9  A    between atoms: N_19  and  S_20
REMARK   10  A    between atoms: S_20  and  C_23
REMARK   11  A    between atoms: C_27  and  O_28
REMARK   12  A    between atoms: O_28  and  C_29
REMARK                            x       y       z     vdW  Elec       q    Type
REMARK                         _______ _______ _______ _____ _____    ______ ____
ROOT
ATOM      1  C   UNL     1       2.361   5.600  19.882  0.00  0.00    +0.000 C 
ATOM      2  O   UNL     1       2.113   6.122  20.968  0.00  0.00    +0.000 OA
ATOM      3  N   UNL     1       2.532   4.246  19.749  0.00  0.00    +0.000 N 
ATOM      4  C   UNL     1       2.301   3.219  20.756  0.00  0.00    +0.000 C 
ATOM      5  C   UNL     1       3.574   2.533  20.272  0.00  0.00    +0.000 C 
ATOM      6  C   UNL     1       3.624   3.512  19.074  0.00  0.00    +0.000 C 
ATOM      7  C   UNL     1       3.093   2.927  17.760  0.00  0.00    +0.000 C 
ENDROOT
BRANCH   6   8
ATOM      8  C   UNL     1       5.017   4.243  18.877  0.00  0.00    +0.000 C 
ATOM      9  O   UNL     1       5.717   4.617  19.817  0.00  0.00    +0.000 OA
ATOM     10  N   UNL     1       5.434   4.412  17.542  0.00  0.00    +0.000 N 
ATOM     11  H   UNL     1       4.885   4.101  16.742  0.00  0.00    +0.000 HD
BRANCH  10  12
ATOM     12  S   UNL     1       6.884   5.130  17.121  0.00  0.00    +0.000 S 
ATOM     13  O   UNL     1       6.703   6.550  17.331  0.00  0.00    +0.000 OA
ATOM     14  O   UNL     1       7.982   4.420  17.734  0.00  0.00    +0.000 OA
BRANCH  12  15
ATOM     15  C   UNL     1       6.906   4.846  15.365  0.00  0.00    +0.000 A 
ATOM     16  C   UNL     1       7.790   5.572  14.563  0.00  0.00    +0.000 A 
ATOM     17  C   UNL     1       7.825   5.329  13.193  0.00  0.00    +0.000 A 
ATOM     18  C   UNL     1       6.972   4.377  12.637  0.00  0.00    +0.000 A 
ATOM     19  C   UNL     1       6.089   3.646  13.439  0.00  0.00    +0.000 A 
ATOM     20  C   UNL     1       6.038   3.895  14.810  0.00  0.00    +0.000 A 
BRANCH  19  21
ATOM     21  O   UNL     1       5.311   2.752  12.763  0.00  0.00    +0.000 OA
BRANCH  21  22
ATOM     22  C   UNL     1       4.994   3.081  11.421  0.00  0.00    +0.000 C 
ATOM     23  F   UNL     1       4.719   1.941  10.744  0.00  0.00    +0.000 F 
ATOM     24  F   UNL     1       3.850   3.811  11.448  0.00  0.00    +0.000 F 
ENDBRANCH  21  22
ENDBRANCH  19  21
ENDBRANCH  12  15
ENDBRANCH  10  12
ENDBRANCH   6   8
BRANCH   1  25
ATOM     25  C   UNL     1       2.473   6.416  18.605  0.00  0.00    +0.000 C 
BRANCH  25  29
ATOM     26  C   UNL     1       1.238  10.581  18.971  0.00  0.00    +0.000 A 
ATOM     27  C   UNL     1       0.962   9.651  19.985  0.00  0.00    +0.000 A 
ATOM     28  C   UNL     1       1.352   8.312  19.876  0.00  0.00    +0.000 A 
ATOM     29  C   UNL     1       2.012   7.847  18.736  0.00  0.00    +0.000 A 
ATOM     30  C   UNL     1       2.306   8.767  17.722  0.00  0.00    +0.000 A 
ATOM     31  C   UNL     1       1.916  10.107  17.835  0.00  0.00    +0.000 A 
BRANCH  26  33
ATOM     32  C   UNL     1       0.820  12.580  20.544  0.00  0.00    +0.000 C 
ATOM     33  C   UNL     1       0.848  12.065  19.088  0.00  0.00    +0.000 C 
ATOM     34  C   UNL     1      -0.561  12.291  18.500  0.00  0.00    +0.000 C 
ATOM     35  C   UNL     1       1.869  12.926  18.311  0.00  0.00    +0.000 C 
ENDBRANCH  26  33
ENDBRANCH  25  29
ENDBRANCH   1  25
TORSDOF 8
ENDMDL
