MODEL 1
REMARK VINA RESULT:      -6.8      0.000      0.000
REMARK  Name = 
REMARK  5 active torsions:
REMARK  status: ('A' for Active; 'I' for Inactive)
REMARK    1  A    between atoms: C_1  and  C_2
REMARK    2  A    between atoms: C_2  and  C_3
REMARK    3  A    between atoms: C_2  and  C_4
REMARK    4  A    between atoms: N_6  and  C_7
REMARK    5  A    between atoms: C_10  and  N_11
REMARK                            x       y       z     vdW  Elec       q    Type
REMARK                         _______ _______ _______ _____ _____    ______ ____
ROOT
ATOM      1  C   UNL     1       4.133   4.609  17.595  0.00  0.00    +0.000 A 
ATOM      2  C   UNL     1       4.760   3.455  17.104  0.00  0.00    +0.000 A 
ATOM      3  C   UNL     1       5.631   3.530  16.014  0.00  0.00    +0.000 A 
ATOM      4  C   UNL     1       5.889   4.771  15.423  0.00  0.00    +0.000 A 
ATOM      5  C   UNL     1       5.270   5.935  15.901  0.00  0.00    +0.000 A 
ATOM      6  C   UNL     1       4.379   5.843  16.974  0.00  0.00    +0.000 A 
ATOM      7 BR   UNL     1       3.596   7.446  17.628  0.00  0.00    +0.000 Br
ENDROOT
BRANCH   1  10
ATOM      8  C   UNL     1       1.909   4.183  18.545  0.00  0.00    +0.000 C 
ATOM      9  O   UNL     1       1.389   3.861  17.480  0.00  0.00    +0.000 OA
ATOM     10  N   UNL     1       3.241   4.533  18.689  0.00  0.00    +0.000 N 
ATOM     11  H   UNL     1       3.660   4.345  19.595  0.00  0.00    +0.000 HD
BRANCH   8  13
ATOM     12  C   UNL     1       1.224   2.881  20.548  0.00  0.00    +0.000 C 
ATOM     13  C   UNL     1       1.126   4.237  19.853  0.00  0.00    +0.000 C 
ATOM     14  C   UNL     1       1.666   5.343  20.759  0.00  0.00    +0.000 C 
ENDBRANCH   8  13
ENDBRANCH   1  10
BRANCH   4  15
ATOM     15  N   UNL     1       6.811   4.860  14.285  0.00  0.00    +0.000 N 
ATOM     16  O   UNL     1       7.794   5.609  14.395  0.00  0.00    +0.000 OA
ATOM     17  O   UNL     1       6.556   4.186  13.283  0.00  0.00    +0.000 OA
ENDBRANCH   4  15
TORSDOF 3
ENDMDL
MODEL 2
REMARK VINA RESULT:      -6.5      1.458      1.702
REMARK  Name = 
REMARK  5 active torsions:
REMARK  status: ('A' for Active; 'I' for Inactive)
REMARK    1  A    between atoms: C_1  and  C_2
REMARK    2  A    between atoms: C_2  and  C_3
REMARK    3  A    between atoms: C_2  and  C_4
REMARK    4  A    between atoms: N_6  and  C_7
REMARK    5  A    between atoms: C_10  and  N_11
REMARK                            x       y       z     vdW  Elec       q    Type
REMARK                         _______ _______ _______ _____ _____    ______ ____
ROOT
ATOM      1  C   UNL     1       3.642   4.564  17.732  0.00  0.00    +0.000 A 
ATOM      2  C   UNL     1       4.570   3.641  17.228  0.00  0.00    +0.000 A 
ATOM      3  C   UNL     1       5.729   4.081  16.584  0.00  0.00    +0.000 A 
ATOM      4  C   UNL     1       5.969   5.453  16.459  0.00  0.00    +0.000 A 
ATOM      5  C   UNL     1       5.052   6.389  16.958  0.00  0.00    +0.000 A 
ATOM      6  C   UNL     1       3.882   5.937  17.574  0.00  0.00    +0.000 A 
ATOM      7 BR   UNL     1       2.685   7.232  18.282  0.00  0.00    +0.000 Br
ENDROOT
BRANCH   1  10
ATOM      8  C   UNL     1       2.374   3.956  19.745  0.00  0.00    +0.000 C 
ATOM      9  O   UNL     1       3.276   4.220  20.534  0.00  0.00    +0.000 OA
ATOM     10  N   UNL     1       2.462   4.121  18.372  0.00  0.00    +0.000 N 
ATOM     11  H   UNL     1       1.592   4.307  17.885  0.00  0.00    +0.000 HD
BRANCH   8  13
ATOM     12  C   UNL     1       0.480   2.474  19.117  0.00  0.00    +0.000 C 
ATOM     13  C   UNL     1       1.027   3.401  20.199  0.00  0.00    +0.000 C 
ATOM     14  C   UNL     1       1.172   2.651  21.523  0.00  0.00    +0.000 C 
ENDBRANCH   8  13
ENDBRANCH   1  10
BRANCH   4  15
ATOM     15  N   UNL     1       7.190   5.923  15.795  0.00  0.00    +0.000 N 
ATOM     16  O   UNL     1       7.855   6.803  16.362  0.00  0.00    +0.000 OA
ATOM     17  O   UNL     1       7.486   5.416  14.708  0.00  0.00    +0.000 OA
ENDBRANCH   4  15
TORSDOF 3
ENDMDL
MODEL 3
REMARK VINA RESULT:      -6.4      1.419      2.019
REMARK  Name = 
REMARK  5 active torsions:
REMARK  status: ('A' for Active; 'I' for Inactive)
REMARK    1  A    between atoms: C_1  and  C_2
REMARK    2  A    between atoms: C_2  and  C_3
REMARK    3  A    between atoms: C_2  and  C_4
REMARK    4  A    between atoms: N_6  and  C_7
REMARK    5  A    between atoms: C_10  and  N_11
REMARK                            x       y       z     vdW  Elec       q    Type
REMARK                         _______ _______ _______ _____ _____    ______ ____
ROOT
ATOM      1  C   UNL     1       4.031   4.762  17.643  0.00  0.00    +0.000 A 
ATOM      2  C   UNL     1       4.422   5.972  17.053  0.00  0.00    +0.000 A 
ATOM      3  C   UNL     1       5.301   5.980  15.967  0.00  0.00    +0.000 A 
ATOM      4  C   UNL     1       5.779   4.767  15.459  0.00  0.00    +0.000 A 
ATOM      5  C   UNL     1       5.398   3.549  16.038  0.00  0.00    +0.000 A 
ATOM      6  C   UNL     1       4.540   3.555  17.141  0.00  0.00    +0.000 A 
ATOM      7 BR   UNL     1       4.006   1.884  17.870  0.00  0.00    +0.000 Br
ENDROOT
BRANCH   1  10
ATOM      8  C   UNL     1       1.798   4.486  18.626  0.00  0.00    +0.000 C 
ATOM      9  O   UNL     1       1.244   4.187  17.572  0.00  0.00    +0.000 OA
ATOM     10  N   UNL     1       3.151   4.753  18.750  0.00  0.00    +0.000 N 
ATOM     11  H   UNL     1       3.570   4.549  19.652  0.00  0.00    +0.000 HD
BRANCH   8  13
ATOM     12  C   UNL     1       1.100   3.264  20.675  0.00  0.00    +0.000 C 
ATOM     13  C   UNL     1       1.038   4.603  19.944  0.00  0.00    +0.000 C 
ATOM     14  C   UNL     1       1.629   5.713  20.811  0.00  0.00    +0.000 C 
ENDBRANCH   8  13
ENDBRANCH   1  10
BRANCH   4  15
ATOM     15  N   UNL     1       6.693   4.767  14.311  0.00  0.00    +0.000 N 
ATOM     16  O   UNL     1       6.423   4.022  13.357  0.00  0.00    +0.000 OA
ATOM     17  O   UNL     1       7.681   5.507  14.362  0.00  0.00    +0.000 OA
ENDBRANCH   4  15
TORSDOF 3
ENDMDL
MODEL 4
REMARK VINA RESULT:      -6.4      1.818      2.411
REMARK  Name = 
REMARK  5 active torsions:
REMARK  status: ('A' for Active; 'I' for Inactive)
REMARK    1  A    between atoms: C_1  and  C_2
REMARK    2  A    between atoms: C_2  and  C_3
REMARK    3  A    between atoms: C_2  and  C_4
REMARK    4  A    between atoms: N_6  and  C_7
REMARK    5  A    between atoms: C_10  and  N_11
REMARK                            x       y       z     vdW  Elec       q    Type
REMARK                         _______ _______ _______ _____ _____    ______ ____
ROOT
ATOM      1  C   UNL     1       3.907   5.180  17.394  0.00  0.00    +0.000 A 
ATOM      2  C   UNL     1       4.493   6.319  16.823  0.00  0.00    +0.000 A 
ATOM      3  C   UNL     1       5.437   6.193  15.800  0.00  0.00    +0.000 A 
ATOM      4  C   UNL     1       5.783   4.921  15.334  0.00  0.00    +0.000 A 
ATOM      5  C   UNL     1       5.205   3.772  15.894  0.00  0.00    +0.000 A 
ATOM      6  C   UNL     1       4.284   3.909  16.936  0.00  0.00    +0.000 A 
ATOM      7 BR   UNL     1       3.485   2.334  17.638  0.00  0.00    +0.000 Br
ENDROOT
BRANCH   1  10
ATOM      8  C   UNL     1       3.304   5.181  19.774  0.00  0.00    +0.000 C 
ATOM      9  O   UNL     1       4.449   5.004  20.183  0.00  0.00    +0.000 OA
ATOM     10  N   UNL     1       2.962   5.305  18.438  0.00  0.00    +0.000 N 
ATOM     11  H   UNL     1       2.142   5.868  18.234  0.00  0.00    +0.000 HD
BRANCH   8  13
ATOM     12  C   UNL     1       1.525   6.691  20.629  0.00  0.00    +0.000 C 
ATOM     13  C   UNL     1       2.107   5.283  20.715  0.00  0.00    +0.000 C 
ATOM     14  C   UNL     1       1.048   4.243  20.354  0.00  0.00    +0.000 C 
ENDBRANCH   8  13
ENDBRANCH   1  10
BRANCH   4  15
ATOM     15  N   UNL     1       6.763   4.781  14.252  0.00  0.00    +0.000 N 
ATOM     16  O   UNL     1       7.765   5.513  14.282  0.00  0.00    +0.000 OA
ATOM     17  O   UNL     1       6.535   3.946  13.372  0.00  0.00    +0.000 OA
ENDBRANCH   4  15
TORSDOF 3
ENDMDL
MODEL 5
REMARK VINA RESULT:      -6.3      1.193      1.524
REMARK  Name = 
REMARK  5 active torsions:
REMARK  status: ('A' for Active; 'I' for Inactive)
REMARK    1  A    between atoms: C_1  and  C_2
REMARK    2  A    between atoms: C_2  and  C_3
REMARK    3  A    between atoms: C_2  and  C_4
REMARK    4  A    between atoms: N_6  and  C_7
REMARK    5  A    between atoms: C_10  and  N_11
REMARK                            x       y       z     vdW  Elec       q    Type
REMARK                         _______ _______ _______ _____ _____    ______ ____
ROOT
ATOM      1  C   UNL     1       3.786   4.529  17.468  0.00  0.00    +0.000 A 
ATOM      2  C   UNL     1       4.396   3.400  16.902  0.00  0.00    +0.000 A 
ATOM      3  C   UNL     1       5.397   3.544  15.939  0.00  0.00    +0.000 A 
ATOM      4  C   UNL     1       5.802   4.825  15.552  0.00  0.00    +0.000 A 
ATOM      5  C   UNL     1       5.203   5.964  16.108  0.00  0.00    +0.000 A 
ATOM      6  C   UNL     1       4.182   5.808  17.050  0.00  0.00    +0.000 A 
ATOM      7 BR   UNL     1       3.426   7.372  17.819  0.00  0.00    +0.000 Br
ENDROOT
BRANCH   1  10
ATOM      8  C   UNL     1       2.984   3.816  19.677  0.00  0.00    +0.000 C 
ATOM      9  O   UNL     1       4.079   3.431  20.078  0.00  0.00    +0.000 OA
ATOM     10  N   UNL     1       2.763   4.385  18.434  0.00  0.00    +0.000 N 
ATOM     11  H   UNL     1       1.993   5.044  18.371  0.00  0.00    +0.000 HD
BRANCH   8  13
ATOM     12  C   UNL     1       0.604   3.102  19.670  0.00  0.00    +0.000 C 
ATOM     13  C   UNL     1       1.719   3.703  20.522  0.00  0.00    +0.000 C 
ATOM     14  C   UNL     1       1.971   2.842  21.758  0.00  0.00    +0.000 C 
ENDBRANCH   8  13
ENDBRANCH   1  10
BRANCH   4  15
ATOM     15  N   UNL     1       6.862   4.984  14.549  0.00  0.00    +0.000 N 
ATOM     16  O   UNL     1       6.729   4.389  13.469  0.00  0.00    +0.000 OA
ATOM     17  O   UNL     1       7.826   5.699  14.840  0.00  0.00    +0.000 OA
ENDBRANCH   4  15
TORSDOF 3
ENDMDL
MODEL 6
REMARK VINA RESULT:      -6.3      1.786      2.163
REMARK  Name = 
REMARK  5 active torsions:
REMARK  status: ('A' for Active; 'I' for Inactive)
REMARK    1  A    between atoms: C_1  and  C_2
REMARK    2  A    between atoms: C_2  and  C_3
REMARK    3  A    between atoms: C_2  and  C_4
REMARK    4  A    between atoms: N_6  and  C_7
REMARK    5  A    between atoms: C_10  and  N_11
REMARK                            x       y       z     vdW  Elec       q    Type
REMARK                         _______ _______ _______ _____ _____    ______ ____
ROOT
ATOM      1  C   UNL     1       4.908   4.894  17.821  0.00  0.00    +0.000 A 
ATOM      2  C   UNL     1       4.254   4.579  16.622  0.00  0.00    +0.000 A 
ATOM      3  C   UNL     1       4.958   4.554  15.415  0.00  0.00    +0.000 A 
ATOM      4  C   UNL     1       6.329   4.829  15.412  0.00  0.00    +0.000 A 
ATOM      5  C   UNL     1       6.998   5.146  16.602  0.00  0.00    +0.000 A 
ATOM      6  C   UNL     1       6.278   5.196  17.799  0.00  0.00    +0.000 A 
ATOM      7 BR   UNL     1       7.226   5.580  19.400  0.00  0.00    +0.000 Br
ENDROOT
BRANCH   1  10
ATOM      8  C   UNL     1       3.644   3.801  19.621  0.00  0.00    +0.000 C 
ATOM      9  O   UNL     1       3.760   2.665  19.169  0.00  0.00    +0.000 OA
ATOM     10  N   UNL     1       4.195   4.932  19.041  0.00  0.00    +0.000 N 
ATOM     11  H   UNL     1       4.428   5.692  19.672  0.00  0.00    +0.000 HD
BRANCH   8  13
ATOM     12  C   UNL     1       1.720   5.057  20.567  0.00  0.00    +0.000 C 
ATOM     13  C   UNL     1       2.861   4.098  20.896  0.00  0.00    +0.000 C 
ATOM     14  C   UNL     1       2.316   2.807  21.506  0.00  0.00    +0.000 C 
ENDBRANCH   8  13
ENDBRANCH   1  10
BRANCH   4  15
ATOM     15  N   UNL     1       7.077   4.793  14.151  0.00  0.00    +0.000 N 
ATOM     16  O   UNL     1       6.697   4.001  13.275  0.00  0.00    +0.000 OA
ATOM     17  O   UNL     1       8.045   5.552  14.033  0.00  0.00    +0.000 OA
ENDBRANCH   4  15
TORSDOF 3
ENDMDL
MODEL 7
REMARK VINA RESULT:      -6.3      2.450      6.124
REMARK  Name = 
REMARK  5 active torsions:
REMARK  status: ('A' for Active; 'I' for Inactive)
REMARK    1  A    between atoms: C_1  and  C_2
REMARK    2  A    between atoms: C_2  and  C_3
REMARK    3  A    between atoms: C_2  and  C_4
REMARK    4  A    between atoms: N_6  and  C_7
REMARK    5  A    between atoms: C_10  and  N_11
REMARK                            x       y       z     vdW  Elec       q    Type
REMARK                         _______ _______ _______ _____ _____    ______ ____
ROOT
ATOM      1  C   UNL     1       4.839   4.115  17.145  0.00  0.00    +0.000 A 
ATOM      2  C   UNL     1       3.477   3.784  17.146  0.00  0.00    +0.000 A 
ATOM      3  C   UNL     1       2.675   4.086  18.251  0.00  0.00    +0.000 A 
ATOM      4  C   UNL     1       3.238   4.738  19.353  0.00  0.00    +0.000 A 
ATOM      5  C   UNL     1       4.599   5.076  19.367  0.00  0.00    +0.000 A 
ATOM      6  C   UNL     1       5.397   4.743  18.268  0.00  0.00    +0.000 A 
ATOM      7 BR   UNL     1       7.225   5.259  18.300  0.00  0.00    +0.000 Br
ENDROOT
BRANCH   1  10
ATOM      8  C   UNL     1       5.894   4.693  15.004  0.00  0.00    +0.000 C 
ATOM      9  O   UNL     1       5.472   5.846  14.975  0.00  0.00    +0.000 OA
ATOM     10  N   UNL     1       5.655   3.798  16.034  0.00  0.00    +0.000 N 
ATOM     11  H   UNL     1       6.365   3.089  16.188  0.00  0.00    +0.000 HD
BRANCH   8  13
ATOM     12  C   UNL     1       5.822   3.541  12.803  0.00  0.00    +0.000 C 
ATOM     13  C   UNL     1       6.744   4.106  13.881  0.00  0.00    +0.000 C 
ATOM     14  C   UNL     1       7.668   5.171  13.291  0.00  0.00    +0.000 C 
ENDBRANCH   8  13
ENDBRANCH   1  10
BRANCH   4  15
ATOM     15  N   UNL     1       2.400   5.069  20.510  0.00  0.00    +0.000 N 
ATOM     16  O   UNL     1       1.832   6.172  20.516  0.00  0.00    +0.000 OA
ATOM     17  O   UNL     1       2.310   4.232  21.414  0.00  0.00    +0.000 OA
ENDBRANCH   4  15
TORSDOF 3
ENDMDL
MODEL 8
REMARK VINA RESULT:      -6.2      1.749      2.074
REMARK  Name = 
REMARK  5 active torsions:
REMARK  status: ('A' for Active; 'I' for Inactive)
REMARK    1  A    between atoms: C_1  and  C_2
REMARK    2  A    between atoms: C_2  and  C_3
REMARK    3  A    between atoms: C_2  and  C_4
REMARK    4  A    between atoms: N_6  and  C_7
REMARK    5  A    between atoms: C_10  and  N_11
REMARK                            x       y       z     vdW  Elec       q    Type
REMARK                         _______ _______ _______ _____ _____    ______ ____
ROOT
ATOM      1  C   UNL     1       3.863   4.244  17.831  0.00  0.00    +0.000 A 
ATOM      2  C   UNL     1       4.806   3.465  17.147  0.00  0.00    +0.000 A 
ATOM      3  C   UNL     1       5.897   4.066  16.513  0.00  0.00    +0.000 A 
ATOM      4  C   UNL     1       6.053   5.454  16.579  0.00  0.00    +0.000 A 
ATOM      5  C   UNL     1       5.119   6.248  17.260  0.00  0.00    +0.000 A 
ATOM      6  C   UNL     1       4.017   5.638  17.866  0.00  0.00    +0.000 A 
ATOM      7 BR   UNL     1       2.798   6.739  18.821  0.00  0.00    +0.000 Br
ENDROOT
BRANCH   1  10
ATOM      8  C   UNL     1       2.864   2.915  19.638  0.00  0.00    +0.000 C 
ATOM      9  O   UNL     1       3.909   2.770  20.266  0.00  0.00    +0.000 OA
ATOM     10  N   UNL     1       2.752   3.639  18.462  0.00  0.00    +0.000 N 
ATOM     11  H   UNL     1       1.848   4.063  18.279  0.00  0.00    +0.000 HD
BRANCH   8  13
ATOM     12  C   UNL     1       1.257   2.736  21.526  0.00  0.00    +0.000 C 
ATOM     13  C   UNL     1       1.545   2.297  20.092  0.00  0.00    +0.000 C 
ATOM     14  C   UNL     1       0.405   2.716  19.165  0.00  0.00    +0.000 C 
ENDBRANCH   8  13
ENDBRANCH   1  10
BRANCH   4  15
ATOM     15  N   UNL     1       7.202   6.091  15.926  0.00  0.00    +0.000 N 
ATOM     16  O   UNL     1       7.557   5.651  14.822  0.00  0.00    +0.000 OA
ATOM     17  O   UNL     1       7.752   7.028  16.514  0.00  0.00    +0.000 OA
ENDBRANCH   4  15
TORSDOF 3
ENDMDL
MODEL 9
REMARK VINA RESULT:      -6.2      1.125      1.418
REMARK  Name = 
REMARK  5 active torsions:
REMARK  status: ('A' for Active; 'I' for Inactive)
REMARK    1  A    between atoms: C_1  and  C_2
REMARK    2  A    between atoms: C_2  and  C_3
REMARK    3  A    between atoms: C_2  and  C_4
REMARK    4  A    between atoms: N_6  and  C_7
REMARK    5  A    between atoms: C_10  and  N_11
REMARK                            x       y       z     vdW  Elec       q    Type
REMARK                         _______ _______ _______ _____ _____    ______ ____
ROOT
ATOM      1  C   UNL     1       3.980   4.590  17.323  0.00  0.00    +0.000 A 
ATOM      2  C   UNL     1       4.536   3.444  16.736  0.00  0.00    +0.000 A 
ATOM      3  C   UNL     1       5.504   3.558  15.734  0.00  0.00    +0.000 A 
ATOM      4  C   UNL     1       5.930   4.828  15.330  0.00  0.00    +0.000 A 
ATOM      5  C   UNL     1       5.385   5.983  15.907  0.00  0.00    +0.000 A 
ATOM      6  C   UNL     1       4.397   5.857  16.887  0.00  0.00    +0.000 A 
ATOM      7 BR   UNL     1       3.716   7.443  17.682  0.00  0.00    +0.000 Br
ENDROOT
BRANCH   1  10
ATOM      8  C   UNL     1       3.229   3.854  19.541  0.00  0.00    +0.000 C 
ATOM      9  O   UNL     1       4.314   3.391  19.883  0.00  0.00    +0.000 OA
ATOM     10  N   UNL     1       2.992   4.477  18.327  0.00  0.00    +0.000 N 
ATOM     11  H   UNL     1       2.262   5.182  18.318  0.00  0.00    +0.000 HD
BRANCH   8  13
ATOM     12  C   UNL     1       1.525   5.211  20.740  0.00  0.00    +0.000 C 
ATOM     13  C   UNL     1       1.995   3.790  20.436  0.00  0.00    +0.000 C 
ATOM     14  C   UNL     1       0.880   2.991  19.761  0.00  0.00    +0.000 C 
ENDBRANCH   8  13
ENDBRANCH   1  10
BRANCH   4  15
ATOM     15  N   UNL     1       6.955   4.955  14.288  0.00  0.00    +0.000 N 
ATOM     16  O   UNL     1       7.942   5.665  14.532  0.00  0.00    +0.000 OA
ATOM     17  O   UNL     1       6.774   4.350  13.226  0.00  0.00    +0.000 OA
ENDBRANCH   4  15
TORSDOF 3
ENDMDL
