MODEL 1
REMARK VINA RESULT:      -8.3      0.000      0.000
REMARK  Name = 
REMARK  4 active torsions:
REMARK  status: ('A' for Active; 'I' for Inactive)
REMARK    1  A    between atoms: C_6  and  N_7
REMARK    2  A    between atoms: C_9  and  C_10
REMARK    3  A    between atoms: C_10  and  S_11
REMARK    4  A    between atoms: S_11  and  C_12
REMARK                            x       y       z     vdW  Elec       q    Type
REMARK                         _______ _______ _______ _____ _____    ______ ____
ROOT
ATOM      1  N   UNL     1       6.801   4.679  15.969  0.00  0.00    +0.000 N 
ATOM      2  C   UNL     1       5.716   5.021  16.752  0.00  0.00    +0.000 A 
ATOM      3  C   UNL     1       6.161   4.929  18.056  0.00  0.00    +0.000 A 
ATOM      4  N   UNL     1       7.476   4.549  18.039  0.00  0.00    +0.000 NA
ATOM      5  N   UNL     1       7.855   4.404  16.775  0.00  0.00    +0.000 NA
ENDROOT
BRANCH   1  11
ATOM      6 CL   UNL     1       5.291   2.348  11.629  0.00  0.00    +0.000 Cl
ATOM      7  C   UNL     1       6.235   3.514  12.471  0.00  0.00    +0.000 A 
ATOM      8  C   UNL     1       7.113   4.329  11.761  0.00  0.00    +0.000 A 
ATOM      9  C   UNL     1       7.874   5.278  12.444  0.00  0.00    +0.000 A 
ATOM     10  C   UNL     1       7.763   5.402  13.833  0.00  0.00    +0.000 A 
ATOM     11  C   UNL     1       6.885   4.571  14.553  0.00  0.00    +0.000 A 
ATOM     12  C   UNL     1       6.112   3.628  13.858  0.00  0.00    +0.000 A 
ENDBRANCH   1  11
BRANCH   3  13
ATOM     13  C   UNL     1       5.433   5.161  19.343  0.00  0.00    +0.000 C 
BRANCH  13  14
ATOM     14  S   UNL     1       3.686   4.716  19.165  0.00  0.00    +0.000 S 
BRANCH  14  15
ATOM     15  C   UNL     1       2.884   6.263  19.085  0.00  0.00    +0.000 A 
ATOM     16  N   UNL     1       2.874   7.082  18.046  0.00  0.00    +0.000 NA
ATOM     17  C   UNL     1       2.169   8.181  18.503  0.00  0.00    +0.000 A 
ATOM     18  C   UNL     1       1.827   9.399  17.894  0.00  0.00    +0.000 A 
ATOM     19  C   UNL     1       1.111  10.349  18.648  0.00  0.00    +0.000 A 
ATOM     20  C   UNL     1       0.731  10.088  19.969  0.00  0.00    +0.000 A 
ATOM     21  C   UNL     1       1.052   8.873  20.586  0.00  0.00    +0.000 A 
ATOM     22  C   UNL     1       1.772   7.969  19.811  0.00  0.00    +0.000 A 
ATOM     23  O   UNL     1       2.222   6.742  20.186  0.00  0.00    +0.000 OA
ENDBRANCH  14  15
ENDBRANCH  13  14
ENDBRANCH   3  13
TORSDOF 4
ENDMDL
MODEL 2
REMARK VINA RESULT:      -8.2      0.674      1.223
REMARK  Name = 
REMARK  4 active torsions:
REMARK  status: ('A' for Active; 'I' for Inactive)
REMARK    1  A    between atoms: C_6  and  N_7
REMARK    2  A    between atoms: C_9  and  C_10
REMARK    3  A    between atoms: C_10  and  S_11
REMARK    4  A    between atoms: S_11  and  C_12
REMARK                            x       y       z     vdW  Elec       q    Type
REMARK                         _______ _______ _______ _____ _____    ______ ____
ROOT
ATOM      1  N   UNL     1       6.796   4.678  15.975  0.00  0.00    +0.000 N 
ATOM      2  C   UNL     1       5.707   4.997  16.760  0.00  0.00    +0.000 A 
ATOM      3  C   UNL     1       6.152   4.900  18.064  0.00  0.00    +0.000 A 
ATOM      4  N   UNL     1       7.473   4.540  18.044  0.00  0.00    +0.000 NA
ATOM      5  N   UNL     1       7.855   4.412  16.779  0.00  0.00    +0.000 NA
ENDROOT
BRANCH   1  11
ATOM      6 CL   UNL     1       5.311   2.371  11.613  0.00  0.00    +0.000 Cl
ATOM      7  C   UNL     1       6.243   3.539  12.467  0.00  0.00    +0.000 A 
ATOM      8  C   UNL     1       7.114   4.369  11.765  0.00  0.00    +0.000 A 
ATOM      9  C   UNL     1       7.866   5.318  12.456  0.00  0.00    +0.000 A 
ATOM     10  C   UNL     1       7.753   5.428  13.846  0.00  0.00    +0.000 A 
ATOM     11  C   UNL     1       6.882   4.583  14.558  0.00  0.00    +0.000 A 
ATOM     12  C   UNL     1       6.119   3.640  13.855  0.00  0.00    +0.000 A 
ENDBRANCH   1  11
BRANCH   3  13
ATOM     13  C   UNL     1       5.421   5.111  19.352  0.00  0.00    +0.000 C 
BRANCH  13  14
ATOM     14  S   UNL     1       3.667   4.707  19.152  0.00  0.00    +0.000 S 
BRANCH  14  15
ATOM     15  C   UNL     1       2.880   6.258  19.279  0.00  0.00    +0.000 A 
ATOM     16  N   UNL     1       2.196   6.701  20.321  0.00  0.00    +0.000 NA
ATOM     17  C   UNL     1       1.729   7.935  19.905  0.00  0.00    +0.000 A 
ATOM     18  C   UNL     1       0.926   8.899  20.536  0.00  0.00    +0.000 A 
ATOM     19  C   UNL     1       0.594  10.067  19.823  0.00  0.00    +0.000 A 
ATOM     20  C   UNL     1       1.061  10.279  18.521  0.00  0.00    +0.000 A 
ATOM     21  C   UNL     1       1.874   9.334  17.883  0.00  0.00    +0.000 A 
ATOM     22  C   UNL     1       2.166   8.189  18.617  0.00  0.00    +0.000 A 
ATOM     23  O   UNL     1       2.907   7.122  18.215  0.00  0.00    +0.000 OA
ENDBRANCH  14  15
ENDBRANCH  13  14
ENDBRANCH   3  13
TORSDOF 4
ENDMDL
MODEL 3
REMARK VINA RESULT:      -8.1      5.360      6.793
REMARK  Name = 
REMARK  4 active torsions:
REMARK  status: ('A' for Active; 'I' for Inactive)
REMARK    1  A    between atoms: C_6  and  N_7
REMARK    2  A    between atoms: C_9  and  C_10
REMARK    3  A    between atoms: C_10  and  S_11
REMARK    4  A    between atoms: S_11  and  C_12
REMARK                            x       y       z     vdW  Elec       q    Type
REMARK                         _______ _______ _______ _____ _____    ______ ____
ROOT
ATOM      1  N   UNL     1       8.404   8.816  18.327  0.00  0.00    +0.000 N 
ATOM      2  C   UNL     1       8.484   7.551  18.872  0.00  0.00    +0.000 A 
ATOM      3  C   UNL     1       7.644   6.767  18.107  0.00  0.00    +0.000 A 
ATOM      4  N   UNL     1       7.090   7.551  17.131  0.00  0.00    +0.000 NA
ATOM      5  N   UNL     1       7.557   8.786  17.269  0.00  0.00    +0.000 NA
ENDROOT
BRANCH   1  11
ATOM      6 CL   UNL     1      10.731  13.248  17.103  0.00  0.00    +0.000 Cl
ATOM      7  C   UNL     1      10.153  12.110  18.258  0.00  0.00    +0.000 A 
ATOM      8  C   UNL     1      10.340  12.354  19.616  0.00  0.00    +0.000 A 
ATOM      9  C   UNL     1       9.866  11.434  20.551  0.00  0.00    +0.000 A 
ATOM     10  C   UNL     1       9.216  10.270  20.125  0.00  0.00    +0.000 A 
ATOM     11  C   UNL     1       9.037  10.017  18.754  0.00  0.00    +0.000 A 
ATOM     12  C   UNL     1       9.504  10.953  17.819  0.00  0.00    +0.000 A 
ENDBRANCH   1  11
BRANCH   3  13
ATOM     13  C   UNL     1       7.303   5.314  18.226  0.00  0.00    +0.000 C 
BRANCH  13  14
ATOM     14  S   UNL     1       6.147   4.831  16.918  0.00  0.00    +0.000 S 
BRANCH  14  15
ATOM     15  C   UNL     1       4.716   4.365  17.799  0.00  0.00    +0.000 A 
ATOM     16  N   UNL     1       3.887   3.385  17.475  0.00  0.00    +0.000 NA
ATOM     17  C   UNL     1       2.897   3.463  18.437  0.00  0.00    +0.000 A 
ATOM     18  C   UNL     1       1.722   2.721  18.642  0.00  0.00    +0.000 A 
ATOM     19  C   UNL     1       0.887   3.070  19.721  0.00  0.00    +0.000 A 
ATOM     20  C   UNL     1       1.217   4.121  20.583  0.00  0.00    +0.000 A 
ATOM     21  C   UNL     1       2.392   4.862  20.401  0.00  0.00    +0.000 A 
ATOM     22  C   UNL     1       3.181   4.493  19.316  0.00  0.00    +0.000 A 
ATOM     23  O   UNL     1       4.346   5.069  18.915  0.00  0.00    +0.000 OA
ENDBRANCH  14  15
ENDBRANCH  13  14
ENDBRANCH   3  13
TORSDOF 4
ENDMDL
MODEL 4
REMARK VINA RESULT:      -8.1      3.151      3.783
REMARK  Name = 
REMARK  4 active torsions:
REMARK  status: ('A' for Active; 'I' for Inactive)
REMARK    1  A    between atoms: C_6  and  N_7
REMARK    2  A    between atoms: C_9  and  C_10
REMARK    3  A    between atoms: C_10  and  S_11
REMARK    4  A    between atoms: S_11  and  C_12
REMARK                            x       y       z     vdW  Elec       q    Type
REMARK                         _______ _______ _______ _____ _____    ______ ____
ROOT
ATOM      1  N   UNL     1       6.429   4.742  14.308  0.00  0.00    +0.000 N 
ATOM      2  C   UNL     1       5.577   5.095  15.335  0.00  0.00    +0.000 A 
ATOM      3  C   UNL     1       6.338   5.856  16.200  0.00  0.00    +0.000 A 
ATOM      4  N   UNL     1       7.605   5.953  15.690  0.00  0.00    +0.000 NA
ATOM      5  N   UNL     1       7.650   5.280  14.546  0.00  0.00    +0.000 NA
ENDROOT
BRANCH   1  11
ATOM      6 CL   UNL     1       3.060   2.920  10.860  0.00  0.00    +0.000 Cl
ATOM      7  C   UNL     1       4.645   3.016  11.524  0.00  0.00    +0.000 A 
ATOM      8  C   UNL     1       5.672   2.260  10.963  0.00  0.00    +0.000 A 
ATOM      9  C   UNL     1       6.957   2.343  11.498  0.00  0.00    +0.000 A 
ATOM     10  C   UNL     1       7.210   3.171  12.596  0.00  0.00    +0.000 A 
ATOM     11  C   UNL     1       6.172   3.926  13.171  0.00  0.00    +0.000 A 
ATOM     12  C   UNL     1       4.884   3.849  12.619  0.00  0.00    +0.000 A 
ENDBRANCH   1  11
BRANCH   3  13
ATOM     13  C   UNL     1       5.969   6.501  17.499  0.00  0.00    +0.000 C 
BRANCH  13  14
ATOM     14  S   UNL     1       6.260   5.358  18.873  0.00  0.00    +0.000 S 
BRANCH  14  15
ATOM     15  C   UNL     1       4.740   4.518  19.025  0.00  0.00    +0.000 A 
ATOM     16  N   UNL     1       4.371   3.447  18.341  0.00  0.00    +0.000 NA
ATOM     17  C   UNL     1       3.079   3.210  18.775  0.00  0.00    +0.000 A 
ATOM     18  C   UNL     1       2.131   2.236  18.423  0.00  0.00    +0.000 A 
ATOM     19  C   UNL     1       0.865   2.278  19.038  0.00  0.00    +0.000 A 
ATOM     20  C   UNL     1       0.553   3.254  19.990  0.00  0.00    +0.000 A 
ATOM     21  C   UNL     1       1.492   4.225  20.362  0.00  0.00    +0.000 A 
ATOM     22  C   UNL     1       2.725   4.155  19.721  0.00  0.00    +0.000 A 
ATOM     23  O   UNL     1       3.785   4.990  19.888  0.00  0.00    +0.000 OA
ENDBRANCH  14  15
ENDBRANCH  13  14
ENDBRANCH   3  13
TORSDOF 4
ENDMDL
MODEL 5
REMARK VINA RESULT:      -8.0      3.209      3.917
REMARK  Name = 
REMARK  4 active torsions:
REMARK  status: ('A' for Active; 'I' for Inactive)
REMARK    1  A    between atoms: C_6  and  N_7
REMARK    2  A    between atoms: C_9  and  C_10
REMARK    3  A    between atoms: C_10  and  S_11
REMARK    4  A    between atoms: S_11  and  C_12
REMARK                            x       y       z     vdW  Elec       q    Type
REMARK                         _______ _______ _______ _____ _____    ______ ____
ROOT
ATOM      1  N   UNL     1       6.388   4.697  14.264  0.00  0.00    +0.000 N 
ATOM      2  C   UNL     1       5.557   5.075  15.299  0.00  0.00    +0.000 A 
ATOM      3  C   UNL     1       6.342   5.837  16.142  0.00  0.00    +0.000 A 
ATOM      4  N   UNL     1       7.602   5.910  15.611  0.00  0.00    +0.000 NA
ATOM      5  N   UNL     1       7.620   5.222  14.476  0.00  0.00    +0.000 NA
ENDROOT
BRANCH   1  11
ATOM      6 CL   UNL     1       2.986   3.018  10.777  0.00  0.00    +0.000 Cl
ATOM      7  C   UNL     1       4.557   3.022  11.479  0.00  0.00    +0.000 A 
ATOM      8  C   UNL     1       5.541   2.182  10.966  0.00  0.00    +0.000 A 
ATOM      9  C   UNL     1       6.816   2.190  11.531  0.00  0.00    +0.000 A 
ATOM     10  C   UNL     1       7.099   3.029  12.615  0.00  0.00    +0.000 A 
ATOM     11  C   UNL     1       6.102   3.870  13.142  0.00  0.00    +0.000 A 
ATOM     12  C   UNL     1       4.827   3.867  12.559  0.00  0.00    +0.000 A 
ENDBRANCH   1  11
BRANCH   3  13
ATOM     13  C   UNL     1       6.002   6.504  17.438  0.00  0.00    +0.000 C 
BRANCH  13  14
ATOM     14  S   UNL     1       6.191   5.341  18.812  0.00  0.00    +0.000 S 
BRANCH  14  15
ATOM     15  C   UNL     1       4.586   4.690  19.012  0.00  0.00    +0.000 A 
ATOM     16  N   UNL     1       3.688   5.088  19.898  0.00  0.00    +0.000 NA
ATOM     17  C   UNL     1       2.623   4.229  19.695  0.00  0.00    +0.000 A 
ATOM     18  C   UNL     1       1.374   4.113  20.325  0.00  0.00    +0.000 A 
ATOM     19  C   UNL     1       0.499   3.095  19.898  0.00  0.00    +0.000 A 
ATOM     20  C   UNL     1       0.850   2.225  18.861  0.00  0.00    +0.000 A 
ATOM     21  C   UNL     1       2.087   2.336  18.213  0.00  0.00    +0.000 A 
ATOM     22  C   UNL     1       2.926   3.345  18.675  0.00  0.00    +0.000 A 
ATOM     23  O   UNL     1       4.178   3.639  18.231  0.00  0.00    +0.000 OA
ENDBRANCH  14  15
ENDBRANCH  13  14
ENDBRANCH   3  13
TORSDOF 4
ENDMDL
MODEL 6
REMARK VINA RESULT:      -8.0      2.739      3.716
REMARK  Name = 
REMARK  4 active torsions:
REMARK  status: ('A' for Active; 'I' for Inactive)
REMARK    1  A    between atoms: C_6  and  N_7
REMARK    2  A    between atoms: C_9  and  C_10
REMARK    3  A    between atoms: C_10  and  S_11
REMARK    4  A    between atoms: S_11  and  C_12
REMARK                            x       y       z     vdW  Elec       q    Type
REMARK                         _______ _______ _______ _____ _____    ______ ____
ROOT
ATOM      1  N   UNL     1       6.400   4.601  14.173  0.00  0.00    +0.000 N 
ATOM      2  C   UNL     1       5.581   4.907  15.240  0.00  0.00    +0.000 A 
ATOM      3  C   UNL     1       6.348   5.690  16.081  0.00  0.00    +0.000 A 
ATOM      4  N   UNL     1       7.586   5.845  15.516  0.00  0.00    +0.000 NA
ATOM      5  N   UNL     1       7.608   5.187  14.364  0.00  0.00    +0.000 NA
ENDROOT
BRANCH   1  11
ATOM      6 CL   UNL     1       3.012   2.888  10.689  0.00  0.00    +0.000 Cl
ATOM      7  C   UNL     1       4.590   2.926  11.375  0.00  0.00    +0.000 A 
ATOM      8  C   UNL     1       5.593   2.125  10.835  0.00  0.00    +0.000 A 
ATOM      9  C   UNL     1       6.873   2.160  11.388  0.00  0.00    +0.000 A 
ATOM     10  C   UNL     1       7.142   2.987  12.484  0.00  0.00    +0.000 A 
ATOM     11  C   UNL     1       6.127   3.787  13.037  0.00  0.00    +0.000 A 
ATOM     12  C   UNL     1       4.846   3.758  12.468  0.00  0.00    +0.000 A 
ENDBRANCH   1  11
BRANCH   3  13
ATOM     13  C   UNL     1       6.010   6.305  17.402  0.00  0.00    +0.000 C 
BRANCH  13  14
ATOM     14  S   UNL     1       4.354   7.036  17.349  0.00  0.00    +0.000 S 
BRANCH  14  15
ATOM     15  C   UNL     1       3.394   5.924  18.288  0.00  0.00    +0.000 A 
ATOM     16  N   UNL     1       3.327   5.876  19.609  0.00  0.00    +0.000 NA
ATOM     17  C   UNL     1       2.496   4.798  19.856  0.00  0.00    +0.000 A 
ATOM     18  C   UNL     1       2.043   4.212  21.049  0.00  0.00    +0.000 A 
ATOM     19  C   UNL     1       1.208   3.081  20.967  0.00  0.00    +0.000 A 
ATOM     20  C   UNL     1       0.819   2.556  19.730  0.00  0.00    +0.000 A 
ATOM     21  C   UNL     1       1.251   3.137  18.531  0.00  0.00    +0.000 A 
ATOM     22  C   UNL     1       2.085   4.243  18.657  0.00  0.00    +0.000 A 
ATOM     23  O   UNL     1       2.653   4.962  17.653  0.00  0.00    +0.000 OA
ENDBRANCH  14  15
ENDBRANCH  13  14
ENDBRANCH   3  13
TORSDOF 4
ENDMDL
MODEL 7
REMARK VINA RESULT:      -7.8      3.517      8.117
REMARK  Name = 
REMARK  4 active torsions:
REMARK  status: ('A' for Active; 'I' for Inactive)
REMARK    1  A    between atoms: C_6  and  N_7
REMARK    2  A    between atoms: C_9  and  C_10
REMARK    3  A    between atoms: C_10  and  S_11
REMARK    4  A    between atoms: S_11  and  C_12
REMARK                            x       y       z     vdW  Elec       q    Type
REMARK                         _______ _______ _______ _____ _____    ______ ____
ROOT
ATOM      1  N   UNL     1       3.004   6.367  19.205  0.00  0.00    +0.000 N 
ATOM      2  C   UNL     1       4.338   6.225  18.879  0.00  0.00    +0.000 A 
ATOM      3  C   UNL     1       4.602   4.874  18.989  0.00  0.00    +0.000 A 
ATOM      4  N   UNL     1       3.448   4.237  19.362  0.00  0.00    +0.000 NA
ATOM      5  N   UNL     1       2.489   5.145  19.487  0.00  0.00    +0.000 NA
ENDROOT
BRANCH   1  11
ATOM      6 CL   UNL     1       0.018   9.483  22.020  0.00  0.00    +0.000 Cl
ATOM      7  C   UNL     1       0.801   9.061  20.547  0.00  0.00    +0.000 A 
ATOM      8  C   UNL     1       0.637   9.870  19.425  0.00  0.00    +0.000 A 
ATOM      9  C   UNL     1       1.276   9.530  18.233  0.00  0.00    +0.000 A 
ATOM     10  C   UNL     1       2.067   8.378  18.163  0.00  0.00    +0.000 A 
ATOM     11  C   UNL     1       2.225   7.554  19.292  0.00  0.00    +0.000 A 
ATOM     12  C   UNL     1       1.590   7.909  20.491  0.00  0.00    +0.000 A 
ENDBRANCH   1  11
BRANCH   3  13
ATOM     13  C   UNL     1       5.877   4.118  18.779  0.00  0.00    +0.000 C 
BRANCH  13  14
ATOM     14  S   UNL     1       7.106   5.174  17.970  0.00  0.00    +0.000 S 
BRANCH  14  15
ATOM     15  C   UNL     1       6.872   4.838  16.276  0.00  0.00    +0.000 A 
ATOM     16  N   UNL     1       5.966   4.023  15.761  0.00  0.00    +0.000 NA
ATOM     17  C   UNL     1       6.230   4.054  14.404  0.00  0.00    +0.000 A 
ATOM     18  C   UNL     1       5.639   3.395  13.314  0.00  0.00    +0.000 A 
ATOM     19  C   UNL     1       6.165   3.620  12.027  0.00  0.00    +0.000 A 
ATOM     20  C   UNL     1       7.241   4.491  11.826  0.00  0.00    +0.000 A 
ATOM     21  C   UNL     1       7.833   5.168  12.901  0.00  0.00    +0.000 A 
ATOM     22  C   UNL     1       7.292   4.906  14.156  0.00  0.00    +0.000 A 
ATOM     23  O   UNL     1       7.702   5.413  15.348  0.00  0.00    +0.000 OA
ENDBRANCH  14  15
ENDBRANCH  13  14
ENDBRANCH   3  13
TORSDOF 4
ENDMDL
MODEL 8
REMARK VINA RESULT:      -7.7      3.491      8.553
REMARK  Name = 
REMARK  4 active torsions:
REMARK  status: ('A' for Active; 'I' for Inactive)
REMARK    1  A    between atoms: C_6  and  N_7
REMARK    2  A    between atoms: C_9  and  C_10
REMARK    3  A    between atoms: C_10  and  S_11
REMARK    4  A    between atoms: S_11  and  C_12
REMARK                            x       y       z     vdW  Elec       q    Type
REMARK                         _______ _______ _______ _____ _____    ______ ____
ROOT
ATOM      1  N   UNL     1       2.465   7.763  18.872  0.00  0.00    +0.000 N 
ATOM      2  C   UNL     1       2.891   6.537  19.340  0.00  0.00    +0.000 A 
ATOM      3  C   UNL     1       3.774   6.066  18.388  0.00  0.00    +0.000 A 
ATOM      4  N   UNL     1       3.869   6.997  17.389  0.00  0.00    +0.000 NA
ATOM      5  N   UNL     1       3.079   8.020  17.691  0.00  0.00    +0.000 NA
ENDROOT
BRANCH   1  11
ATOM      6 CL   UNL     1      -0.241   9.290  22.983  0.00  0.00    +0.000 Cl
ATOM      7  C   UNL     1       0.203   9.429  21.326  0.00  0.00    +0.000 A 
ATOM      8  C   UNL     1      -0.398  10.403  20.533  0.00  0.00    +0.000 A 
ATOM      9  C   UNL     1      -0.034  10.519  19.192  0.00  0.00    +0.000 A 
ATOM     10  C   UNL     1       0.921   9.653  18.645  0.00  0.00    +0.000 A 
ATOM     11  C   UNL     1       1.519   8.661  19.442  0.00  0.00    +0.000 A 
ATOM     12  C   UNL     1       1.159   8.560  20.794  0.00  0.00    +0.000 A 
ENDBRANCH   1  11
BRANCH   3  13
ATOM     13  C   UNL     1       4.541   4.782  18.334  0.00  0.00    +0.000 C 
BRANCH  13  14
ATOM     14  S   UNL     1       6.309   5.116  18.128  0.00  0.00    +0.000 S 
BRANCH  14  15
ATOM     15  C   UNL     1       6.571   4.859  16.424  0.00  0.00    +0.000 A 
ATOM     16  N   UNL     1       7.487   5.455  15.678  0.00  0.00    +0.000 NA
ATOM     17  C   UNL     1       7.245   4.965  14.407  0.00  0.00    +0.000 A 
ATOM     18  C   UNL     1       7.854   5.219  13.168  0.00  0.00    +0.000 A 
ATOM     19  C   UNL     1       7.349   4.569  12.025  0.00  0.00    +0.000 A 
ATOM     20  C   UNL     1       6.275   3.677  12.115  0.00  0.00    +0.000 A 
ATOM     21  C   UNL     1       5.664   3.403  13.345  0.00  0.00    +0.000 A 
ATOM     22  C   UNL     1       6.185   4.076  14.445  0.00  0.00    +0.000 A 
ATOM     23  O   UNL     1       5.755   4.001  15.733  0.00  0.00    +0.000 OA
ENDBRANCH  14  15
ENDBRANCH  13  14
ENDBRANCH   3  13
TORSDOF 4
ENDMDL
MODEL 9
REMARK VINA RESULT:      -7.7      5.433      6.912
REMARK  Name = 
REMARK  4 active torsions:
REMARK  status: ('A' for Active; 'I' for Inactive)
REMARK    1  A    between atoms: C_6  and  N_7
REMARK    2  A    between atoms: C_9  and  C_10
REMARK    3  A    between atoms: C_10  and  S_11
REMARK    4  A    between atoms: S_11  and  C_12
REMARK                            x       y       z     vdW  Elec       q    Type
REMARK                         _______ _______ _______ _____ _____    ______ ____
ROOT
ATOM      1  N   UNL     1       8.444   8.862  18.469  0.00  0.00    +0.000 N 
ATOM      2  C   UNL     1       7.487   8.648  17.497  0.00  0.00    +0.000 A 
ATOM      3  C   UNL     1       7.191   7.301  17.563  0.00  0.00    +0.000 A 
ATOM      4  N   UNL     1       7.950   6.739  18.554  0.00  0.00    +0.000 NA
ATOM      5  N   UNL     1       8.701   7.689  19.097  0.00  0.00    +0.000 NA
ENDROOT
BRANCH   1  11
ATOM      6 CL   UNL     1      10.970  13.076  16.913  0.00  0.00    +0.000 Cl
ATOM      7  C   UNL     1      10.338  12.059  18.150  0.00  0.00    +0.000 A 
ATOM      8  C   UNL     1      10.534  12.400  19.486  0.00  0.00    +0.000 A 
ATOM      9  C   UNL     1      10.017  11.579  20.488  0.00  0.00    +0.000 A 
ATOM     10  C   UNL     1       9.317  10.416  20.152  0.00  0.00    +0.000 A 
ATOM     11  C   UNL     1       9.129  10.064  18.803  0.00  0.00    +0.000 A 
ATOM     12  C   UNL     1       9.639  10.902  17.800  0.00  0.00    +0.000 A 
ENDBRANCH   1  11
BRANCH   3  13
ATOM     13  C   UNL     1       6.242   6.480  16.746  0.00  0.00    +0.000 C 
BRANCH  13  14
ATOM     14  S   UNL     1       6.514   4.716  17.054  0.00  0.00    +0.000 S 
BRANCH  14  15
ATOM     15  C   UNL     1       5.003   4.192  17.748  0.00  0.00    +0.000 A 
ATOM     16  N   UNL     1       3.832   4.164  17.133  0.00  0.00    +0.000 NA
ATOM     17  C   UNL     1       2.956   3.739  18.116  0.00  0.00    +0.000 A 
ATOM     18  C   UNL     1       1.569   3.523  18.112  0.00  0.00    +0.000 A 
ATOM     19  C   UNL     1       0.950   3.107  19.307  0.00  0.00    +0.000 A 
ATOM     20  C   UNL     1       1.694   2.896  20.472  0.00  0.00    +0.000 A 
ATOM     21  C   UNL     1       3.081   3.093  20.490  0.00  0.00    +0.000 A 
ATOM     22  C   UNL     1       3.649   3.517  19.293  0.00  0.00    +0.000 A 
ATOM     23  O   UNL     1       4.959   3.800  19.061  0.00  0.00    +0.000 OA
ENDBRANCH  14  15
ENDBRANCH  13  14
ENDBRANCH   3  13
TORSDOF 4
ENDMDL
