MODEL 1
REMARK VINA RESULT:      -6.7      0.000      0.000
REMARK  Name = 
REMARK  11 active torsions:
REMARK  status: ('A' for Active; 'I' for Inactive)
REMARK    1  A    between atoms: C_1  and  C_2
REMARK    2  A    between atoms: C_6  and  C_7
REMARK    3  A    between atoms: C_8  and  O_9
REMARK    4  A    between atoms: O_9  and  C_10
REMARK    5  A    between atoms: C_10  and  C_11
REMARK    6  A    between atoms: C_11  and  O_12
REMARK    7  A    between atoms: O_12  and  C_13
REMARK    8  A    between atoms: C_13  and  C_14
REMARK    9  A    between atoms: C_14  and  N_15
REMARK   10  A    between atoms: N_15  and  C_16
REMARK   11  A    between atoms: C_19  and  O_20
REMARK                            x       y       z     vdW  Elec       q    Type
REMARK                         _______ _______ _______ _____ _____    ______ ____
ROOT
ATOM      1  O   UNL     1       7.750   6.114  18.608  0.00  0.00    +0.000 OA
ENDROOT
BRANCH   1   2
ATOM      2  C   UNL     1       7.618   6.968  17.470  0.00  0.00    +0.000 C 
BRANCH   2   3
ATOM      3  C   UNL     1       6.683   6.416  16.390  0.00  0.00    +0.000 C 
BRANCH   3   4
ATOM      4  O   UNL     1       7.463   5.770  15.401  0.00  0.00    +0.000 OA
BRANCH   4  12
ATOM      5  C   UNL     1       4.955   3.885  15.785  0.00  0.00    +0.000 C 
ATOM      6  C   UNL     1       5.786   4.110  14.552  0.00  0.00    +0.000 A 
ATOM      7  C   UNL     1       5.384   3.384  13.408  0.00  0.00    +0.000 A 
ATOM      8  C   UNL     1       6.065   3.482  12.198  0.00  0.00    +0.000 A 
ATOM      9  C   UNL     1       7.176   4.306  12.103  0.00  0.00    +0.000 A 
ATOM     10  C   UNL     1       7.602   5.043  13.216  0.00  0.00    +0.000 A 
ATOM     11  C   UNL     1       8.826   5.914  13.082  0.00  0.00    +0.000 C 
ATOM     12  C   UNL     1       6.907   4.958  14.450  0.00  0.00    +0.000 A 
ENDBRANCH   4  12
ENDBRANCH   3   4
ENDBRANCH   2   3
ENDBRANCH   1   2
BRANCH   1  13
ATOM     13  C   UNL     1       6.701   5.166  18.809  0.00  0.00    +0.000 C 
BRANCH  13  14
ATOM     14  C   UNL     1       5.339   5.747  19.244  0.00  0.00    +0.000 C 
BRANCH  14  15
ATOM     15  N   UNL     1       4.300   4.730  19.431  0.00  0.00    +0.000 NA
ATOM     16  H   UNL     1       4.550   4.115  20.202  0.00  0.00    +0.000 HD
BRANCH  15  17
ATOM     17  C   UNL     1       2.952   5.296  19.586  0.00  0.00    +0.000 C 
ATOM     18  C   UNL     1       2.099   4.619  20.671  0.00  0.00    +0.000 C 
ATOM     19  C   UNL     1       1.745   3.175  20.332  0.00  0.00    +0.000 C 
ATOM     20  C   UNL     1       1.133   3.009  18.939  0.00  0.00    +0.000 C 
ATOM     21  C   UNL     1       1.846   3.796  17.838  0.00  0.00    +0.000 C 
ATOM     22  C   UNL     1       2.183   5.227  18.255  0.00  0.00    +0.000 C 
BRANCH  20  23
ATOM     23  O   UNL     1       1.137   1.622  18.597  0.00  0.00    +0.000 OA
ATOM     24  H   UNL     1       1.378   1.118  19.390  0.00  0.00    +0.000 HD
ENDBRANCH  20  23
ENDBRANCH  15  17
ENDBRANCH  14  15
ENDBRANCH  13  14
ENDBRANCH   1  13
TORSDOF 9
ENDMDL
MODEL 2
REMARK VINA RESULT:      -6.7      1.281      1.596
REMARK  Name = 
REMARK  11 active torsions:
REMARK  status: ('A' for Active; 'I' for Inactive)
REMARK    1  A    between atoms: C_1  and  C_2
REMARK    2  A    between atoms: C_6  and  C_7
REMARK    3  A    between atoms: C_8  and  O_9
REMARK    4  A    between atoms: O_9  and  C_10
REMARK    5  A    between atoms: C_10  and  C_11
REMARK    6  A    between atoms: C_11  and  O_12
REMARK    7  A    between atoms: O_12  and  C_13
REMARK    8  A    between atoms: C_13  and  C_14
REMARK    9  A    between atoms: C_14  and  N_15
REMARK   10  A    between atoms: N_15  and  C_16
REMARK   11  A    between atoms: C_19  and  O_20
REMARK                            x       y       z     vdW  Elec       q    Type
REMARK                         _______ _______ _______ _____ _____    ______ ____
ROOT
ATOM      1  O   UNL     1       5.544   7.086  16.589  0.00  0.00    +0.000 OA
ENDROOT
BRANCH   1   2
ATOM      2  C   UNL     1       6.757   6.689  17.231  0.00  0.00    +0.000 C 
BRANCH   2   3
ATOM      3  C   UNL     1       7.390   5.430  16.632  0.00  0.00    +0.000 C 
BRANCH   3   4
ATOM      4  O   UNL     1       7.622   5.651  15.253  0.00  0.00    +0.000 OA
BRANCH   4  12
ATOM      5  C   UNL     1       5.213   3.644  15.653  0.00  0.00    +0.000 C 
ATOM      6  C   UNL     1       5.962   3.979  14.393  0.00  0.00    +0.000 A 
ATOM      7  C   UNL     1       5.523   3.310  13.228  0.00  0.00    +0.000 A 
ATOM      8  C   UNL     1       6.129   3.511  11.992  0.00  0.00    +0.000 A 
ATOM      9  C   UNL     1       7.200   4.385  11.889  0.00  0.00    +0.000 A 
ATOM     10  C   UNL     1       7.662   5.068  13.022  0.00  0.00    +0.000 A 
ATOM     11  C   UNL     1       8.842   5.996  12.877  0.00  0.00    +0.000 C 
ATOM     12  C   UNL     1       7.043   4.878  14.284  0.00  0.00    +0.000 A 
ENDBRANCH   4  12
ENDBRANCH   3   4
ENDBRANCH   2   3
ENDBRANCH   1   2
BRANCH   1  13
ATOM     13  C   UNL     1       4.333   6.743  17.263  0.00  0.00    +0.000 C 
BRANCH  13  14
ATOM     14  C   UNL     1       4.489   5.897  18.544  0.00  0.00    +0.000 C 
BRANCH  14  15
ATOM     15  N   UNL     1       3.635   4.706  18.568  0.00  0.00    +0.000 NA
ATOM     16  H   UNL     1       3.994   4.033  19.241  0.00  0.00    +0.000 HD
BRANCH  15  17
ATOM     17  C   UNL     1       2.215   5.013  18.793  0.00  0.00    +0.000 C 
ATOM     18  C   UNL     1       1.900   5.579  20.187  0.00  0.00    +0.000 C 
ATOM     19  C   UNL     1       2.135   4.569  21.305  0.00  0.00    +0.000 C 
ATOM     20  C   UNL     1       1.445   3.224  21.066  0.00  0.00    +0.000 C 
ATOM     21  C   UNL     1       1.585   2.686  19.641  0.00  0.00    +0.000 C 
ATOM     22  C   UNL     1       1.351   3.757  18.577  0.00  0.00    +0.000 C 
BRANCH  20  23
ATOM     23  O   UNL     1       1.977   2.265  21.981  0.00  0.00    +0.000 OA
ATOM     24  H   UNL     1       1.258   1.668  22.241  0.00  0.00    +0.000 HD
ENDBRANCH  20  23
ENDBRANCH  15  17
ENDBRANCH  14  15
ENDBRANCH  13  14
ENDBRANCH   1  13
TORSDOF 9
ENDMDL
MODEL 3
REMARK VINA RESULT:      -6.6      1.253      1.327
REMARK  Name = 
REMARK  11 active torsions:
REMARK  status: ('A' for Active; 'I' for Inactive)
REMARK    1  A    between atoms: C_1  and  C_2
REMARK    2  A    between atoms: C_6  and  C_7
REMARK    3  A    between atoms: C_8  and  O_9
REMARK    4  A    between atoms: O_9  and  C_10
REMARK    5  A    between atoms: C_10  and  C_11
REMARK    6  A    between atoms: C_11  and  O_12
REMARK    7  A    between atoms: O_12  and  C_13
REMARK    8  A    between atoms: C_13  and  C_14
REMARK    9  A    between atoms: C_14  and  N_15
REMARK   10  A    between atoms: N_15  and  C_16
REMARK   11  A    between atoms: C_19  and  O_20
REMARK                            x       y       z     vdW  Elec       q    Type
REMARK                         _______ _______ _______ _____ _____    ______ ____
ROOT
ATOM      1  O   UNL     1       6.496   4.475  18.415  0.00  0.00    +0.000 OA
ENDROOT
BRANCH   1   2
ATOM      2  C   UNL     1       7.490   5.049  17.564  0.00  0.00    +0.000 C 
BRANCH   2   3
ATOM      3  C   UNL     1       6.914   5.917  16.442  0.00  0.00    +0.000 C 
BRANCH   3   4
ATOM      4  O   UNL     1       7.604   5.623  15.241  0.00  0.00    +0.000 OA
BRANCH   4  12
ATOM      5  C   UNL     1       5.114   3.694  15.517  0.00  0.00    +0.000 C 
ATOM      6  C   UNL     1       5.924   4.019  14.293  0.00  0.00    +0.000 A 
ATOM      7  C   UNL     1       5.511   3.379  13.102  0.00  0.00    +0.000 A 
ATOM      8  C   UNL     1       6.172   3.575  11.894  0.00  0.00    +0.000 A 
ATOM      9  C   UNL     1       7.276   4.413  11.846  0.00  0.00    +0.000 A 
ATOM     10  C   UNL     1       7.714   5.066  13.005  0.00  0.00    +0.000 A 
ATOM     11  C   UNL     1       8.930   5.955  12.920  0.00  0.00    +0.000 C 
ATOM     12  C   UNL     1       7.038   4.882  14.239  0.00  0.00    +0.000 A 
ENDBRANCH   4  12
ENDBRANCH   3   4
ENDBRANCH   2   3
ENDBRANCH   1   2
BRANCH   1  13
ATOM     13  C   UNL     1       6.012   5.308  19.469  0.00  0.00    +0.000 C 
BRANCH  13  14
ATOM     14  C   UNL     1       4.621   5.938  19.248  0.00  0.00    +0.000 C 
BRANCH  14  15
ATOM     15  N   UNL     1       3.773   5.179  18.324  0.00  0.00    +0.000 NA
ATOM     16  H   UNL     1       4.328   4.480  17.837  0.00  0.00    +0.000 HD
BRANCH  15  17
ATOM     17  C   UNL     1       2.587   4.597  18.969  0.00  0.00    +0.000 C 
ATOM     18  C   UNL     1       2.891   3.752  20.216  0.00  0.00    +0.000 C 
ATOM     19  C   UNL     1       3.672   2.482  19.897  0.00  0.00    +0.000 C 
ATOM     20  C   UNL     1       3.042   1.645  18.780  0.00  0.00    +0.000 C 
ATOM     21  C   UNL     1       2.567   2.457  17.574  0.00  0.00    +0.000 C 
ATOM     22  C   UNL     1       1.808   3.721  17.972  0.00  0.00    +0.000 C 
BRANCH  20  23
ATOM     23  O   UNL     1       3.993   0.672  18.342  0.00  0.00    +0.000 OA
ATOM     24  H   UNL     1       3.973   0.649  17.373  0.00  0.00    +0.000 HD
ENDBRANCH  20  23
ENDBRANCH  15  17
ENDBRANCH  14  15
ENDBRANCH  13  14
ENDBRANCH   1  13
TORSDOF 9
ENDMDL
MODEL 4
REMARK VINA RESULT:      -6.5      2.525      6.787
REMARK  Name = 
REMARK  11 active torsions:
REMARK  status: ('A' for Active; 'I' for Inactive)
REMARK    1  A    between atoms: C_1  and  C_2
REMARK    2  A    between atoms: C_6  and  C_7
REMARK    3  A    between atoms: C_8  and  O_9
REMARK    4  A    between atoms: O_9  and  C_10
REMARK    5  A    between atoms: C_10  and  C_11
REMARK    6  A    between atoms: C_11  and  O_12
REMARK    7  A    between atoms: O_12  and  C_13
REMARK    8  A    between atoms: C_13  and  C_14
REMARK    9  A    between atoms: C_14  and  N_15
REMARK   10  A    between atoms: N_15  and  C_16
REMARK   11  A    between atoms: C_19  and  O_20
REMARK                            x       y       z     vdW  Elec       q    Type
REMARK                         _______ _______ _______ _____ _____    ______ ____
ROOT
ATOM      1  O   UNL     1       7.328   5.775  16.895  0.00  0.00    +0.000 OA
ENDROOT
BRANCH   1   2
ATOM      2  C   UNL     1       7.640   5.381  18.232  0.00  0.00    +0.000 C 
BRANCH   2   3
ATOM      3  C   UNL     1       6.431   5.375  19.171  0.00  0.00    +0.000 C 
BRANCH   3   4
ATOM      4  O   UNL     1       5.660   4.217  18.912  0.00  0.00    +0.000 OA
BRANCH   4  12
ATOM      5  C   UNL     1       4.062   6.543  17.488  0.00  0.00    +0.000 C 
ATOM      6  C   UNL     1       3.537   5.267  18.085  0.00  0.00    +0.000 A 
ATOM      7  C   UNL     1       2.139   5.080  17.989  0.00  0.00    +0.000 A 
ATOM      8  C   UNL     1       1.511   3.952  18.507  0.00  0.00    +0.000 A 
ATOM      9  C   UNL     1       2.266   2.980  19.145  0.00  0.00    +0.000 A 
ATOM     10  C   UNL     1       3.654   3.130  19.258  0.00  0.00    +0.000 A 
ATOM     11  C   UNL     1       4.442   2.063  19.975  0.00  0.00    +0.000 C 
ATOM     12  C   UNL     1       4.305   4.271  18.722  0.00  0.00    +0.000 A 
ENDBRANCH   4  12
ENDBRANCH   3   4
ENDBRANCH   2   3
ENDBRANCH   1   2
BRANCH   1  13
ATOM     13  C   UNL     1       7.372   4.744  15.908  0.00  0.00    +0.000 C 
BRANCH  13  14
ATOM     14  C   UNL     1       6.045   4.450  15.177  0.00  0.00    +0.000 C 
BRANCH  14  15
ATOM     15  N   UNL     1       6.175   3.466  14.099  0.00  0.00    +0.000 NA
ATOM     16  H   UNL     1       5.538   2.689  14.258  0.00  0.00    +0.000 HD
BRANCH  15  17
ATOM     17  C   UNL     1       6.018   4.048  12.758  0.00  0.00    +0.000 C 
ATOM     18  C   UNL     1       4.831   3.488  11.956  0.00  0.00    +0.000 C 
ATOM     19  C   UNL     1       5.004   2.018  11.590  0.00  0.00    +0.000 C 
ATOM     20  C   UNL     1       6.344   1.711  10.916  0.00  0.00    +0.000 C 
ATOM     21  C   UNL     1       7.551   2.380  11.577  0.00  0.00    +0.000 C 
ATOM     22  C   UNL     1       7.298   3.845  11.929  0.00  0.00    +0.000 C 
BRANCH  20  23
ATOM     23  O   UNL     1       6.542   0.296  10.908  0.00  0.00    +0.000 OA
ATOM     24  H   UNL     1       6.075  -0.076  11.672  0.00  0.00    +0.000 HD
ENDBRANCH  20  23
ENDBRANCH  15  17
ENDBRANCH  14  15
ENDBRANCH  13  14
ENDBRANCH   1  13
TORSDOF 9
ENDMDL
MODEL 5
REMARK VINA RESULT:      -6.5      3.493      7.759
REMARK  Name = 
REMARK  11 active torsions:
REMARK  status: ('A' for Active; 'I' for Inactive)
REMARK    1  A    between atoms: C_1  and  C_2
REMARK    2  A    between atoms: C_6  and  C_7
REMARK    3  A    between atoms: C_8  and  O_9
REMARK    4  A    between atoms: O_9  and  C_10
REMARK    5  A    between atoms: C_10  and  C_11
REMARK    6  A    between atoms: C_11  and  O_12
REMARK    7  A    between atoms: O_12  and  C_13
REMARK    8  A    between atoms: C_13  and  C_14
REMARK    9  A    between atoms: C_14  and  N_15
REMARK   10  A    between atoms: N_15  and  C_16
REMARK   11  A    between atoms: C_19  and  O_20
REMARK                            x       y       z     vdW  Elec       q    Type
REMARK                         _______ _______ _______ _____ _____    ______ ____
ROOT
ATOM      1  O   UNL     1       2.931   5.095  19.079  0.00  0.00    +0.000 OA
ENDROOT
BRANCH   1   2
ATOM      2  C   UNL     1       2.593   5.317  20.449  0.00  0.00    +0.000 C 
BRANCH   2   3
ATOM      3  C   UNL     1       1.349   6.186  20.645  0.00  0.00    +0.000 C 
BRANCH   3   4
ATOM      4  O   UNL     1       1.758   7.529  20.833  0.00  0.00    +0.000 OA
BRANCH   4  12
ATOM      5  C   UNL     1       2.556   8.271  17.865  0.00  0.00    +0.000 C 
ATOM      6  C   UNL     1       1.546   8.930  18.763  0.00  0.00    +0.000 A 
ATOM      7  C   UNL     1       0.854  10.026  18.199  0.00  0.00    +0.000 A 
ATOM      8  C   UNL     1      -0.102  10.740  18.915  0.00  0.00    +0.000 A 
ATOM      9  C   UNL     1      -0.386  10.381  20.224  0.00  0.00    +0.000 A 
ATOM     10  C   UNL     1       0.278   9.298  20.816  0.00  0.00    +0.000 A 
ATOM     11  C   UNL     1      -0.042   8.948  22.247  0.00  0.00    +0.000 C 
ATOM     12  C   UNL     1       1.245   8.557  20.089  0.00  0.00    +0.000 A 
ENDBRANCH   4  12
ENDBRANCH   3   4
ENDBRANCH   2   3
ENDBRANCH   1   2
BRANCH   1  13
ATOM     13  C   UNL     1       2.441   3.887  18.497  0.00  0.00    +0.000 C 
BRANCH  13  14
ATOM     14  C   UNL     1       3.175   3.399  17.231  0.00  0.00    +0.000 C 
BRANCH  14  15
ATOM     15  N   UNL     1       4.629   3.582  17.289  0.00  0.00    +0.000 NA
ATOM     16  H   UNL     1       5.088   2.683  17.415  0.00  0.00    +0.000 HD
BRANCH  15  17
ATOM     17  C   UNL     1       5.168   4.326  16.141  0.00  0.00    +0.000 C 
ATOM     18  C   UNL     1       6.664   4.092  15.877  0.00  0.00    +0.000 C 
ATOM     19  C   UNL     1       7.555   4.636  16.989  0.00  0.00    +0.000 C 
ATOM     20  C   UNL     1       7.260   6.095  17.347  0.00  0.00    +0.000 C 
ATOM     21  C   UNL     1       5.771   6.428  17.462  0.00  0.00    +0.000 C 
ATOM     22  C   UNL     1       4.941   5.837  16.323  0.00  0.00    +0.000 C 
BRANCH  20  23
ATOM     23  O   UNL     1       7.903   6.404  18.584  0.00  0.00    +0.000 OA
ATOM     24  H   UNL     1       7.216   6.504  19.262  0.00  0.00    +0.000 HD
ENDBRANCH  20  23
ENDBRANCH  15  17
ENDBRANCH  14  15
ENDBRANCH  13  14
ENDBRANCH   1  13
TORSDOF 9
ENDMDL
MODEL 6
REMARK VINA RESULT:      -6.5      2.596      7.294
REMARK  Name = 
REMARK  11 active torsions:
REMARK  status: ('A' for Active; 'I' for Inactive)
REMARK    1  A    between atoms: C_1  and  C_2
REMARK    2  A    between atoms: C_6  and  C_7
REMARK    3  A    between atoms: C_8  and  O_9
REMARK    4  A    between atoms: O_9  and  C_10
REMARK    5  A    between atoms: C_10  and  C_11
REMARK    6  A    between atoms: C_11  and  O_12
REMARK    7  A    between atoms: O_12  and  C_13
REMARK    8  A    between atoms: C_13  and  C_14
REMARK    9  A    between atoms: C_14  and  N_15
REMARK   10  A    between atoms: N_15  and  C_16
REMARK   11  A    between atoms: C_19  and  O_20
REMARK                            x       y       z     vdW  Elec       q    Type
REMARK                         _______ _______ _______ _____ _____    ______ ____
ROOT
ATOM      1  O   UNL     1       6.735   5.993  16.427  0.00  0.00    +0.000 OA
ENDROOT
BRANCH   1   2
ATOM      2  C   UNL     1       5.735   6.125  17.439  0.00  0.00    +0.000 C 
BRANCH   2   3
ATOM      3  C   UNL     1       5.081   4.799  17.836  0.00  0.00    +0.000 C 
BRANCH   3   4
ATOM      4  O   UNL     1       3.674   4.948  17.772  0.00  0.00    +0.000 OA
BRANCH   4  12
ATOM      5  C   UNL     1       3.029   1.856  17.902  0.00  0.00    +0.000 C 
ATOM      6  C   UNL     1       2.518   2.964  18.781  0.00  0.00    +0.000 A 
ATOM      7  C   UNL     1       1.633   2.567  19.810  0.00  0.00    +0.000 A 
ATOM      8  C   UNL     1       1.072   3.484  20.692  0.00  0.00    +0.000 A 
ATOM      9  C   UNL     1       1.374   4.831  20.564  0.00  0.00    +0.000 A 
ATOM     10  C   UNL     1       2.248   5.263  19.557  0.00  0.00    +0.000 A 
ATOM     11  C   UNL     1       2.539   6.737  19.435  0.00  0.00    +0.000 C 
ATOM     12  C   UNL     1       2.835   4.333  18.660  0.00  0.00    +0.000 A 
ENDBRANCH   4  12
ENDBRANCH   3   4
ENDBRANCH   2   3
ENDBRANCH   1   2
BRANCH   1  13
ATOM     13  C   UNL     1       6.968   4.671  15.941  0.00  0.00    +0.000 C 
BRANCH  13  14
ATOM     14  C   UNL     1       7.222   4.544  14.424  0.00  0.00    +0.000 C 
BRANCH  14  15
ATOM     15  N   UNL     1       6.254   3.683  13.738  0.00  0.00    +0.000 NA
ATOM     16  H   UNL     1       5.373   3.674  14.247  0.00  0.00    +0.000 HD
BRANCH  15  17
ATOM     17  C   UNL     1       6.073   4.026  12.320  0.00  0.00    +0.000 C 
ATOM     18  C   UNL     1       4.846   3.376  11.660  0.00  0.00    +0.000 C 
ATOM     19  C   UNL     1       4.962   1.860  11.554  0.00  0.00    +0.000 C 
ATOM     20  C   UNL     1       6.271   1.392  10.911  0.00  0.00    +0.000 C 
ATOM     21  C   UNL     1       7.517   2.124  11.413  0.00  0.00    +0.000 C 
ATOM     22  C   UNL     1       7.320   3.636  11.508  0.00  0.00    +0.000 C 
BRANCH  20  23
ATOM     23  O   UNL     1       6.426  -0.008  11.147  0.00  0.00    +0.000 OA
ATOM     24  H   UNL     1       7.358  -0.234  11.005  0.00  0.00    +0.000 HD
ENDBRANCH  20  23
ENDBRANCH  15  17
ENDBRANCH  14  15
ENDBRANCH  13  14
ENDBRANCH   1  13
TORSDOF 9
ENDMDL
MODEL 7
REMARK VINA RESULT:      -6.5      2.609      7.360
REMARK  Name = 
REMARK  11 active torsions:
REMARK  status: ('A' for Active; 'I' for Inactive)
REMARK    1  A    between atoms: C_1  and  C_2
REMARK    2  A    between atoms: C_6  and  C_7
REMARK    3  A    between atoms: C_8  and  O_9
REMARK    4  A    between atoms: O_9  and  C_10
REMARK    5  A    between atoms: C_10  and  C_11
REMARK    6  A    between atoms: C_11  and  O_12
REMARK    7  A    between atoms: O_12  and  C_13
REMARK    8  A    between atoms: C_13  and  C_14
REMARK    9  A    between atoms: C_14  and  N_15
REMARK   10  A    between atoms: N_15  and  C_16
REMARK   11  A    between atoms: C_19  and  O_20
REMARK                            x       y       z     vdW  Elec       q    Type
REMARK                         _______ _______ _______ _____ _____    ______ ____
ROOT
ATOM      1  O   UNL     1       6.376   5.664  16.431  0.00  0.00    +0.000 OA
ENDROOT
BRANCH   1   2
ATOM      2  C   UNL     1       5.609   5.995  17.590  0.00  0.00    +0.000 C 
BRANCH   2   3
ATOM      3  C   UNL     1       5.283   4.791  18.478  0.00  0.00    +0.000 C 
BRANCH   3   4
ATOM      4  O   UNL     1       4.046   4.242  18.063  0.00  0.00    +0.000 OA
BRANCH   4  12
ATOM      5  C   UNL     1       2.524   6.466  19.716  0.00  0.00    +0.000 C 
ATOM      6  C   UNL     1       2.283   4.983  19.687  0.00  0.00    +0.000 A 
ATOM      7  C   UNL     1       1.227   4.522  20.506  0.00  0.00    +0.000 A 
ATOM      8  C   UNL     1       0.895   3.173  20.589  0.00  0.00    +0.000 A 
ATOM      9  C   UNL     1       1.621   2.244  19.859  0.00  0.00    +0.000 A 
ATOM     10  C   UNL     1       2.673   2.663  19.035  0.00  0.00    +0.000 A 
ATOM     11  C   UNL     1       3.453   1.623  18.271  0.00  0.00    +0.000 C 
ATOM     12  C   UNL     1       3.010   4.038  18.935  0.00  0.00    +0.000 A 
ENDBRANCH   4  12
ENDBRANCH   3   4
ENDBRANCH   2   3
ENDBRANCH   1   2
BRANCH   1  13
ATOM     13  C   UNL     1       5.643   5.502  15.216  0.00  0.00    +0.000 C 
BRANCH  13  14
ATOM     14  C   UNL     1       5.400   4.047  14.762  0.00  0.00    +0.000 C 
BRANCH  14  15
ATOM     15  N   UNL     1       6.421   3.543  13.839  0.00  0.00    +0.000 NA
ATOM     16  H   UNL     1       6.497   2.532  13.923  0.00  0.00    +0.000 HD
BRANCH  15  17
ATOM     17  C   UNL     1       6.210   3.970  12.448  0.00  0.00    +0.000 C 
ATOM     18  C   UNL     1       4.940   3.402  11.793  0.00  0.00    +0.000 C 
ATOM     19  C   UNL     1       4.996   1.891  11.603  0.00  0.00    +0.000 C 
ATOM     20  C   UNL     1       6.266   1.412  10.894  0.00  0.00    +0.000 C 
ATOM     21  C   UNL     1       7.554   2.069  11.394  0.00  0.00    +0.000 C 
ATOM     22  C   UNL     1       7.417   3.580  11.576  0.00  0.00    +0.000 C 
BRANCH  20  23
ATOM     23  O   UNL     1       6.374  -0.003  11.049  0.00  0.00    +0.000 OA
ATOM     24  H   UNL     1       7.131  -0.305  10.522  0.00  0.00    +0.000 HD
ENDBRANCH  20  23
ENDBRANCH  15  17
ENDBRANCH  14  15
ENDBRANCH  13  14
ENDBRANCH   1  13
TORSDOF 9
ENDMDL
MODEL 8
REMARK VINA RESULT:      -6.5      4.672      8.625
REMARK  Name = 
REMARK  11 active torsions:
REMARK  status: ('A' for Active; 'I' for Inactive)
REMARK    1  A    between atoms: C_1  and  C_2
REMARK    2  A    between atoms: C_6  and  C_7
REMARK    3  A    between atoms: C_8  and  O_9
REMARK    4  A    between atoms: O_9  and  C_10
REMARK    5  A    between atoms: C_10  and  C_11
REMARK    6  A    between atoms: C_11  and  O_12
REMARK    7  A    between atoms: O_12  and  C_13
REMARK    8  A    between atoms: C_13  and  C_14
REMARK    9  A    between atoms: C_14  and  N_15
REMARK   10  A    between atoms: N_15  and  C_16
REMARK   11  A    between atoms: C_19  and  O_20
REMARK                            x       y       z     vdW  Elec       q    Type
REMARK                         _______ _______ _______ _____ _____    ______ ____
ROOT
ATOM      1  O   UNL     1       7.459   8.257  17.169  0.00  0.00    +0.000 OA
ENDROOT
BRANCH   1   2
ATOM      2  C   UNL     1       6.922   6.964  17.454  0.00  0.00    +0.000 C 
BRANCH   2   3
ATOM      3  C   UNL     1       5.434   6.827  17.119  0.00  0.00    +0.000 C 
BRANCH   3   4
ATOM      4  O   UNL     1       4.788   6.158  18.187  0.00  0.00    +0.000 OA
BRANCH   4  12
ATOM      5  C   UNL     1       5.167   3.629  16.329  0.00  0.00    +0.000 C 
ATOM      6  C   UNL     1       3.984   4.008  17.176  0.00  0.00    +0.000 A 
ATOM      7  C   UNL     1       2.897   3.105  17.142  0.00  0.00    +0.000 A 
ATOM      8  C   UNL     1       1.731   3.331  17.866  0.00  0.00    +0.000 A 
ATOM      9  C   UNL     1       1.617   4.475  18.641  0.00  0.00    +0.000 A 
ATOM     10  C   UNL     1       2.674   5.391  18.702  0.00  0.00    +0.000 A 
ATOM     11  C   UNL     1       2.508   6.634  19.540  0.00  0.00    +0.000 C 
ATOM     12  C   UNL     1       3.872   5.164  17.976  0.00  0.00    +0.000 A 
ENDBRANCH   4  12
ENDBRANCH   3   4
ENDBRANCH   2   3
ENDBRANCH   1   2
BRANCH   1  13
ATOM     13  C   UNL     1       8.363   8.791  18.136  0.00  0.00    +0.000 C 
BRANCH  13  14
ATOM     14  C   UNL     1       8.587  10.316  18.084  0.00  0.00    +0.000 C 
BRANCH  14  15
ATOM     15  N   UNL     1       9.280  10.849  19.260  0.00  0.00    +0.000 NA
ATOM     16  H   UNL     1       9.151  10.224  20.053  0.00  0.00    +0.000 HD
BRANCH  15  17
ATOM     17  C   UNL     1      10.698  11.149  19.014  0.00  0.00    +0.000 C 
ATOM     18  C   UNL     1      11.381  11.957  20.129  0.00  0.00    +0.000 C 
ATOM     19  C   UNL     1      10.827  13.372  20.260  0.00  0.00    +0.000 C 
ATOM     20  C   UNL     1      10.797  14.139  18.935  0.00  0.00    +0.000 C 
ATOM     21  C   UNL     1      10.279  13.327  17.747  0.00  0.00    +0.000 C 
ATOM     22  C   UNL     1      10.864  11.917  17.691  0.00  0.00    +0.000 C 
BRANCH  20  23
ATOM     23  O   UNL     1       9.984  15.303  19.095  0.00  0.00    +0.000 OA
ATOM     24  H   UNL     1       9.538  15.475  18.252  0.00  0.00    +0.000 HD
ENDBRANCH  20  23
ENDBRANCH  15  17
ENDBRANCH  14  15
ENDBRANCH  13  14
ENDBRANCH   1  13
TORSDOF 9
ENDMDL
MODEL 9
REMARK VINA RESULT:      -6.4      4.298      8.763
REMARK  Name = 
REMARK  11 active torsions:
REMARK  status: ('A' for Active; 'I' for Inactive)
REMARK    1  A    between atoms: C_1  and  C_2
REMARK    2  A    between atoms: C_6  and  C_7
REMARK    3  A    between atoms: C_8  and  O_9
REMARK    4  A    between atoms: O_9  and  C_10
REMARK    5  A    between atoms: C_10  and  C_11
REMARK    6  A    between atoms: C_11  and  O_12
REMARK    7  A    between atoms: O_12  and  C_13
REMARK    8  A    between atoms: C_13  and  C_14
REMARK    9  A    between atoms: C_14  and  N_15
REMARK   10  A    between atoms: N_15  and  C_16
REMARK   11  A    between atoms: C_19  and  O_20
REMARK                            x       y       z     vdW  Elec       q    Type
REMARK                         _______ _______ _______ _____ _____    ______ ____
ROOT
ATOM      1  O   UNL     1       6.414   7.806  17.713  0.00  0.00    +0.000 OA
ENDROOT
BRANCH   1   2
ATOM      2  C   UNL     1       5.960   6.588  17.120  0.00  0.00    +0.000 C 
BRANCH   2   3
ATOM      3  C   UNL     1       5.333   5.612  18.118  0.00  0.00    +0.000 C 
BRANCH   3   4
ATOM      4  O   UNL     1       3.924   5.747  18.062  0.00  0.00    +0.000 OA
BRANCH   4  12
ATOM      5  C   UNL     1       3.725   2.606  17.761  0.00  0.00    +0.000 C 
ATOM      6  C   UNL     1       2.958   3.516  18.680  0.00  0.00    +0.000 A 
ATOM      7  C   UNL     1       2.027   2.877  19.531  0.00  0.00    +0.000 A 
ATOM      8  C   UNL     1       1.238   3.592  20.426  0.00  0.00    +0.000 A 
ATOM      9  C   UNL     1       1.354   4.973  20.490  0.00  0.00    +0.000 A 
ATOM     10  C   UNL     1       2.268   5.640  19.664  0.00  0.00    +0.000 A 
ATOM     11  C   UNL     1       2.353   7.144  19.745  0.00  0.00    +0.000 C 
ATOM     12  C   UNL     1       3.085   4.918  18.756  0.00  0.00    +0.000 A 
ENDBRANCH   4  12
ENDBRANCH   3   4
ENDBRANCH   2   3
ENDBRANCH   1   2
BRANCH   1  13
ATOM     13  C   UNL     1       7.767   8.173  17.439  0.00  0.00    +0.000 C 
BRANCH  13  14
ATOM     14  C   UNL     1       8.452   9.066  18.495  0.00  0.00    +0.000 C 
BRANCH  14  15
ATOM     15  N   UNL     1       8.936  10.341  17.958  0.00  0.00    +0.000 NA
ATOM     16  H   UNL     1       8.217  10.773  17.383  0.00  0.00    +0.000 HD
BRANCH  15  17
ATOM     17  C   UNL     1       9.442  11.253  18.995  0.00  0.00    +0.000 C 
ATOM     18  C   UNL     1       8.906  12.691  18.894  0.00  0.00    +0.000 C 
ATOM     19  C   UNL     1       9.386  13.417  17.642  0.00  0.00    +0.000 C 
ATOM     20  C   UNL     1      10.903  13.359  17.448  0.00  0.00    +0.000 C 
ATOM     21  C   UNL     1      11.519  11.981  17.698  0.00  0.00    +0.000 C 
ATOM     22  C   UNL     1      10.980  11.309  18.959  0.00  0.00    +0.000 C 
BRANCH  20  23
ATOM     23  O   UNL     1      11.213  13.774  16.117  0.00  0.00    +0.000 OA
ATOM     24  H   UNL     1      11.425  12.983  15.598  0.00  0.00    +0.000 HD
ENDBRANCH  20  23
ENDBRANCH  15  17
ENDBRANCH  14  15
ENDBRANCH  13  14
ENDBRANCH   1  13
TORSDOF 9
ENDMDL
