MODEL 1
REMARK VINA RESULT:      -7.2      0.000      0.000
REMARK  Name = 
REMARK  10 active torsions:
REMARK  status: ('A' for Active; 'I' for Inactive)
REMARK    1  A    between atoms: C_1  and  C_2
REMARK    2  A    between atoms: C_2  and  N_3
REMARK    3  A    between atoms: C_4  and  C_6
REMARK    4  A    between atoms: C_6  and  C_7
REMARK    5  A    between atoms: C_9  and  C_10
REMARK    6  A    between atoms: C_11  and  N_12
REMARK    7  A    between atoms: N_15  and  C_16
REMARK    8  A    between atoms: C_19  and  O_20
REMARK    9  A    between atoms: O_20  and  C_21
REMARK   10  A    between atoms: C_28  and  C_29
REMARK                            x       y       z     vdW  Elec       q    Type
REMARK                         _______ _______ _______ _____ _____    ______ ____
ROOT
ATOM      1  C   UNL     1       0.444  13.234  18.990  0.00  0.00    +0.000 A 
ATOM      2  C   UNL     1       1.397  12.539  19.652  0.00  0.00    +0.000 A 
ATOM      3  N   UNL     1       2.316  13.161  20.460  0.00  0.00    +0.000 NA
ATOM      4  C   UNL     1       2.266  14.452  20.618  0.00  0.00    +0.000 A 
ATOM      5  C   UNL     1       3.272  15.162  21.494  0.00  0.00    +0.000 A 
ATOM      6  C   UNL     1       4.416  14.402  22.084  0.00  0.00    +0.000 C 
ATOM      7  C   UNL     1       3.135  16.479  21.715  0.00  0.00    +0.000 A 
ATOM      8  C   UNL     1       2.081  17.235  21.098  0.00  0.00    +0.000 A 
ATOM      9  C   UNL     1       1.240  16.627  20.262  0.00  0.00    +0.000 A 
ATOM     10  N   UNL     1       1.313  15.263  20.010  0.00  0.00    +0.000 N 
ATOM     11  C   UNL     1       0.380  14.708  19.163  0.00  0.00    +0.000 A 
ATOM     12  O   UNL     1      -0.493  15.350  18.572  0.00  0.00    +0.000 OA
ENDROOT
BRANCH   2  13
ATOM     13  N   UNL     1       1.399  11.148  19.504  0.00  0.00    +0.000 N 
ATOM     14  C   UNL     1       1.581  10.503  18.189  0.00  0.00    +0.000 C 
ATOM     15  C   UNL     1       2.385   9.181  18.351  0.00  0.00    +0.000 C 
ATOM     16  N   UNL     1       1.742   8.310  19.357  0.00  0.00    +0.000 N 
ATOM     17  C   UNL     1       1.514   8.964  20.665  0.00  0.00    +0.000 C 
ATOM     18  C   UNL     1       0.700  10.264  20.462  0.00  0.00    +0.000 C 
BRANCH  16  19
ATOM     19  C   UNL     1       1.966   6.942  19.363  0.00  0.00    +0.000 A 
ATOM     20  C   UNL     1       2.350   6.200  18.240  0.00  0.00    +0.000 A 
ATOM     21  C   UNL     1       2.457   4.801  18.299  0.00  0.00    +0.000 A 
ATOM     22  C   UNL     1       2.189   4.113  19.483  0.00  0.00    +0.000 A 
ATOM     23  C   UNL     1       1.820   4.837  20.610  0.00  0.00    +0.000 A 
ATOM     24  C   UNL     1       1.720   6.229  20.545  0.00  0.00    +0.000 A 
BRANCH  22  25
ATOM     25  O   UNL     1       2.270   2.749  19.416  0.00  0.00    +0.000 OA
ATOM     26  C   UNL     1       1.224   2.103  18.697  0.00  0.00    +0.000 C 
ENDBRANCH  22  25
ENDBRANCH  16  19
ENDBRANCH   2  13
BRANCH   1  28
ATOM     27  C   UNL     1      -1.784  12.206  18.658  0.00  0.00    +0.000 C 
ATOM     28  C   UNL     1      -0.588  12.596  18.188  0.00  0.00    +0.000 C 
BRANCH  27  30
ATOM     29  N   UNL     1      -2.431  11.595  16.385  0.00  0.00    +0.000 N 
ATOM     30  C   UNL     1      -2.696  11.473  17.728  0.00  0.00    +0.000 C 
ATOM     31  O   UNL     1      -3.636  10.808  18.156  0.00  0.00    +0.000 OA
ATOM     32  H   UNL     1      -1.698  12.205  16.043  0.00  0.00    +0.000 HD
BRANCH  29  34
ATOM     33  C   UNL     1      -2.757   9.672  14.888  0.00  0.00    +0.000 C 
ATOM     34  C   UNL     1      -3.302  10.999  15.388  0.00  0.00    +0.000 C 
ENDBRANCH  29  34
ENDBRANCH  27  30
BRANCH  27  35
ATOM     35  C   UNL     1      -2.192  12.499  20.092  0.00  0.00    +0.000 C 
ATOM     36  N   UNL     1      -2.531  12.743  21.283  0.00  0.00    +0.000 NA
ENDBRANCH  27  35
ENDBRANCH   1  28
TORSDOF 7
ENDMDL
MODEL 2
REMARK VINA RESULT:      -7.1      3.226      4.404
REMARK  Name = 
REMARK  10 active torsions:
REMARK  status: ('A' for Active; 'I' for Inactive)
REMARK    1  A    between atoms: C_1  and  C_2
REMARK    2  A    between atoms: C_2  and  N_3
REMARK    3  A    between atoms: C_4  and  C_6
REMARK    4  A    between atoms: C_6  and  C_7
REMARK    5  A    between atoms: C_9  and  C_10
REMARK    6  A    between atoms: C_11  and  N_12
REMARK    7  A    between atoms: N_15  and  C_16
REMARK    8  A    between atoms: C_19  and  O_20
REMARK    9  A    between atoms: O_20  and  C_21
REMARK   10  A    between atoms: C_28  and  C_29
REMARK                            x       y       z     vdW  Elec       q    Type
REMARK                         _______ _______ _______ _____ _____    ______ ____
ROOT
ATOM      1  C   UNL     1      -3.205  13.891  21.109  0.00  0.00    +0.000 A 
ATOM      2  C   UNL     1      -2.168  13.618  21.931  0.00  0.00    +0.000 A 
ATOM      3  N   UNL     1      -2.015  14.253  23.139  0.00  0.00    +0.000 NA
ATOM      4  C   UNL     1      -2.899  15.128  23.523  0.00  0.00    +0.000 A 
ATOM      5  C   UNL     1      -2.749  15.848  24.843  0.00  0.00    +0.000 A 
ATOM      6  C   UNL     1      -1.512  15.658  25.661  0.00  0.00    +0.000 C 
ATOM      7  C   UNL     1      -3.726  16.671  25.255  0.00  0.00    +0.000 A 
ATOM      8  C   UNL     1      -4.888  16.918  24.446  0.00  0.00    +0.000 A 
ATOM      9  C   UNL     1      -4.985  16.345  23.247  0.00  0.00    +0.000 A 
ATOM     10  N   UNL     1      -4.020  15.466  22.772  0.00  0.00    +0.000 N 
ATOM     11  C   UNL     1      -4.219  14.888  21.538  0.00  0.00    +0.000 A 
ATOM     12  O   UNL     1      -5.176  15.136  20.799  0.00  0.00    +0.000 OA
ENDROOT
BRANCH   2  13
ATOM     13  N   UNL     1      -1.257  12.639  21.518  0.00  0.00    +0.000 N 
ATOM     14  C   UNL     1      -1.040  11.400  22.290  0.00  0.00    +0.000 C 
ATOM     15  C   UNL     1      -0.757  10.214  21.323  0.00  0.00    +0.000 C 
ATOM     16  N   UNL     1       0.355  10.550  20.412  0.00  0.00    +0.000 N 
ATOM     17  C   UNL     1       0.167  11.815  19.667  0.00  0.00    +0.000 C 
ATOM     18  C   UNL     1      -0.096  12.970  20.663  0.00  0.00    +0.000 C 
BRANCH  16  19
ATOM     19  C   UNL     1       1.093   9.554  19.791  0.00  0.00    +0.000 A 
ATOM     20  C   UNL     1       1.475   9.578  18.445  0.00  0.00    +0.000 A 
ATOM     21  C   UNL     1       2.132   8.484  17.859  0.00  0.00    +0.000 A 
ATOM     22  C   UNL     1       2.429   7.344  18.608  0.00  0.00    +0.000 A 
ATOM     23  C   UNL     1       2.069   7.311  19.949  0.00  0.00    +0.000 A 
ATOM     24  C   UNL     1       1.419   8.405  20.526  0.00  0.00    +0.000 A 
BRANCH  22  25
ATOM     25  O   UNL     1       3.021   6.316  17.926  0.00  0.00    +0.000 OA
ATOM     26  C   UNL     1       2.442   5.031  18.121  0.00  0.00    +0.000 C 
ENDBRANCH  22  25
ENDBRANCH  16  19
ENDBRANCH   2  13
BRANCH   1  28
ATOM     27  C   UNL     1      -4.423  12.295  19.659  0.00  0.00    +0.000 C 
ATOM     28  C   UNL     1      -3.434  13.181  19.860  0.00  0.00    +0.000 C 
BRANCH  27  30
ATOM     29  N   UNL     1      -3.416  11.809  17.489  0.00  0.00    +0.000 N 
ATOM     30  C   UNL     1      -4.462  11.575  18.350  0.00  0.00    +0.000 C 
ATOM     31  O   UNL     1      -5.392  10.824  18.067  0.00  0.00    +0.000 OA
ATOM     32  H   UNL     1      -2.694  12.486  17.704  0.00  0.00    +0.000 HD
BRANCH  29  34
ATOM     33  C   UNL     1      -2.566   9.959  16.110  0.00  0.00    +0.000 C 
ATOM     34  C   UNL     1      -3.393  11.233  16.157  0.00  0.00    +0.000 C 
ENDBRANCH  29  34
ENDBRANCH  27  30
BRANCH  27  35
ATOM     35  C   UNL     1      -5.467  12.033  20.732  0.00  0.00    +0.000 C 
ATOM     36  N   UNL     1      -6.333  11.815  21.623  0.00  0.00    +0.000 NA
ENDBRANCH  27  35
ENDBRANCH   1  28
TORSDOF 7
ENDMDL
MODEL 3
REMARK VINA RESULT:      -7.1      3.303      4.287
REMARK  Name = 
REMARK  10 active torsions:
REMARK  status: ('A' for Active; 'I' for Inactive)
REMARK    1  A    between atoms: C_1  and  C_2
REMARK    2  A    between atoms: C_2  and  N_3
REMARK    3  A    between atoms: C_4  and  C_6
REMARK    4  A    between atoms: C_6  and  C_7
REMARK    5  A    between atoms: C_9  and  C_10
REMARK    6  A    between atoms: C_11  and  N_12
REMARK    7  A    between atoms: N_15  and  C_16
REMARK    8  A    between atoms: C_19  and  O_20
REMARK    9  A    between atoms: O_20  and  C_21
REMARK   10  A    between atoms: C_28  and  C_29
REMARK                            x       y       z     vdW  Elec       q    Type
REMARK                         _______ _______ _______ _____ _____    ______ ____
ROOT
ATOM      1  C   UNL     1      -2.541  14.506  21.659  0.00  0.00    +0.000 A 
ATOM      2  C   UNL     1      -1.525  14.105  22.455  0.00  0.00    +0.000 A 
ATOM      3  N   UNL     1      -1.211  14.765  23.617  0.00  0.00    +0.000 NA
ATOM      4  C   UNL     1      -1.917  15.795  23.983  0.00  0.00    +0.000 A 
ATOM      5  C   UNL     1      -1.586  16.545  25.252  0.00  0.00    +0.000 A 
ATOM      6  C   UNL     1      -0.360  16.191  26.032  0.00  0.00    +0.000 C 
ATOM      7  C   UNL     1      -2.391  17.541  25.654  0.00  0.00    +0.000 A 
ATOM      8  C   UNL     1      -3.532  17.939  24.878  0.00  0.00    +0.000 A 
ATOM      9  C   UNL     1      -3.782  17.332  23.719  0.00  0.00    +0.000 A 
ATOM     10  N   UNL     1      -3.001  16.279  23.259  0.00  0.00    +0.000 N 
ATOM     11  C   UNL     1      -3.352  15.681  22.069  0.00  0.00    +0.000 A 
ATOM     12  O   UNL     1      -4.289  16.049  21.355  0.00  0.00    +0.000 OA
ENDROOT
BRANCH   2  13
ATOM     13  N   UNL     1      -0.811  12.966  22.064  0.00  0.00    +0.000 N 
ATOM     14  C   UNL     1      -0.954  11.676  22.766  0.00  0.00    +0.000 C 
ATOM     15  C   UNL     1      -0.835  10.502  21.751  0.00  0.00    +0.000 C 
ATOM     16  N   UNL     1       0.416  10.621  20.975  0.00  0.00    +0.000 N 
ATOM     17  C   UNL     1       0.590  11.929  20.305  0.00  0.00    +0.000 C 
ATOM     18  C   UNL     1       0.480  13.067  21.348  0.00  0.00    +0.000 C 
BRANCH  16  19
ATOM     19  C   UNL     1       0.981   9.514  20.361  0.00  0.00    +0.000 A 
ATOM     20  C   UNL     1       1.331   8.335  21.026  0.00  0.00    +0.000 A 
ATOM     21  C   UNL     1       1.996   7.295  20.356  0.00  0.00    +0.000 A 
ATOM     22  C   UNL     1       2.319   7.409  19.003  0.00  0.00    +0.000 A 
ATOM     23  C   UNL     1       1.965   8.569  18.325  0.00  0.00    +0.000 A 
ATOM     24  C   UNL     1       1.301   9.597  18.997  0.00  0.00    +0.000 A 
BRANCH  22  25
ATOM     25  O   UNL     1       3.014   6.362  18.463  0.00  0.00    +0.000 OA
ATOM     26  C   UNL     1       3.318   5.296  19.356  0.00  0.00    +0.000 C 
ENDBRANCH  22  25
ENDBRANCH  16  19
ENDBRANCH   2  13
BRANCH   1  28
ATOM     27  C   UNL     1      -3.933  12.876  20.421  0.00  0.00    +0.000 C 
ATOM     28  C   UNL     1      -2.944  13.784  20.464  0.00  0.00    +0.000 C 
BRANCH  27  30
ATOM     29  N   UNL     1      -3.046  11.901  18.366  0.00  0.00    +0.000 N 
ATOM     30  C   UNL     1      -4.158  12.146  19.137  0.00  0.00    +0.000 C 
ATOM     31  O   UNL     1      -5.286  11.797  18.795  0.00  0.00    +0.000 OA
ATOM     32  H   UNL     1      -2.134  12.258  18.624  0.00  0.00    +0.000 HD
BRANCH  29  34
ATOM     33  C   UNL     1      -2.225  10.084  16.927  0.00  0.00    +0.000 C 
ATOM     34  C   UNL     1      -3.157  11.278  17.060  0.00  0.00    +0.000 C 
ENDBRANCH  29  34
ENDBRANCH  27  30
BRANCH  27  35
ATOM     35  C   UNL     1      -4.793  12.600  21.644  0.00  0.00    +0.000 C 
ATOM     36  N   UNL     1      -5.506  12.371  22.659  0.00  0.00    +0.000 NA
ENDBRANCH  27  35
ENDBRANCH   1  28
TORSDOF 7
ENDMDL
MODEL 4
REMARK VINA RESULT:      -7.0      2.723      5.023
REMARK  Name = 
REMARK  10 active torsions:
REMARK  status: ('A' for Active; 'I' for Inactive)
REMARK    1  A    between atoms: C_1  and  C_2
REMARK    2  A    between atoms: C_2  and  N_3
REMARK    3  A    between atoms: C_4  and  C_6
REMARK    4  A    between atoms: C_6  and  C_7
REMARK    5  A    between atoms: C_9  and  C_10
REMARK    6  A    between atoms: C_11  and  N_12
REMARK    7  A    between atoms: N_15  and  C_16
REMARK    8  A    between atoms: C_19  and  O_20
REMARK    9  A    between atoms: O_20  and  C_21
REMARK   10  A    between atoms: C_28  and  C_29
REMARK                            x       y       z     vdW  Elec       q    Type
REMARK                         _______ _______ _______ _____ _____    ______ ____
ROOT
ATOM      1  C   UNL     1      -1.267  14.019  20.809  0.00  0.00    +0.000 A 
ATOM      2  C   UNL     1      -1.610  12.835  21.363  0.00  0.00    +0.000 A 
ATOM      3  N   UNL     1      -2.593  12.740  22.316  0.00  0.00    +0.000 NA
ATOM      4  C   UNL     1      -3.233  13.809  22.691  0.00  0.00    +0.000 A 
ATOM      5  C   UNL     1      -4.312  13.734  23.746  0.00  0.00    +0.000 A 
ATOM      6  C   UNL     1      -4.564  12.448  24.465  0.00  0.00    +0.000 C 
ATOM      7  C   UNL     1      -5.021  14.835  24.039  0.00  0.00    +0.000 A 
ATOM      8  C   UNL     1      -4.742  16.094  23.406  0.00  0.00    +0.000 A 
ATOM      9  C   UNL     1      -3.739  16.182  22.533  0.00  0.00    +0.000 A 
ATOM     10  N   UNL     1      -2.984  15.074  22.169  0.00  0.00    +0.000 N 
ATOM     11  C   UNL     1      -1.991  15.246  21.230  0.00  0.00    +0.000 A 
ATOM     12  O   UNL     1      -1.692  16.331  20.722  0.00  0.00    +0.000 OA
ENDROOT
BRANCH   2  13
ATOM     13  N   UNL     1      -0.941  11.693  20.909  0.00  0.00    +0.000 N 
ATOM     14  C   UNL     1      -1.303  11.028  19.641  0.00  0.00    +0.000 C 
ATOM     15  C   UNL     1      -0.027  10.455  18.959  0.00  0.00    +0.000 C 
ATOM     16  N   UNL     1       0.709   9.585  19.898  0.00  0.00    +0.000 N 
ATOM     17  C   UNL     1       1.036  10.228  21.190  0.00  0.00    +0.000 C 
ATOM     18  C   UNL     1      -0.258  10.771  21.842  0.00  0.00    +0.000 C 
BRANCH  16  19
ATOM     19  C   UNL     1       1.585   8.616  19.434  0.00  0.00    +0.000 A 
ATOM     20  C   UNL     1       2.199   8.644  18.176  0.00  0.00    +0.000 A 
ATOM     21  C   UNL     1       2.993   7.574  17.734  0.00  0.00    +0.000 A 
ATOM     22  C   UNL     1       3.199   6.455  18.543  0.00  0.00    +0.000 A 
ATOM     23  C   UNL     1       2.608   6.419  19.800  0.00  0.00    +0.000 A 
ATOM     24  C   UNL     1       1.822   7.488  20.234  0.00  0.00    +0.000 A 
BRANCH  22  25
ATOM     25  O   UNL     1       3.944   5.447  17.994  0.00  0.00    +0.000 OA
ATOM     26  C   UNL     1       4.908   4.851  18.856  0.00  0.00    +0.000 C 
ENDBRANCH  22  25
ENDBRANCH  16  19
ENDBRANCH   2  13
BRANCH   1  28
ATOM     27  C   UNL     1       1.005  14.468  19.933  0.00  0.00    +0.000 C 
ATOM     28  C   UNL     1      -0.284  14.141  19.744  0.00  0.00    +0.000 C 
BRANCH  27  30
ATOM     29  N   UNL     1       2.497  15.866  18.599  0.00  0.00    +0.000 N 
ATOM     30  C   UNL     1       1.865  14.651  18.724  0.00  0.00    +0.000 C 
ATOM     31  O   UNL     1       1.985  13.757  17.890  0.00  0.00    +0.000 OA
ATOM     32  H   UNL     1       2.332  16.619  19.255  0.00  0.00    +0.000 HD
BRANCH  29  34
ATOM     33  C   UNL     1       2.652  17.301  16.608  0.00  0.00    +0.000 C 
ATOM     34  C   UNL     1       3.286  16.186  17.423  0.00  0.00    +0.000 C 
ENDBRANCH  29  34
ENDBRANCH  27  30
BRANCH  27  35
ATOM     35  C   UNL     1       1.567  14.650  21.333  0.00  0.00    +0.000 C 
ATOM     36  N   UNL     1       2.034  14.801  22.496  0.00  0.00    +0.000 NA
ENDBRANCH  27  35
ENDBRANCH   1  28
TORSDOF 7
ENDMDL
MODEL 5
REMARK VINA RESULT:      -6.9      2.655      4.859
REMARK  Name = 
REMARK  10 active torsions:
REMARK  status: ('A' for Active; 'I' for Inactive)
REMARK    1  A    between atoms: C_1  and  C_2
REMARK    2  A    between atoms: C_2  and  N_3
REMARK    3  A    between atoms: C_4  and  C_6
REMARK    4  A    between atoms: C_6  and  C_7
REMARK    5  A    between atoms: C_9  and  C_10
REMARK    6  A    between atoms: C_11  and  N_12
REMARK    7  A    between atoms: N_15  and  C_16
REMARK    8  A    between atoms: C_19  and  O_20
REMARK    9  A    between atoms: O_20  and  C_21
REMARK   10  A    between atoms: C_28  and  C_29
REMARK                            x       y       z     vdW  Elec       q    Type
REMARK                         _______ _______ _______ _____ _____    ______ ____
ROOT
ATOM      1  C   UNL     1      -0.719  13.746  20.847  0.00  0.00    +0.000 A 
ATOM      2  C   UNL     1      -1.163  12.599  21.409  0.00  0.00    +0.000 A 
ATOM      3  N   UNL     1      -2.160  12.594  22.352  0.00  0.00    +0.000 NA
ATOM      4  C   UNL     1      -2.714  13.717  22.709  0.00  0.00    +0.000 A 
ATOM      5  C   UNL     1      -3.806  13.740  23.753  0.00  0.00    +0.000 A 
ATOM      6  C   UNL     1      -4.169  12.487  24.483  0.00  0.00    +0.000 C 
ATOM      7  C   UNL     1      -4.425  14.899  24.029  0.00  0.00    +0.000 A 
ATOM      8  C   UNL     1      -4.039  16.125  23.386  0.00  0.00    +0.000 A 
ATOM      9  C   UNL     1      -3.024  16.121  22.523  0.00  0.00    +0.000 A 
ATOM     10  N   UNL     1      -2.357  14.952  22.178  0.00  0.00    +0.000 N 
ATOM     11  C   UNL     1      -1.345  15.031  21.248  0.00  0.00    +0.000 A 
ATOM     12  O   UNL     1      -0.953  16.083  20.733  0.00  0.00    +0.000 OA
ENDROOT
BRANCH   2  13
ATOM     13  N   UNL     1      -0.585  11.402  20.973  0.00  0.00    +0.000 N 
ATOM     14  C   UNL     1      -0.941  10.788  19.678  0.00  0.00    +0.000 C 
ATOM     15  C   UNL     1       0.308  10.100  19.055  0.00  0.00    +0.000 C 
ATOM     16  N   UNL     1       0.904   9.152  20.018  0.00  0.00    +0.000 N 
ATOM     17  C   UNL     1       1.222   9.747  21.335  0.00  0.00    +0.000 C 
ATOM     18  C   UNL     1      -0.046  10.408  21.927  0.00  0.00    +0.000 C 
BRANCH  16  19
ATOM     19  C   UNL     1       1.706   8.107  19.586  0.00  0.00    +0.000 A 
ATOM     20  C   UNL     1       2.367   8.077  18.354  0.00  0.00    +0.000 A 
ATOM     21  C   UNL     1       3.078   6.938  17.940  0.00  0.00    +0.000 A 
ATOM     22  C   UNL     1       3.148   5.806  18.754  0.00  0.00    +0.000 A 
ATOM     23  C   UNL     1       2.508   5.825  19.987  0.00  0.00    +0.000 A 
ATOM     24  C   UNL     1       1.807   6.963  20.393  0.00  0.00    +0.000 A 
BRANCH  22  25
ATOM     25  O   UNL     1       3.819   4.734  18.232  0.00  0.00    +0.000 OA
ATOM     26  C   UNL     1       3.044   3.853  17.425  0.00  0.00    +0.000 C 
ENDBRANCH  22  25
ENDBRANCH  16  19
ENDBRANCH   2  13
BRANCH   1  28
ATOM     27  C   UNL     1       1.559  14.149  19.965  0.00  0.00    +0.000 C 
ATOM     28  C   UNL     1       0.281  13.775  19.792  0.00  0.00    +0.000 C 
BRANCH  27  30
ATOM     29  N   UNL     1       3.471  15.128  18.806  0.00  0.00    +0.000 N 
ATOM     30  C   UNL     1       2.438  14.221  18.759  0.00  0.00    +0.000 C 
ATOM     31  O   UNL     1       2.230  13.510  17.779  0.00  0.00    +0.000 OA
ATOM     32  H   UNL     1       3.587  15.759  19.589  0.00  0.00    +0.000 HD
BRANCH  29  34
ATOM     33  C   UNL     1       5.713  14.744  17.871  0.00  0.00    +0.000 C 
ATOM     34  C   UNL     1       4.334  15.346  17.659  0.00  0.00    +0.000 C 
ENDBRANCH  29  34
ENDBRANCH  27  30
BRANCH  27  35
ATOM     35  C   UNL     1       2.092  14.491  21.347  0.00  0.00    +0.000 C 
ATOM     36  N   UNL     1       2.534  14.776  22.494  0.00  0.00    +0.000 NA
ENDBRANCH  27  35
ENDBRANCH   1  28
TORSDOF 7
ENDMDL
MODEL 6
REMARK VINA RESULT:      -6.9      1.015      1.164
REMARK  Name = 
REMARK  10 active torsions:
REMARK  status: ('A' for Active; 'I' for Inactive)
REMARK    1  A    between atoms: C_1  and  C_2
REMARK    2  A    between atoms: C_2  and  N_3
REMARK    3  A    between atoms: C_4  and  C_6
REMARK    4  A    between atoms: C_6  and  C_7
REMARK    5  A    between atoms: C_9  and  C_10
REMARK    6  A    between atoms: C_11  and  N_12
REMARK    7  A    between atoms: N_15  and  C_16
REMARK    8  A    between atoms: C_19  and  O_20
REMARK    9  A    between atoms: O_20  and  C_21
REMARK   10  A    between atoms: C_28  and  C_29
REMARK                            x       y       z     vdW  Elec       q    Type
REMARK                         _______ _______ _______ _____ _____    ______ ____
ROOT
ATOM      1  C   UNL     1       0.357  13.057  19.390  0.00  0.00    +0.000 A 
ATOM      2  C   UNL     1       1.370  12.351  19.939  0.00  0.00    +0.000 A 
ATOM      3  N   UNL     1       2.347  12.953  20.692  0.00  0.00    +0.000 NA
ATOM      4  C   UNL     1       2.297  14.235  20.907  0.00  0.00    +0.000 A 
ATOM      5  C   UNL     1       3.365  14.924  21.724  0.00  0.00    +0.000 A 
ATOM      6  C   UNL     1       4.564  14.158  22.183  0.00  0.00    +0.000 C 
ATOM      7  C   UNL     1       3.233  16.229  22.009  0.00  0.00    +0.000 A 
ATOM      8  C   UNL     1       2.122  16.994  21.515  0.00  0.00    +0.000 A 
ATOM      9  C   UNL     1       1.220  16.408  20.730  0.00  0.00    +0.000 A 
ATOM     10  N   UNL     1       1.287  15.056  20.416  0.00  0.00    +0.000 N 
ATOM     11  C   UNL     1       0.291  14.522  19.628  0.00  0.00    +0.000 A 
ATOM     12  O   UNL     1      -0.636  15.174  19.140  0.00  0.00    +0.000 OA
ENDROOT
BRANCH   2  13
ATOM     13  N   UNL     1       1.376  10.967  19.734  0.00  0.00    +0.000 N 
ATOM     14  C   UNL     1       1.475  10.378  18.384  0.00  0.00    +0.000 C 
ATOM     15  C   UNL     1       2.301   9.060  18.438  0.00  0.00    +0.000 C 
ATOM     16  N   UNL     1       1.734   8.142  19.447  0.00  0.00    +0.000 N 
ATOM     17  C   UNL     1       1.588   8.739  20.794  0.00  0.00    +0.000 C 
ATOM     18  C   UNL     1       0.750  10.036  20.700  0.00  0.00    +0.000 C 
BRANCH  16  19
ATOM     19  C   UNL     1       1.971   6.777  19.382  0.00  0.00    +0.000 A 
ATOM     20  C   UNL     1       2.366   6.100  18.224  0.00  0.00    +0.000 A 
ATOM     21  C   UNL     1       2.486   4.700  18.208  0.00  0.00    +0.000 A 
ATOM     22  C   UNL     1       2.219   3.948  19.354  0.00  0.00    +0.000 A 
ATOM     23  C   UNL     1       1.839   4.608  20.515  0.00  0.00    +0.000 A 
ATOM     24  C   UNL     1       1.726   6.000  20.524  0.00  0.00    +0.000 A 
BRANCH  22  25
ATOM     25  O   UNL     1       2.313   2.591  19.214  0.00  0.00    +0.000 OA
ATOM     26  C   UNL     1       2.805   2.131  17.960  0.00  0.00    +0.000 C 
ENDBRANCH  22  25
ENDBRANCH  16  19
ENDBRANCH   2  13
BRANCH   1  28
ATOM     27  C   UNL     1      -1.903  12.066  19.193  0.00  0.00    +0.000 C 
ATOM     28  C   UNL     1      -0.732  12.438  18.651  0.00  0.00    +0.000 C 
BRANCH  27  30
ATOM     29  N   UNL     1      -4.062  12.004  18.056  0.00  0.00    +0.000 N 
ATOM     30  C   UNL     1      -2.882  11.349  18.321  0.00  0.00    +0.000 C 
ATOM     31  O   UNL     1      -2.637  10.230  17.879  0.00  0.00    +0.000 OA
ATOM     32  H   UNL     1      -4.283  12.893  18.486  0.00  0.00    +0.000 HD
BRANCH  29  34
ATOM     33  C   UNL     1      -6.356  11.122  18.146  0.00  0.00    +0.000 C 
ATOM     34  C   UNL     1      -5.121  11.368  17.295  0.00  0.00    +0.000 C 
ENDBRANCH  29  34
ENDBRANCH  27  30
BRANCH  27  35
ATOM     35  C   UNL     1      -2.219  12.364  20.650  0.00  0.00    +0.000 C 
ATOM     36  N   UNL     1      -2.480  12.610  21.859  0.00  0.00    +0.000 NA
ENDBRANCH  27  35
ENDBRANCH   1  28
TORSDOF 7
ENDMDL
MODEL 7
REMARK VINA RESULT:      -6.9      2.879      5.451
REMARK  Name = 
REMARK  10 active torsions:
REMARK  status: ('A' for Active; 'I' for Inactive)
REMARK    1  A    between atoms: C_1  and  C_2
REMARK    2  A    between atoms: C_2  and  N_3
REMARK    3  A    between atoms: C_4  and  C_6
REMARK    4  A    between atoms: C_6  and  C_7
REMARK    5  A    between atoms: C_9  and  C_10
REMARK    6  A    between atoms: C_11  and  N_12
REMARK    7  A    between atoms: N_15  and  C_16
REMARK    8  A    between atoms: C_19  and  O_20
REMARK    9  A    between atoms: O_20  and  C_21
REMARK   10  A    between atoms: C_28  and  C_29
REMARK                            x       y       z     vdW  Elec       q    Type
REMARK                         _______ _______ _______ _____ _____    ______ ____
ROOT
ATOM      1  C   UNL     1      -0.904  14.035  22.150  0.00  0.00    +0.000 A 
ATOM      2  C   UNL     1      -1.679  13.000  21.760  0.00  0.00    +0.000 A 
ATOM      3  N   UNL     1      -3.042  13.013  21.925  0.00  0.00    +0.000 NA
ATOM      4  C   UNL     1      -3.616  14.055  22.453  0.00  0.00    +0.000 A 
ATOM      5  C   UNL     1      -5.113  14.092  22.655  0.00  0.00    +0.000 A 
ATOM      6  C   UNL     1      -5.935  12.876  22.373  0.00  0.00    +0.000 C 
ATOM      7  C   UNL     1      -5.686  15.217  23.111  0.00  0.00    +0.000 A 
ATOM      8  C   UNL     1      -4.901  16.371  23.453  0.00  0.00    +0.000 A 
ATOM      9  C   UNL     1      -3.574  16.315  23.350  0.00  0.00    +0.000 A 
ATOM     10  N   UNL     1      -2.921  15.188  22.864  0.00  0.00    +0.000 N 
ATOM     11  C   UNL     1      -1.550  15.229  22.753  0.00  0.00    +0.000 A 
ATOM     12  O   UNL     1      -0.851  16.185  23.103  0.00  0.00    +0.000 OA
ENDROOT
BRANCH   2  13
ATOM     13  N   UNL     1      -1.044  11.911  21.151  0.00  0.00    +0.000 N 
ATOM     14  C   UNL     1      -1.211  11.612  19.716  0.00  0.00    +0.000 C 
ATOM     15  C   UNL     1       0.114  11.041  19.134  0.00  0.00    +0.000 C 
ATOM     16  N   UNL     1       0.568   9.885  19.933  0.00  0.00    +0.000 N 
ATOM     17  C   UNL     1       0.694  10.163  21.381  0.00  0.00    +0.000 C 
ATOM     18  C   UNL     1      -0.646  10.714  21.924  0.00  0.00    +0.000 C 
BRANCH  16  19
ATOM     19  C   UNL     1       1.424   8.937  19.393  0.00  0.00    +0.000 A 
ATOM     20  C   UNL     1       1.950   8.995  18.098  0.00  0.00    +0.000 A 
ATOM     21  C   UNL     1       2.727   7.945  17.584  0.00  0.00    +0.000 A 
ATOM     22  C   UNL     1       3.002   6.815  18.357  0.00  0.00    +0.000 A 
ATOM     23  C   UNL     1       2.499   6.749  19.650  0.00  0.00    +0.000 A 
ATOM     24  C   UNL     1       1.730   7.800  20.156  0.00  0.00    +0.000 A 
BRANCH  22  25
ATOM     25  O   UNL     1       3.722   5.828  17.741  0.00  0.00    +0.000 OA
ATOM     26  C   UNL     1       3.111   4.543  17.715  0.00  0.00    +0.000 C 
ENDBRANCH  22  25
ENDBRANCH  16  19
ENDBRANCH   2  13
BRANCH   1  28
ATOM     27  C   UNL     1       1.106  14.517  20.786  0.00  0.00    +0.000 C 
ATOM     28  C   UNL     1       0.532  14.081  21.919  0.00  0.00    +0.000 C 
BRANCH  27  30
ATOM     29  N   UNL     1       3.191  15.192  19.710  0.00  0.00    +0.000 N 
ATOM     30  C   UNL     1       2.591  14.405  20.666  0.00  0.00    +0.000 C 
ATOM     31  O   UNL     1       3.230  13.639  21.384  0.00  0.00    +0.000 OA
ATOM     32  H   UNL     1       2.646  15.763  19.077  0.00  0.00    +0.000 HD
BRANCH  29  34
ATOM     33  C   UNL     1       4.895  14.669  18.016  0.00  0.00    +0.000 C 
ATOM     34  C   UNL     1       4.615  15.102  19.446  0.00  0.00    +0.000 C 
ENDBRANCH  29  34
ENDBRANCH  27  30
BRANCH  27  35
ATOM     35  C   UNL     1       0.268  15.101  19.660  0.00  0.00    +0.000 C 
ATOM     36  N   UNL     1      -0.427  15.586  18.726  0.00  0.00    +0.000 NA
ENDBRANCH  27  35
ENDBRANCH   1  28
TORSDOF 7
ENDMDL
MODEL 8
REMARK VINA RESULT:      -6.8      2.625      3.628
REMARK  Name = 
REMARK  10 active torsions:
REMARK  status: ('A' for Active; 'I' for Inactive)
REMARK    1  A    between atoms: C_1  and  C_2
REMARK    2  A    between atoms: C_2  and  N_3
REMARK    3  A    between atoms: C_4  and  C_6
REMARK    4  A    between atoms: C_6  and  C_7
REMARK    5  A    between atoms: C_9  and  C_10
REMARK    6  A    between atoms: C_11  and  N_12
REMARK    7  A    between atoms: N_15  and  C_16
REMARK    8  A    between atoms: C_19  and  O_20
REMARK    9  A    between atoms: O_20  and  C_21
REMARK   10  A    between atoms: C_28  and  C_29
REMARK                            x       y       z     vdW  Elec       q    Type
REMARK                         _______ _______ _______ _____ _____    ______ ____
ROOT
ATOM      1  C   UNL     1      -2.576  12.789  20.965  0.00  0.00    +0.000 A 
ATOM      2  C   UNL     1      -1.535  12.611  21.809  0.00  0.00    +0.000 A 
ATOM      3  N   UNL     1      -1.310  13.453  22.868  0.00  0.00    +0.000 NA
ATOM      4  C   UNL     1      -2.126  14.443  23.089  0.00  0.00    +0.000 A 
ATOM      5  C   UNL     1      -1.895  15.392  24.242  0.00  0.00    +0.000 A 
ATOM      6  C   UNL     1      -0.651  15.279  25.064  0.00  0.00    +0.000 C 
ATOM      7  C   UNL     1      -2.806  16.343  24.502  0.00  0.00    +0.000 A 
ATOM      8  C   UNL     1      -3.972  16.507  23.678  0.00  0.00    +0.000 A 
ATOM      9  C   UNL     1      -4.138  15.723  22.614  0.00  0.00    +0.000 A 
ATOM     10  N   UNL     1      -3.244  14.705  22.304  0.00  0.00    +0.000 N 
ATOM     11  C   UNL     1      -3.512  13.917  21.207  0.00  0.00    +0.000 A 
ATOM     12  O   UNL     1      -4.472  14.082  20.449  0.00  0.00    +0.000 OA
ENDROOT
BRANCH   2  13
ATOM     13  N   UNL     1      -0.700  11.511  21.579  0.00  0.00    +0.000 N 
ATOM     14  C   UNL     1      -0.777  10.288  22.402  0.00  0.00    +0.000 C 
ATOM     15  C   UNL     1      -0.488   9.037  21.522  0.00  0.00    +0.000 C 
ATOM     16  N   UNL     1       0.797   9.197  20.811  0.00  0.00    +0.000 N 
ATOM     17  C   UNL     1       0.900  10.443  20.021  0.00  0.00    +0.000 C 
ATOM     18  C   UNL     1       0.621  11.662  20.932  0.00  0.00    +0.000 C 
BRANCH  16  19
ATOM     19  C   UNL     1       1.497   8.093  20.348  0.00  0.00    +0.000 A 
ATOM     20  C   UNL     1       2.236   8.070  19.160  0.00  0.00    +0.000 A 
ATOM     21  C   UNL     1       2.833   6.884  18.702  0.00  0.00    +0.000 A 
ATOM     22  C   UNL     1       2.710   5.697  19.425  0.00  0.00    +0.000 A 
ATOM     23  C   UNL     1       1.990   5.707  20.613  0.00  0.00    +0.000 A 
ATOM     24  C   UNL     1       1.403   6.891  21.065  0.00  0.00    +0.000 A 
BRANCH  22  25
ATOM     25  O   UNL     1       3.283   4.590  18.862  0.00  0.00    +0.000 OA
ATOM     26  C   UNL     1       4.194   4.840  17.797  0.00  0.00    +0.000 C 
ENDBRANCH  22  25
ENDBRANCH  16  19
ENDBRANCH   2  13
BRANCH   1  28
ATOM     27  C   UNL     1      -2.316  11.914  18.663  0.00  0.00    +0.000 C 
ATOM     28  C   UNL     1      -2.883  11.871  19.880  0.00  0.00    +0.000 C 
BRANCH  27  30
ATOM     29  N   UNL     1      -3.354  11.519  16.490  0.00  0.00    +0.000 N 
ATOM     30  C   UNL     1      -2.813  10.962  17.625  0.00  0.00    +0.000 C 
ATOM     31  O   UNL     1      -2.745   9.746  17.793  0.00  0.00    +0.000 OA
ATOM     32  H   UNL     1      -3.471  12.520  16.395  0.00  0.00    +0.000 HD
BRANCH  29  34
ATOM     33  C   UNL     1      -2.893  10.113  14.526  0.00  0.00    +0.000 C 
ATOM     34  C   UNL     1      -3.947  10.692  15.455  0.00  0.00    +0.000 C 
ENDBRANCH  29  34
ENDBRANCH  27  30
BRANCH  27  35
ATOM     35  C   UNL     1      -1.205  12.905  18.354  0.00  0.00    +0.000 C 
ATOM     36  N   UNL     1      -0.284  13.728  18.098  0.00  0.00    +0.000 NA
ENDBRANCH  27  35
ENDBRANCH   1  28
TORSDOF 7
ENDMDL
MODEL 9
REMARK VINA RESULT:      -6.8      3.782      5.155
REMARK  Name = 
REMARK  10 active torsions:
REMARK  status: ('A' for Active; 'I' for Inactive)
REMARK    1  A    between atoms: C_1  and  C_2
REMARK    2  A    between atoms: C_2  and  N_3
REMARK    3  A    between atoms: C_4  and  C_6
REMARK    4  A    between atoms: C_6  and  C_7
REMARK    5  A    between atoms: C_9  and  C_10
REMARK    6  A    between atoms: C_11  and  N_12
REMARK    7  A    between atoms: N_15  and  C_16
REMARK    8  A    between atoms: C_19  and  O_20
REMARK    9  A    between atoms: O_20  and  C_21
REMARK   10  A    between atoms: C_28  and  C_29
REMARK                            x       y       z     vdW  Elec       q    Type
REMARK                         _______ _______ _______ _____ _____    ______ ____
ROOT
ATOM      1  C   UNL     1      -3.845  14.611  21.507  0.00  0.00    +0.000 A 
ATOM      2  C   UNL     1      -2.756  14.433  22.288  0.00  0.00    +0.000 A 
ATOM      3  N   UNL     1      -2.542  15.187  23.415  0.00  0.00    +0.000 NA
ATOM      4  C   UNL     1      -3.416  16.086  23.763  0.00  0.00    +0.000 A 
ATOM      5  C   UNL     1      -3.200  16.936  24.994  0.00  0.00    +0.000 A 
ATOM      6  C   UNL     1      -1.914  16.842  25.750  0.00  0.00    +0.000 C 
ATOM      7  C   UNL     1      -4.164  17.786  25.381  0.00  0.00    +0.000 A 
ATOM      8  C   UNL     1      -5.376  17.938  24.624  0.00  0.00    +0.000 A 
ATOM      9  C   UNL     1      -5.535  17.248  23.496  0.00  0.00    +0.000 A 
ATOM     10  N   UNL     1      -4.585  16.335  23.053  0.00  0.00    +0.000 N 
ATOM     11  C   UNL     1      -4.848  15.635  21.896  0.00  0.00    +0.000 A 
ATOM     12  O   UNL     1      -5.851  15.797  21.196  0.00  0.00    +0.000 OA
ENDROOT
BRANCH   2  13
ATOM     13  N   UNL     1      -1.855  13.427  21.919  0.00  0.00    +0.000 N 
ATOM     14  C   UNL     1      -1.301  12.477  22.903  0.00  0.00    +0.000 C 
ATOM     15  C   UNL     1      -1.112  11.079  22.244  0.00  0.00    +0.000 C 
ATOM     16  N   UNL     1      -0.306  11.198  21.012  0.00  0.00    +0.000 N 
ATOM     17  C   UNL     1      -0.829  12.183  20.040  0.00  0.00    +0.000 C 
ATOM     18  C   UNL     1      -0.988  13.560  20.727  0.00  0.00    +0.000 C 
BRANCH  16  19
ATOM     19  C   UNL     1       0.380  10.107  20.502  0.00  0.00    +0.000 A 
ATOM     20  C   UNL     1       0.776   8.999  21.258  0.00  0.00    +0.000 A 
ATOM     21  C   UNL     1       1.560   7.980  20.695  0.00  0.00    +0.000 A 
ATOM     22  C   UNL     1       1.960   8.042  19.358  0.00  0.00    +0.000 A 
ATOM     23  C   UNL     1       1.563   9.130  18.590  0.00  0.00    +0.000 A 
ATOM     24  C   UNL     1       0.780  10.138  19.157  0.00  0.00    +0.000 A 
BRANCH  22  25
ATOM     25  O   UNL     1       2.766   7.025  18.926  0.00  0.00    +0.000 OA
ATOM     26  C   UNL     1       2.724   5.831  19.701  0.00  0.00    +0.000 C 
ENDBRANCH  22  25
ENDBRANCH  16  19
ENDBRANCH   2  13
BRANCH   1  28
ATOM     27  C   UNL     1      -4.979  12.733  20.360  0.00  0.00    +0.000 C 
ATOM     28  C   UNL     1      -4.136  13.778  20.351  0.00  0.00    +0.000 C 
BRANCH  27  30
ATOM     29  N   UNL     1      -4.048  12.003  18.224  0.00  0.00    +0.000 N 
ATOM     30  C   UNL     1      -5.092  11.914  19.114  0.00  0.00    +0.000 C 
ATOM     31  O   UNL     1      -6.078  11.210  18.906  0.00  0.00    +0.000 OA
ATOM     32  H   UNL     1      -3.277  12.642  18.374  0.00  0.00    +0.000 HD
BRANCH  29  34
ATOM     33  C   UNL     1      -3.069  10.199  16.871  0.00  0.00    +0.000 C 
ATOM     34  C   UNL     1      -4.091  11.322  16.943  0.00  0.00    +0.000 C 
ENDBRANCH  29  34
ENDBRANCH  27  30
BRANCH  27  35
ATOM     35  C   UNL     1      -5.789  12.393  21.600  0.00  0.00    +0.000 C 
ATOM     36  N   UNL     1      -6.461  12.110  22.630  0.00  0.00    +0.000 NA
ENDBRANCH  27  35
ENDBRANCH   1  28
TORSDOF 7
ENDMDL
