MODEL 1
REMARK VINA RESULT:      -7.8      0.000      0.000
REMARK  Name = 
REMARK  10 active torsions:
REMARK  status: ('A' for Active; 'I' for Inactive)
REMARK    1  A    between atoms: C_1  and  O_2
REMARK    2  A    between atoms: O_2  and  C_3
REMARK    3  A    between atoms: C_6  and  N_7
REMARK    4  A    between atoms: C_9  and  C_10
REMARK    5  A    between atoms: N_18  and  C_19
REMARK    6  A    between atoms: C_22  and  C_23
REMARK    7  A    between atoms: C_23  and  C_24
REMARK    8  A    between atoms: C_24  and  N_25
REMARK    9  A    between atoms: N_25  and  C_26
REMARK   10  A    between atoms: N_25  and  C_27
REMARK                            x       y       z     vdW  Elec       q    Type
REMARK                         _______ _______ _______ _____ _____    ______ ____
ROOT
ATOM      1  N   UNL     1      -1.882  12.925  19.968  0.00  0.00    +0.000 N 
ATOM      2  N   UNL     1      -1.576  14.085  20.635  0.00  0.00    +0.000 NA
ATOM      3  C   UNL     1      -0.249  14.257  20.510  0.00  0.00    +0.000 A 
ATOM      4  C   UNL     1       0.312  13.182  19.794  0.00  0.00    +0.000 A 
ATOM      5  C   UNL     1      -0.733  12.316  19.493  0.00  0.00    +0.000 A 
ATOM      6  C   UNL     1      -0.521  10.964  19.002  0.00  0.00    +0.000 C 
ATOM      7  O   UNL     1      -1.385  10.095  19.013  0.00  0.00    +0.000 OA
ATOM      8  N   UNL     1       0.828  10.703  18.673  0.00  0.00    +0.000 N 
ATOM      9  C   UNL     1       1.768  11.806  18.410  0.00  0.00    +0.000 C 
ATOM     10  C   UNL     1       1.732  12.866  19.508  0.00  0.00    +0.000 C 
ENDROOT
BRANCH   1  14
ATOM     11  C   UNL     1      -5.959  11.793  19.633  0.00  0.00    +0.000 A 
ATOM     12  C   UNL     1      -5.472  12.303  20.839  0.00  0.00    +0.000 A 
ATOM     13  C   UNL     1      -4.128  12.667  20.975  0.00  0.00    +0.000 A 
ATOM     14  C   UNL     1      -3.250  12.530  19.897  0.00  0.00    +0.000 A 
ATOM     15  C   UNL     1      -3.731  11.961  18.705  0.00  0.00    +0.000 A 
ATOM     16  C   UNL     1      -5.079  11.607  18.572  0.00  0.00    +0.000 A 
BRANCH  11  18
ATOM     17  C   UNL     1      -7.809  10.974  20.858  0.00  0.00    +0.000 C 
ATOM     18  O   UNL     1      -7.289  11.474  19.631  0.00  0.00    +0.000 OA
ENDBRANCH  11  18
ENDBRANCH   1  14
BRANCH   8  19
ATOM     19  C   UNL     1       1.359   9.407  18.877  0.00  0.00    +0.000 A 
ATOM     20  C   UNL     1       1.876   8.665  17.818  0.00  0.00    +0.000 A 
ATOM     21  C   UNL     1       2.421   7.402  18.055  0.00  0.00    +0.000 A 
ATOM     22  C   UNL     1       2.433   6.829  19.339  0.00  0.00    +0.000 A 
ATOM     23  C   UNL     1       1.844   7.564  20.377  0.00  0.00    +0.000 A 
ATOM     24  C   UNL     1       1.335   8.844  20.157  0.00  0.00    +0.000 A 
BRANCH  22  25
ATOM     25  C   UNL     1       3.087   5.478  19.590  0.00  0.00    +0.000 C 
ATOM     26  C   UNL     1       3.711   4.699  18.441  0.00  0.00    +0.000 C 
ATOM     27  C   UNL     1       4.601   5.428  19.396  0.00  0.00    +0.000 C 
BRANCH  25  28
ATOM     28  C   UNL     1       2.528   4.692  20.776  0.00  0.00    +0.000 C 
BRANCH  28  29
ATOM     29  N   UNL     1       2.027   3.337  20.478  0.00  0.00    +0.000 NA
ATOM     30  C   UNL     1       1.842   2.524  21.679  0.00  0.00    +0.000 C 
ATOM     31  C   UNL     1       0.745   3.455  19.772  0.00  0.00    +0.000 C 
ENDBRANCH  28  29
ENDBRANCH  25  28
ENDBRANCH  22  25
ENDBRANCH   8  19
BRANCH   3  32
ATOM     32  C   UNL     1       0.508  15.399  21.129  0.00  0.00    +0.000 C 
ATOM     33  F   UNL     1      -0.283  16.358  21.678  0.00  0.00    +0.000 F 
ATOM     34  F   UNL     1       1.342  14.962  22.113  0.00  0.00    +0.000 F 
ATOM     35  F   UNL     1       1.301  16.019  20.211  0.00  0.00    +0.000 F 
ENDBRANCH   3  32
TORSDOF 7
ENDMDL
MODEL 2
REMARK VINA RESULT:      -7.7      0.233      1.071
REMARK  Name = 
REMARK  10 active torsions:
REMARK  status: ('A' for Active; 'I' for Inactive)
REMARK    1  A    between atoms: C_1  and  O_2
REMARK    2  A    between atoms: O_2  and  C_3
REMARK    3  A    between atoms: C_6  and  N_7
REMARK    4  A    between atoms: C_9  and  C_10
REMARK    5  A    between atoms: N_18  and  C_19
REMARK    6  A    between atoms: C_22  and  C_23
REMARK    7  A    between atoms: C_23  and  C_24
REMARK    8  A    between atoms: C_24  and  N_25
REMARK    9  A    between atoms: N_25  and  C_26
REMARK   10  A    between atoms: N_25  and  C_27
REMARK                            x       y       z     vdW  Elec       q    Type
REMARK                         _______ _______ _______ _____ _____    ______ ____
ROOT
ATOM      1  N   UNL     1      -2.063  12.976  20.045  0.00  0.00    +0.000 N 
ATOM      2  N   UNL     1      -1.796  14.151  20.702  0.00  0.00    +0.000 NA
ATOM      3  C   UNL     1      -0.474  14.359  20.585  0.00  0.00    +0.000 A 
ATOM      4  C   UNL     1       0.124  13.294  19.886  0.00  0.00    +0.000 A 
ATOM      5  C   UNL     1      -0.893  12.395  19.586  0.00  0.00    +0.000 A 
ATOM      6  C   UNL     1      -0.638  11.045  19.111  0.00  0.00    +0.000 C 
ATOM      7  O   UNL     1      -1.477  10.151  19.124  0.00  0.00    +0.000 OA
ATOM      8  N   UNL     1       0.720  10.819  18.796  0.00  0.00    +0.000 N 
ATOM      9  C   UNL     1       1.631  11.946  18.529  0.00  0.00    +0.000 C 
ATOM     10  C   UNL     1       1.555  13.016  19.615  0.00  0.00    +0.000 C 
ENDROOT
BRANCH   1  14
ATOM     11  C   UNL     1      -6.105  11.729  19.691  0.00  0.00    +0.000 A 
ATOM     12  C   UNL     1      -5.625  12.204  20.914  0.00  0.00    +0.000 A 
ATOM     13  C   UNL     1      -4.292  12.606  21.056  0.00  0.00    +0.000 A 
ATOM     14  C   UNL     1      -3.419  12.541  19.967  0.00  0.00    +0.000 A 
ATOM     15  C   UNL     1      -3.891  12.005  18.756  0.00  0.00    +0.000 A 
ATOM     16  C   UNL     1      -5.228  11.614  18.617  0.00  0.00    +0.000 A 
BRANCH  11  18
ATOM     17  C   UNL     1      -7.862  10.597  20.799  0.00  0.00    +0.000 C 
ATOM     18  O   UNL     1      -7.424  11.368  19.685  0.00  0.00    +0.000 OA
ENDBRANCH  11  18
ENDBRANCH   1  14
BRANCH   8  19
ATOM     19  C   UNL     1       1.286   9.541  19.019  0.00  0.00    +0.000 A 
ATOM     20  C   UNL     1       1.286   8.964  20.286  0.00  0.00    +0.000 A 
ATOM     21  C   UNL     1       1.824   7.688  20.470  0.00  0.00    +0.000 A 
ATOM     22  C   UNL     1       2.407   6.971  19.410  0.00  0.00    +0.000 A 
ATOM     23  C   UNL     1       2.457   7.600  18.158  0.00  0.00    +0.000 A 
ATOM     24  C   UNL     1       1.886   8.856  17.957  0.00  0.00    +0.000 A 
BRANCH  22  25
ATOM     25  C   UNL     1       2.932   5.557  19.614  0.00  0.00    +0.000 C 
ATOM     26  C   UNL     1       3.513   4.775  18.445  0.00  0.00    +0.000 C 
ATOM     27  C   UNL     1       4.440   5.381  19.450  0.00  0.00    +0.000 C 
BRANCH  25  28
ATOM     28  C   UNL     1       2.276   4.775  20.753  0.00  0.00    +0.000 C 
BRANCH  28  29
ATOM     29  N   UNL     1       1.925   3.373  20.457  0.00  0.00    +0.000 NA
ATOM     30  C   UNL     1       1.702   2.578  21.664  0.00  0.00    +0.000 C 
ATOM     31  C   UNL     1       0.707   3.358  19.637  0.00  0.00    +0.000 C 
ENDBRANCH  28  29
ENDBRANCH  25  28
ENDBRANCH  22  25
ENDBRANCH   8  19
BRANCH   3  32
ATOM     32  C   UNL     1       0.244  15.529  21.198  0.00  0.00    +0.000 C 
ATOM     33  F   UNL     1       1.196  15.185  22.106  0.00  0.00    +0.000 F 
ATOM     34  F   UNL     1       0.860  16.285  20.247  0.00  0.00    +0.000 F 
ATOM     35  F   UNL     1      -0.626  16.362  21.835  0.00  0.00    +0.000 F 
ENDBRANCH   3  32
TORSDOF 7
ENDMDL
MODEL 3
REMARK VINA RESULT:      -7.7      0.940      2.212
REMARK  Name = 
REMARK  10 active torsions:
REMARK  status: ('A' for Active; 'I' for Inactive)
REMARK    1  A    between atoms: C_1  and  O_2
REMARK    2  A    between atoms: O_2  and  C_3
REMARK    3  A    between atoms: C_6  and  N_7
REMARK    4  A    between atoms: C_9  and  C_10
REMARK    5  A    between atoms: N_18  and  C_19
REMARK    6  A    between atoms: C_22  and  C_23
REMARK    7  A    between atoms: C_23  and  C_24
REMARK    8  A    between atoms: C_24  and  N_25
REMARK    9  A    between atoms: N_25  and  C_26
REMARK   10  A    between atoms: N_25  and  C_27
REMARK                            x       y       z     vdW  Elec       q    Type
REMARK                         _______ _______ _______ _____ _____    ______ ____
ROOT
ATOM      1  N   UNL     1      -2.046  13.068  20.109  0.00  0.00    +0.000 N 
ATOM      2  N   UNL     1      -1.759  14.237  20.767  0.00  0.00    +0.000 NA
ATOM      3  C   UNL     1      -0.432  14.420  20.656  0.00  0.00    +0.000 A 
ATOM      4  C   UNL     1       0.147  13.343  19.959  0.00  0.00    +0.000 A 
ATOM      5  C   UNL     1      -0.886  12.464  19.654  0.00  0.00    +0.000 A 
ATOM      6  C   UNL     1      -0.656  11.109  19.180  0.00  0.00    +0.000 C 
ATOM      7  O   UNL     1      -1.512  10.232  19.190  0.00  0.00    +0.000 OA
ATOM      8  N   UNL     1       0.699  10.857  18.871  0.00  0.00    +0.000 N 
ATOM      9  C   UNL     1       1.633  11.966  18.607  0.00  0.00    +0.000 C 
ATOM     10  C   UNL     1       1.573  13.037  19.693  0.00  0.00    +0.000 C 
ENDROOT
BRANCH   1  14
ATOM     11  C   UNL     1      -6.098  11.808  19.985  0.00  0.00    +0.000 A 
ATOM     12  C   UNL     1      -5.300  11.706  18.844  0.00  0.00    +0.000 A 
ATOM     13  C   UNL     1      -3.965  12.130  18.859  0.00  0.00    +0.000 A 
ATOM     14  C   UNL     1      -3.410  12.660  20.026  0.00  0.00    +0.000 A 
ATOM     15  C   UNL     1      -4.235  12.816  21.154  0.00  0.00    +0.000 A 
ATOM     16  C   UNL     1      -5.565  12.381  21.136  0.00  0.00    +0.000 A 
BRANCH  11  18
ATOM     17  C   UNL     1      -7.810  10.381  20.779  0.00  0.00    +0.000 C 
ATOM     18  O   UNL     1      -7.382  11.361  19.839  0.00  0.00    +0.000 OA
ENDBRANCH  11  18
ENDBRANCH   1  14
BRANCH   8  19
ATOM     19  C   UNL     1       1.239   9.568  19.095  0.00  0.00    +0.000 A 
ATOM     20  C   UNL     1       1.200   8.980  20.357  0.00  0.00    +0.000 A 
ATOM     21  C   UNL     1       1.713   7.694  20.541  0.00  0.00    +0.000 A 
ATOM     22  C   UNL     1       2.308   6.977  19.489  0.00  0.00    +0.000 A 
ATOM     23  C   UNL     1       2.399   7.615  18.245  0.00  0.00    +0.000 A 
ATOM     24  C   UNL     1       1.853   8.883  18.042  0.00  0.00    +0.000 A 
BRANCH  22  25
ATOM     25  C   UNL     1       2.806   5.553  19.693  0.00  0.00    +0.000 C 
ATOM     26  C   UNL     1       2.166   4.657  20.744  0.00  0.00    +0.000 C 
ATOM     27  C   UNL     1       1.827   4.447  19.302  0.00  0.00    +0.000 C 
BRANCH  25  28
ATOM     28  C   UNL     1       4.274   5.316  19.338  0.00  0.00    +0.000 C 
BRANCH  28  29
ATOM     29  N   UNL     1       4.614   5.392  17.905  0.00  0.00    +0.000 NA
ATOM     30  C   UNL     1       5.793   6.218  17.645  0.00  0.00    +0.000 C 
ATOM     31  C   UNL     1       4.858   4.032  17.408  0.00  0.00    +0.000 C 
ENDBRANCH  28  29
ENDBRANCH  25  28
ENDBRANCH  22  25
ENDBRANCH   8  19
BRANCH   3  32
ATOM     32  C   UNL     1       0.307  15.575  21.272  0.00  0.00    +0.000 C 
ATOM     33  F   UNL     1       1.173  15.220  22.257  0.00  0.00    +0.000 F 
ATOM     34  F   UNL     1       1.027  16.256  20.338  0.00  0.00    +0.000 F 
ATOM     35  F   UNL     1      -0.557  16.480  21.813  0.00  0.00    +0.000 F 
ENDBRANCH   3  32
TORSDOF 7
ENDMDL
MODEL 4
REMARK VINA RESULT:      -7.6      2.033      2.758
REMARK  Name = 
REMARK  10 active torsions:
REMARK  status: ('A' for Active; 'I' for Inactive)
REMARK    1  A    between atoms: C_1  and  O_2
REMARK    2  A    between atoms: O_2  and  C_3
REMARK    3  A    between atoms: C_6  and  N_7
REMARK    4  A    between atoms: C_9  and  C_10
REMARK    5  A    between atoms: N_18  and  C_19
REMARK    6  A    between atoms: C_22  and  C_23
REMARK    7  A    between atoms: C_23  and  C_24
REMARK    8  A    between atoms: C_24  and  N_25
REMARK    9  A    between atoms: N_25  and  C_26
REMARK   10  A    between atoms: N_25  and  C_27
REMARK                            x       y       z     vdW  Elec       q    Type
REMARK                         _______ _______ _______ _____ _____    ______ ____
ROOT
ATOM      1  N   UNL     1      -0.689  13.452  21.681  0.00  0.00    +0.000 N 
ATOM      2  N   UNL     1      -0.019  14.494  22.270  0.00  0.00    +0.000 NA
ATOM      3  C   UNL     1       1.165  14.589  21.641  0.00  0.00    +0.000 A 
ATOM      4  C   UNL     1       1.278  13.577  20.669  0.00  0.00    +0.000 A 
ATOM      5  C   UNL     1       0.108  12.829  20.735  0.00  0.00    +0.000 A 
ATOM      6  C   UNL     1      -0.043  11.539  20.083  0.00  0.00    +0.000 C 
ATOM      7  O   UNL     1      -0.927  10.737  20.361  0.00  0.00    +0.000 OA
ATOM      8  N   UNL     1       1.034  11.229  19.221  0.00  0.00    +0.000 N 
ATOM      9  C   UNL     1       1.915  12.289  18.703  0.00  0.00    +0.000 C 
ATOM     10  C   UNL     1       2.429  13.202  19.813  0.00  0.00    +0.000 C 
ENDROOT
BRANCH   1  14
ATOM     11  C   UNL     1      -4.668  12.709  22.959  0.00  0.00    +0.000 A 
ATOM     12  C   UNL     1      -3.593  12.321  23.761  0.00  0.00    +0.000 A 
ATOM     13  C   UNL     1      -2.273  12.543  23.351  0.00  0.00    +0.000 A 
ATOM     14  C   UNL     1      -2.012  13.164  22.128  0.00  0.00    +0.000 A 
ATOM     15  C   UNL     1      -3.096  13.498  21.297  0.00  0.00    +0.000 A 
ATOM     16  C   UNL     1      -4.414  13.282  21.716  0.00  0.00    +0.000 A 
BRANCH  11  18
ATOM     17  C   UNL     1      -6.819  13.525  23.508  0.00  0.00    +0.000 C 
ATOM     18  O   UNL     1      -5.905  12.434  23.472  0.00  0.00    +0.000 OA
ENDBRANCH  11  18
ENDBRANCH   1  14
BRANCH   8  19
ATOM     19  C   UNL     1       1.451   9.884  19.081  0.00  0.00    +0.000 A 
ATOM     20  C   UNL     1       1.823   9.371  17.841  0.00  0.00    +0.000 A 
ATOM     21  C   UNL     1       2.261   8.048  17.739  0.00  0.00    +0.000 A 
ATOM     22  C   UNL     1       2.305   7.194  18.855  0.00  0.00    +0.000 A 
ATOM     23  C   UNL     1       1.861   7.712  20.079  0.00  0.00    +0.000 A 
ATOM     24  C   UNL     1       1.461   9.043  20.198  0.00  0.00    +0.000 A 
BRANCH  22  25
ATOM     25  C   UNL     1       2.843   5.776  18.737  0.00  0.00    +0.000 C 
ATOM     26  C   UNL     1       2.835   4.846  19.942  0.00  0.00    +0.000 C 
ATOM     27  C   UNL     1       1.807   4.661  18.870  0.00  0.00    +0.000 C 
BRANCH  25  28
ATOM     28  C   UNL     1       3.925   5.573  17.676  0.00  0.00    +0.000 C 
BRANCH  28  29
ATOM     29  N   UNL     1       5.309   5.862  18.098  0.00  0.00    +0.000 NA
ATOM     30  C   UNL     1       6.150   4.667  18.142  0.00  0.00    +0.000 C 
ATOM     31  C   UNL     1       5.893   6.830  17.160  0.00  0.00    +0.000 C 
ENDBRANCH  28  29
ENDBRANCH  25  28
ENDBRANCH  22  25
ENDBRANCH   8  19
BRANCH   3  32
ATOM     32  C   UNL     1       2.227  15.589  22.004  0.00  0.00    +0.000 C 
ATOM     33  F   UNL     1       1.849  16.482  22.957  0.00  0.00    +0.000 F 
ATOM     34  F   UNL     1       3.351  14.971  22.465  0.00  0.00    +0.000 F 
ATOM     35  F   UNL     1       2.615  16.313  20.917  0.00  0.00    +0.000 F 
ENDBRANCH   3  32
TORSDOF 7
ENDMDL
MODEL 5
REMARK VINA RESULT:      -7.6      1.746      2.675
REMARK  Name = 
REMARK  10 active torsions:
REMARK  status: ('A' for Active; 'I' for Inactive)
REMARK    1  A    between atoms: C_1  and  O_2
REMARK    2  A    between atoms: O_2  and  C_3
REMARK    3  A    between atoms: C_6  and  N_7
REMARK    4  A    between atoms: C_9  and  C_10
REMARK    5  A    between atoms: N_18  and  C_19
REMARK    6  A    between atoms: C_22  and  C_23
REMARK    7  A    between atoms: C_23  and  C_24
REMARK    8  A    between atoms: C_24  and  N_25
REMARK    9  A    between atoms: N_25  and  C_26
REMARK   10  A    between atoms: N_25  and  C_27
REMARK                            x       y       z     vdW  Elec       q    Type
REMARK                         _______ _______ _______ _____ _____    ______ ____
ROOT
ATOM      1  N   UNL     1      -0.842  13.516  21.411  0.00  0.00    +0.000 N 
ATOM      2  N   UNL     1      -0.203  14.561  22.029  0.00  0.00    +0.000 NA
ATOM      3  C   UNL     1       1.025  14.628  21.488  0.00  0.00    +0.000 A 
ATOM      4  C   UNL     1       1.196  13.596  20.546  0.00  0.00    +0.000 A 
ATOM      5  C   UNL     1       0.013  12.865  20.538  0.00  0.00    +0.000 A 
ATOM      6  C   UNL     1      -0.107  11.564  19.901  0.00  0.00    +0.000 C 
ATOM      7  O   UNL     1      -1.021  10.779  20.127  0.00  0.00    +0.000 OA
ATOM      8  N   UNL     1       1.025  11.224  19.128  0.00  0.00    +0.000 N 
ATOM      9  C   UNL     1       1.958  12.263  18.657  0.00  0.00    +0.000 C 
ATOM     10  C   UNL     1       2.401  13.190  19.785  0.00  0.00    +0.000 C 
ENDROOT
BRANCH   1  14
ATOM     11  C   UNL     1      -4.840  12.638  22.538  0.00  0.00    +0.000 A 
ATOM     12  C   UNL     1      -4.557  13.055  21.236  0.00  0.00    +0.000 A 
ATOM     13  C   UNL     1      -3.248  13.364  20.848  0.00  0.00    +0.000 A 
ATOM     14  C   UNL     1      -2.199  13.254  21.764  0.00  0.00    +0.000 A 
ATOM     15  C   UNL     1      -2.498  12.892  23.089  0.00  0.00    +0.000 A 
ATOM     16  C   UNL     1      -3.807  12.575  23.469  0.00  0.00    +0.000 A 
BRANCH  11  18
ATOM     17  C   UNL     1      -7.040  12.497  21.680  0.00  0.00    +0.000 C 
ATOM     18  O   UNL     1      -6.157  12.369  22.789  0.00  0.00    +0.000 OA
ENDBRANCH  11  18
ENDBRANCH   1  14
BRANCH   8  19
ATOM     19  C   UNL     1       1.433   9.871  19.044  0.00  0.00    +0.000 A 
ATOM     20  C   UNL     1       1.796   9.302  17.825  0.00  0.00    +0.000 A 
ATOM     21  C   UNL     1       2.223   7.974  17.778  0.00  0.00    +0.000 A 
ATOM     22  C   UNL     1       2.267   7.168  18.930  0.00  0.00    +0.000 A 
ATOM     23  C   UNL     1       1.833   7.742  20.133  0.00  0.00    +0.000 A 
ATOM     24  C   UNL     1       1.443   9.079  20.196  0.00  0.00    +0.000 A 
BRANCH  22  25
ATOM     25  C   UNL     1       2.795   5.742  18.871  0.00  0.00    +0.000 C 
ATOM     26  C   UNL     1       2.801   4.871  20.118  0.00  0.00    +0.000 C 
ATOM     27  C   UNL     1       1.755   4.642  19.073  0.00  0.00    +0.000 C 
BRANCH  25  28
ATOM     28  C   UNL     1       3.858   5.483  17.803  0.00  0.00    +0.000 C 
BRANCH  28  29
ATOM     29  N   UNL     1       5.234   5.889  18.146  0.00  0.00    +0.000 NA
ATOM     30  C   UNL     1       6.130   4.750  18.341  0.00  0.00    +0.000 C 
ATOM     31  C   UNL     1       5.756   6.736  17.067  0.00  0.00    +0.000 C 
ENDBRANCH  28  29
ENDBRANCH  25  28
ENDBRANCH  22  25
ENDBRANCH   8  19
BRANCH   3  32
ATOM     32  C   UNL     1       2.071  15.621  21.912  0.00  0.00    +0.000 C 
ATOM     33  F   UNL     1       2.543  16.398  20.901  0.00  0.00    +0.000 F 
ATOM     34  F   UNL     1       1.594  16.464  22.870  0.00  0.00    +0.000 F 
ATOM     35  F   UNL     1       3.149  14.996  22.464  0.00  0.00    +0.000 F 
ENDBRANCH   3  32
TORSDOF 7
ENDMDL
MODEL 6
REMARK VINA RESULT:      -7.6      1.975      2.876
REMARK  Name = 
REMARK  10 active torsions:
REMARK  status: ('A' for Active; 'I' for Inactive)
REMARK    1  A    between atoms: C_1  and  O_2
REMARK    2  A    between atoms: O_2  and  C_3
REMARK    3  A    between atoms: C_6  and  N_7
REMARK    4  A    between atoms: C_9  and  C_10
REMARK    5  A    between atoms: N_18  and  C_19
REMARK    6  A    between atoms: C_22  and  C_23
REMARK    7  A    between atoms: C_23  and  C_24
REMARK    8  A    between atoms: C_24  and  N_25
REMARK    9  A    between atoms: N_25  and  C_26
REMARK   10  A    between atoms: N_25  and  C_27
REMARK                            x       y       z     vdW  Elec       q    Type
REMARK                         _______ _______ _______ _____ _____    ______ ____
ROOT
ATOM      1  N   UNL     1      -0.475  13.278  21.356  0.00  0.00    +0.000 N 
ATOM      2  N   UNL     1       0.217  14.343  21.876  0.00  0.00    +0.000 NA
ATOM      3  C   UNL     1       1.379  14.406  21.204  0.00  0.00    +0.000 A 
ATOM      4  C   UNL     1       1.457  13.352  20.274  0.00  0.00    +0.000 A 
ATOM      5  C   UNL     1       0.288  12.613  20.411  0.00  0.00    +0.000 A 
ATOM      6  C   UNL     1       0.113  11.296  19.822  0.00  0.00    +0.000 C 
ATOM      7  O   UNL     1      -0.763  10.510  20.164  0.00  0.00    +0.000 OA
ATOM      8  N   UNL     1       1.158  10.945  18.939  0.00  0.00    +0.000 N 
ATOM      9  C   UNL     1       2.024  11.978  18.345  0.00  0.00    +0.000 C 
ATOM     10  C   UNL     1       2.578  12.936  19.397  0.00  0.00    +0.000 C 
ENDROOT
BRANCH   1  14
ATOM     11  C   UNL     1      -4.410  12.607  22.798  0.00  0.00    +0.000 A 
ATOM     12  C   UNL     1      -3.310  12.249  23.580  0.00  0.00    +0.000 A 
ATOM     13  C   UNL     1      -2.003  12.448  23.116  0.00  0.00    +0.000 A 
ATOM     14  C   UNL     1      -1.783  13.015  21.860  0.00  0.00    +0.000 A 
ATOM     15  C   UNL     1      -2.894  13.318  21.053  0.00  0.00    +0.000 A 
ATOM     16  C   UNL     1      -4.197  13.126  21.525  0.00  0.00    +0.000 A 
BRANCH  11  18
ATOM     17  C   UNL     1      -6.497  13.482  23.488  0.00  0.00    +0.000 C 
ATOM     18  O   UNL     1      -5.630  12.359  23.364  0.00  0.00    +0.000 OA
ENDBRANCH  11  18
ENDBRANCH   1  14
BRANCH   8  19
ATOM     19  C   UNL     1       1.568   9.593  18.843  0.00  0.00    +0.000 A 
ATOM     20  C   UNL     1       1.617   8.774  19.968  0.00  0.00    +0.000 A 
ATOM     21  C   UNL     1       1.995   7.436  19.839  0.00  0.00    +0.000 A 
ATOM     22  C   UNL     1       2.369   6.889  18.599  0.00  0.00    +0.000 A 
ATOM     23  C   UNL     1       2.379   7.750  17.493  0.00  0.00    +0.000 A 
ATOM     24  C   UNL     1       1.964   9.077  17.605  0.00  0.00    +0.000 A 
BRANCH  22  25
ATOM     25  C   UNL     1       2.719   5.414  18.465  0.00  0.00    +0.000 C 
ATOM     26  C   UNL     1       2.106   4.389  19.407  0.00  0.00    +0.000 C 
ATOM     27  C   UNL     1       1.581   4.502  18.011  0.00  0.00    +0.000 C 
BRANCH  25  28
ATOM     28  C   UNL     1       4.099   5.121  17.876  0.00  0.00    +0.000 C 
BRANCH  28  29
ATOM     29  N   UNL     1       5.202   5.976  18.353  0.00  0.00    +0.000 NA
ATOM     30  C   UNL     1       6.181   5.245  19.156  0.00  0.00    +0.000 C 
ATOM     31  C   UNL     1       5.876   6.565  17.189  0.00  0.00    +0.000 C 
ENDBRANCH  28  29
ENDBRANCH  25  28
ENDBRANCH  22  25
ENDBRANCH   8  19
BRANCH   3  32
ATOM     32  C   UNL     1       2.455  15.417  21.488  0.00  0.00    +0.000 C 
ATOM     33  F   UNL     1       2.868  16.112  20.396  0.00  0.00    +0.000 F 
ATOM     34  F   UNL     1       2.043  16.332  22.408  0.00  0.00    +0.000 F 
ATOM     35  F   UNL     1       3.561  14.823  22.019  0.00  0.00    +0.000 F 
ENDBRANCH   3  32
TORSDOF 7
ENDMDL
MODEL 7
REMARK VINA RESULT:      -7.5      0.605      1.296
REMARK  Name = 
REMARK  10 active torsions:
REMARK  status: ('A' for Active; 'I' for Inactive)
REMARK    1  A    between atoms: C_1  and  O_2
REMARK    2  A    between atoms: O_2  and  C_3
REMARK    3  A    between atoms: C_6  and  N_7
REMARK    4  A    between atoms: C_9  and  C_10
REMARK    5  A    between atoms: N_18  and  C_19
REMARK    6  A    between atoms: C_22  and  C_23
REMARK    7  A    between atoms: C_23  and  C_24
REMARK    8  A    between atoms: C_24  and  N_25
REMARK    9  A    between atoms: N_25  and  C_26
REMARK   10  A    between atoms: N_25  and  C_27
REMARK                            x       y       z     vdW  Elec       q    Type
REMARK                         _______ _______ _______ _____ _____    ______ ____
ROOT
ATOM      1  N   UNL     1      -2.009  13.135  20.243  0.00  0.00    +0.000 N 
ATOM      2  N   UNL     1      -1.739  14.242  21.006  0.00  0.00    +0.000 NA
ATOM      3  C   UNL     1      -0.418  14.464  20.899  0.00  0.00    +0.000 A 
ATOM      4  C   UNL     1       0.175  13.471  20.097  0.00  0.00    +0.000 A 
ATOM      5  C   UNL     1      -0.843  12.603  19.720  0.00  0.00    +0.000 A 
ATOM      6  C   UNL     1      -0.591  11.304  19.117  0.00  0.00    +0.000 C 
ATOM      7  O   UNL     1      -1.429  10.412  19.052  0.00  0.00    +0.000 OA
ATOM      8  N   UNL     1       0.766  11.113  18.771  0.00  0.00    +0.000 N 
ATOM      9  C   UNL     1       1.672  12.262  18.604  0.00  0.00    +0.000 C 
ATOM     10  C   UNL     1       1.604  13.222  19.789  0.00  0.00    +0.000 C 
ENDROOT
BRANCH   1  14
ATOM     11  C   UNL     1      -6.040  11.817  20.047  0.00  0.00    +0.000 A 
ATOM     12  C   UNL     1      -5.216  11.712  18.925  0.00  0.00    +0.000 A 
ATOM     13  C   UNL     1      -3.888  12.155  18.963  0.00  0.00    +0.000 A 
ATOM     14  C   UNL     1      -3.366  12.707  20.135  0.00  0.00    +0.000 A 
ATOM     15  C   UNL     1      -4.217  12.866  21.243  0.00  0.00    +0.000 A 
ATOM     16  C   UNL     1      -5.541  12.413  21.201  0.00  0.00    +0.000 A 
BRANCH  11  18
ATOM     17  C   UNL     1      -7.615  10.117  20.521  0.00  0.00    +0.000 C 
ATOM     18  O   UNL     1      -7.314  11.351  19.878  0.00  0.00    +0.000 OA
ENDBRANCH  11  18
ENDBRANCH   1  14
BRANCH   8  19
ATOM     19  C   UNL     1       1.335   9.820  18.866  0.00  0.00    +0.000 A 
ATOM     20  C   UNL     1       1.312   9.109  20.063  0.00  0.00    +0.000 A 
ATOM     21  C   UNL     1       1.854   7.823  20.119  0.00  0.00    +0.000 A 
ATOM     22  C   UNL     1       2.463   7.227  19.000  0.00  0.00    +0.000 A 
ATOM     23  C   UNL     1       2.535   7.988  17.825  0.00  0.00    +0.000 A 
ATOM     24  C   UNL     1       1.961   9.257  17.750  0.00  0.00    +0.000 A 
BRANCH  22  25
ATOM     25  C   UNL     1       2.992   5.802  19.061  0.00  0.00    +0.000 C 
ATOM     26  C   UNL     1       3.388   5.072  17.786  0.00  0.00    +0.000 C 
ATOM     27  C   UNL     1       4.459   5.623  18.673  0.00  0.00    +0.000 C 
BRANCH  25  28
ATOM     28  C   UNL     1       2.497   4.971  20.245  0.00  0.00    +0.000 C 
BRANCH  28  29
ATOM     29  N   UNL     1       2.234   3.545  19.972  0.00  0.00    +0.000 NA
ATOM     30  C   UNL     1       3.258   2.663  20.530  0.00  0.00    +0.000 C 
ATOM     31  C   UNL     1       0.928   3.191  20.542  0.00  0.00    +0.000 C 
ENDBRANCH  28  29
ENDBRANCH  25  28
ENDBRANCH  22  25
ENDBRANCH   8  19
BRANCH   3  32
ATOM     32  C   UNL     1       0.305  15.571  21.615  0.00  0.00    +0.000 C 
ATOM     33  F   UNL     1      -0.509  16.405  22.315  0.00  0.00    +0.000 F 
ATOM     34  F   UNL     1       1.218  15.077  22.497  0.00  0.00    +0.000 F 
ATOM     35  F   UNL     1       1.007  16.346  20.742  0.00  0.00    +0.000 F 
ENDBRANCH   3  32
TORSDOF 7
ENDMDL
MODEL 8
REMARK VINA RESULT:      -7.5      1.045      1.543
REMARK  Name = 
REMARK  10 active torsions:
REMARK  status: ('A' for Active; 'I' for Inactive)
REMARK    1  A    between atoms: C_1  and  O_2
REMARK    2  A    between atoms: O_2  and  C_3
REMARK    3  A    between atoms: C_6  and  N_7
REMARK    4  A    between atoms: C_9  and  C_10
REMARK    5  A    between atoms: N_18  and  C_19
REMARK    6  A    between atoms: C_22  and  C_23
REMARK    7  A    between atoms: C_23  and  C_24
REMARK    8  A    between atoms: C_24  and  N_25
REMARK    9  A    between atoms: N_25  and  C_26
REMARK   10  A    between atoms: N_25  and  C_27
REMARK                            x       y       z     vdW  Elec       q    Type
REMARK                         _______ _______ _______ _____ _____    ______ ____
ROOT
ATOM      1  N   UNL     1      -1.199  13.443  20.603  0.00  0.00    +0.000 N 
ATOM      2  N   UNL     1      -0.651  14.612  21.068  0.00  0.00    +0.000 NA
ATOM      3  C   UNL     1       0.598  14.668  20.575  0.00  0.00    +0.000 A 
ATOM      4  C   UNL     1       0.874  13.511  19.823  0.00  0.00    +0.000 A 
ATOM      5  C   UNL     1      -0.264  12.715  19.885  0.00  0.00    +0.000 A 
ATOM      6  C   UNL     1      -0.279  11.324  19.465  0.00  0.00    +0.000 C 
ATOM      7  O   UNL     1      -1.159  10.529  19.778  0.00  0.00    +0.000 OA
ATOM      8  N   UNL     1       0.909  10.936  18.806  0.00  0.00    +0.000 N 
ATOM      9  C   UNL     1       1.806  11.941  18.212  0.00  0.00    +0.000 C 
ATOM     10  C   UNL     1       2.138  13.064  19.191  0.00  0.00    +0.000 C 
ENDROOT
BRANCH   1  14
ATOM     11  C   UNL     1      -5.194  12.515  21.695  0.00  0.00    +0.000 A 
ATOM     12  C   UNL     1      -4.852  12.649  20.348  0.00  0.00    +0.000 A 
ATOM     13  C   UNL     1      -3.543  12.970  19.967  0.00  0.00    +0.000 A 
ATOM     14  C   UNL     1      -2.555  13.156  20.936  0.00  0.00    +0.000 A 
ATOM     15  C   UNL     1      -2.919  13.080  22.292  0.00  0.00    +0.000 A 
ATOM     16  C   UNL     1      -4.227  12.750  22.667  0.00  0.00    +0.000 A 
BRANCH  11  18
ATOM     17  C   UNL     1      -7.022  12.616  23.193  0.00  0.00    +0.000 C 
ATOM     18  O   UNL     1      -6.504  12.202  21.933  0.00  0.00    +0.000 OA
ENDBRANCH  11  18
ENDBRANCH   1  14
BRANCH   8  19
ATOM     19  C   UNL     1       1.394   9.615  18.962  0.00  0.00    +0.000 A 
ATOM     20  C   UNL     1       1.861   8.885  17.872  0.00  0.00    +0.000 A 
ATOM     21  C   UNL     1       2.363   7.596  18.061  0.00  0.00    +0.000 A 
ATOM     22  C   UNL     1       2.381   6.987  19.328  0.00  0.00    +0.000 A 
ATOM     23  C   UNL     1       1.843   7.714  20.399  0.00  0.00    +0.000 A 
ATOM     24  C   UNL     1       1.377   9.017  20.226  0.00  0.00    +0.000 A 
BRANCH  22  25
ATOM     25  C   UNL     1       2.988   5.606  19.526  0.00  0.00    +0.000 C 
ATOM     26  C   UNL     1       3.584   4.850  18.347  0.00  0.00    +0.000 C 
ATOM     27  C   UNL     1       4.500   5.512  19.327  0.00  0.00    +0.000 C 
BRANCH  25  28
ATOM     28  C   UNL     1       2.405   4.795  20.684  0.00  0.00    +0.000 C 
BRANCH  28  29
ATOM     29  N   UNL     1       2.151   3.368  20.413  0.00  0.00    +0.000 NA
ATOM     30  C   UNL     1       2.426   2.514  21.567  0.00  0.00    +0.000 C 
ATOM     31  C   UNL     1       0.746   3.208  20.017  0.00  0.00    +0.000 C 
ENDBRANCH  28  29
ENDBRANCH  25  28
ENDBRANCH  22  25
ENDBRANCH   8  19
BRANCH   3  32
ATOM     32  C   UNL     1       1.565  15.780  20.874  0.00  0.00    +0.000 C 
ATOM     33  F   UNL     1       2.069  16.392  19.770  0.00  0.00    +0.000 F 
ATOM     34  F   UNL     1       0.983  16.750  21.633  0.00  0.00    +0.000 F 
ATOM     35  F   UNL     1       2.629  15.327  21.594  0.00  0.00    +0.000 F 
ENDBRANCH   3  32
TORSDOF 7
ENDMDL
MODEL 9
REMARK VINA RESULT:      -7.5      1.723      2.390
REMARK  Name = 
REMARK  10 active torsions:
REMARK  status: ('A' for Active; 'I' for Inactive)
REMARK    1  A    between atoms: C_1  and  O_2
REMARK    2  A    between atoms: O_2  and  C_3
REMARK    3  A    between atoms: C_6  and  N_7
REMARK    4  A    between atoms: C_9  and  C_10
REMARK    5  A    between atoms: N_18  and  C_19
REMARK    6  A    between atoms: C_22  and  C_23
REMARK    7  A    between atoms: C_23  and  C_24
REMARK    8  A    between atoms: C_24  and  N_25
REMARK    9  A    between atoms: N_25  and  C_26
REMARK   10  A    between atoms: N_25  and  C_27
REMARK                            x       y       z     vdW  Elec       q    Type
REMARK                         _______ _______ _______ _____ _____    ______ ____
ROOT
ATOM      1  N   UNL     1      -0.667  13.450  21.427  0.00  0.00    +0.000 N 
ATOM      2  N   UNL     1       0.011  14.521  21.952  0.00  0.00    +0.000 NA
ATOM      3  C   UNL     1       1.200  14.561  21.327  0.00  0.00    +0.000 A 
ATOM      4  C   UNL     1       1.308  13.487  20.424  0.00  0.00    +0.000 A 
ATOM      5  C   UNL     1       0.128  12.758  20.529  0.00  0.00    +0.000 A 
ATOM      6  C   UNL     1      -0.033  11.430  19.962  0.00  0.00    +0.000 C 
ATOM      7  O   UNL     1      -0.928  10.657  20.285  0.00  0.00    +0.000 OA
ATOM      8  N   UNL     1       1.045  11.053  19.130  0.00  0.00    +0.000 N 
ATOM      9  C   UNL     1       1.942  12.067  18.550  0.00  0.00    +0.000 C 
ATOM     10  C   UNL     1       2.460  13.044  19.602  0.00  0.00    +0.000 C 
ENDROOT
BRANCH   1  14
ATOM     11  C   UNL     1      -4.581  12.618  22.846  0.00  0.00    +0.000 A 
ATOM     12  C   UNL     1      -4.400  13.157  21.570  0.00  0.00    +0.000 A 
ATOM     13  C   UNL     1      -3.119  13.453  21.089  0.00  0.00    +0.000 A 
ATOM     14  C   UNL     1      -1.996  13.206  21.883  0.00  0.00    +0.000 A 
ATOM     15  C   UNL     1      -2.188  12.720  23.188  0.00  0.00    +0.000 A 
ATOM     16  C   UNL     1      -3.470  12.417  23.660  0.00  0.00    +0.000 A 
BRANCH  11  18
ATOM     17  C   UNL     1      -6.589  13.479  23.751  0.00  0.00    +0.000 C 
ATOM     18  O   UNL     1      -5.880  12.376  23.196  0.00  0.00    +0.000 OA
ENDBRANCH  11  18
ENDBRANCH   1  14
BRANCH   8  19
ATOM     19  C   UNL     1       1.449   9.697  19.081  0.00  0.00    +0.000 A 
ATOM     20  C   UNL     1       1.493   8.916  20.233  0.00  0.00    +0.000 A 
ATOM     21  C   UNL     1       1.865   7.573  20.149  0.00  0.00    +0.000 A 
ATOM     22  C   UNL     1       2.237   6.982  18.929  0.00  0.00    +0.000 A 
ATOM     23  C   UNL     1       2.251   7.805  17.794  0.00  0.00    +0.000 A 
ATOM     24  C   UNL     1       1.842   9.136  17.861  0.00  0.00    +0.000 A 
BRANCH  22  25
ATOM     25  C   UNL     1       2.580   5.502  18.845  0.00  0.00    +0.000 C 
ATOM     26  C   UNL     1       1.956   4.626  17.768  0.00  0.00    +0.000 C 
ATOM     27  C   UNL     1       3.375   5.074  17.613  0.00  0.00    +0.000 C 
BRANCH  25  28
ATOM     28  C   UNL     1       2.975   4.847  20.169  0.00  0.00    +0.000 C 
BRANCH  28  29
ATOM     29  N   UNL     1       2.626   3.421  20.316  0.00  0.00    +0.000 NA
ATOM     30  C   UNL     1       3.794   2.543  20.266  0.00  0.00    +0.000 C 
ATOM     31  C   UNL     1       1.939   3.237  21.601  0.00  0.00    +0.000 C 
ENDBRANCH  28  29
ENDBRANCH  25  28
ENDBRANCH  22  25
ENDBRANCH   8  19
BRANCH   3  32
ATOM     32  C   UNL     1       2.271  15.571  21.632  0.00  0.00    +0.000 C 
ATOM     33  F   UNL     1       3.312  15.078  22.354  0.00  0.00    +0.000 F 
ATOM     34  F   UNL     1       2.795  16.097  20.490  0.00  0.00    +0.000 F 
ATOM     35  F   UNL     1       1.768  16.625  22.334  0.00  0.00    +0.000 F 
ENDBRANCH   3  32
TORSDOF 7
ENDMDL
