MODEL 1
REMARK VINA RESULT:      -7.2      0.000      0.000
REMARK  Name = 
REMARK  12 active torsions:
REMARK  status: ('A' for Active; 'I' for Inactive)
REMARK    1  A    between atoms: C_1  and  C_2
REMARK    2  A    between atoms: C_2  and  C_3
REMARK    3  A    between atoms: C_2  and  C_10
REMARK    4  A    between atoms: C_3  and  C_4
REMARK    5  A    between atoms: C_4  and  C_5
REMARK    6  A    between atoms: C_5  and  C_6
REMARK    7  A    between atoms: C_6  and  C_7
REMARK    8  A    between atoms: C_6  and  C_8
REMARK    9  A    between atoms: C_6  and  O_9
REMARK   10  A    between atoms: C_15  and  C_16
REMARK   11  A    between atoms: C_19  and  O_20
REMARK   12  A    between atoms: C_28  and  C_29
REMARK                            x       y       z     vdW  Elec       q    Type
REMARK                         _______ _______ _______ _____ _____    ______ ____
ROOT
ATOM      1  C   UNL     1      -1.291  11.631  20.713  0.00  0.00    +0.000 C 
ATOM      2  C   UNL     1      -1.673  11.510  19.207  0.00  0.00    +0.000 C 
ATOM      3  C   UNL     1      -0.824  10.381  18.612  0.00  0.00    +0.000 C 
ATOM      4  C   UNL     1      -0.264   9.660  19.835  0.00  0.00    +0.000 C 
ATOM      5  C   UNL     1       0.914   8.710  19.743  0.00  0.00    +0.000 C 
ATOM      6  C   UNL     1       1.595   8.483  18.602  0.00  0.00    +0.000 C 
ATOM      7  C   UNL     1       1.222   8.102  21.104  0.00  0.00    +0.000 C 
ATOM      8  C   UNL     1       1.412   9.165  22.190  0.00  0.00    +0.000 C 
ATOM      9  C   UNL     1       0.280  10.198  22.214  0.00  0.00    +0.000 C 
ATOM     10  C   UNL     1       0.035  10.826  20.823  0.00  0.00    +0.000 C 
ATOM     11  C   UNL     1       1.262  11.663  20.375  0.00  0.00    +0.000 C 
ENDROOT
BRANCH   6  12
ATOM     12  C   UNL     1       2.773   7.653  18.479  0.00  0.00    +0.000 C 
ATOM     13  C   UNL     1       2.868   6.330  18.714  0.00  0.00    +0.000 C 
ATOM     14  C   UNL     1       4.193   5.628  18.504  0.00  0.00    +0.000 C 
ATOM     15  C   UNL     1       4.105   4.523  17.440  0.00  0.00    +0.000 C 
ATOM     16  C   UNL     1       2.952   3.594  17.688  0.00  0.00    +0.000 C 
ATOM     17  O   UNL     1       1.711   4.031  17.102  0.00  0.00    +0.000 OA
ATOM     18  C   UNL     1       1.779   4.039  18.530  0.00  0.00    +0.000 C 
ATOM     19  C   UNL     1       1.754   5.405  19.159  0.00  0.00    +0.000 C 
BRANCH  15  20
ATOM     20  O   UNL     1       5.322   3.773  17.449  0.00  0.00    +0.000 OA
ATOM     21  H   UNL     1       5.172   2.969  17.974  0.00  0.00    +0.000 HD
ENDBRANCH  15  20
ENDBRANCH   6  12
BRANCH   1  23
ATOM     22  C   UNL     1      -1.143  13.274  22.706  0.00  0.00    +0.000 C 
ATOM     23  C   UNL     1      -1.341  13.109  21.196  0.00  0.00    +0.000 C 
BRANCH  23  24
ATOM     24  C   UNL     1      -2.688  13.740  20.750  0.00  0.00    +0.000 C 
BRANCH  24  25
ATOM     25  C   UNL     1      -3.680  14.072  21.865  0.00  0.00    +0.000 C 
BRANCH  25  26
ATOM     26  C   UNL     1      -4.759  13.006  22.068  0.00  0.00    +0.000 C 
BRANCH  26  27
ATOM     27  C   UNL     1      -5.444  13.056  23.447  0.00  0.00    +0.000 C 
ATOM     28  C   UNL     1      -4.524  12.570  24.568  0.00  0.00    +0.000 C 
ATOM     29  C   UNL     1      -5.984  14.452  23.765  0.00  0.00    +0.000 C 
BRANCH  27  30
ATOM     30  O   UNL     1      -6.579  12.182  23.403  0.00  0.00    +0.000 OA
ATOM     31  H   UNL     1      -6.347  11.416  22.845  0.00  0.00    +0.000 HD
ENDBRANCH  27  30
ENDBRANCH  26  27
ENDBRANCH  25  26
ENDBRANCH  24  25
ENDBRANCH  23  24
ENDBRANCH   1  23
TORSDOF 8
ENDMDL
MODEL 2
REMARK VINA RESULT:      -7.1      0.832      1.326
REMARK  Name = 
REMARK  12 active torsions:
REMARK  status: ('A' for Active; 'I' for Inactive)
REMARK    1  A    between atoms: C_1  and  C_2
REMARK    2  A    between atoms: C_2  and  C_3
REMARK    3  A    between atoms: C_2  and  C_10
REMARK    4  A    between atoms: C_3  and  C_4
REMARK    5  A    between atoms: C_4  and  C_5
REMARK    6  A    between atoms: C_5  and  C_6
REMARK    7  A    between atoms: C_6  and  C_7
REMARK    8  A    between atoms: C_6  and  C_8
REMARK    9  A    between atoms: C_6  and  O_9
REMARK   10  A    between atoms: C_15  and  C_16
REMARK   11  A    between atoms: C_19  and  O_20
REMARK   12  A    between atoms: C_28  and  C_29
REMARK                            x       y       z     vdW  Elec       q    Type
REMARK                         _______ _______ _______ _____ _____    ______ ____
ROOT
ATOM      1  C   UNL     1      -1.223  11.652  20.293  0.00  0.00    +0.000 C 
ATOM      2  C   UNL     1      -1.550  11.443  18.785  0.00  0.00    +0.000 C 
ATOM      3  C   UNL     1      -0.683  10.280  18.288  0.00  0.00    +0.000 C 
ATOM      4  C   UNL     1      -0.169   9.633  19.572  0.00  0.00    +0.000 C 
ATOM      5  C   UNL     1       1.009   8.679  19.580  0.00  0.00    +0.000 C 
ATOM      6  C   UNL     1       1.731   8.384  18.480  0.00  0.00    +0.000 C 
ATOM      7  C   UNL     1       1.266   8.152  20.984  0.00  0.00    +0.000 C 
ATOM      8  C   UNL     1       1.418   9.278  22.012  0.00  0.00    +0.000 C 
ATOM      9  C   UNL     1       0.288  10.310  21.934  0.00  0.00    +0.000 C 
ATOM     10  C   UNL     1       0.096  10.855  20.500  0.00  0.00    +0.000 C 
ATOM     11  C   UNL     1       1.341  11.663  20.049  0.00  0.00    +0.000 C 
ENDROOT
BRANCH   6  12
ATOM     12  C   UNL     1       2.910   7.549  18.449  0.00  0.00    +0.000 C 
ATOM     13  C   UNL     1       2.984   6.229  18.710  0.00  0.00    +0.000 C 
ATOM     14  C   UNL     1       4.317   5.519  18.601  0.00  0.00    +0.000 C 
ATOM     15  C   UNL     1       4.295   4.398  17.551  0.00  0.00    +0.000 C 
ATOM     16  C   UNL     1       3.123   3.477  17.735  0.00  0.00    +0.000 C 
ATOM     17  O   UNL     1       1.927   3.909  17.060  0.00  0.00    +0.000 OA
ATOM     18  C   UNL     1       1.899   3.939  18.489  0.00  0.00    +0.000 C 
ATOM     19  C   UNL     1       1.838   5.315  19.093  0.00  0.00    +0.000 C 
BRANCH  15  20
ATOM     20  O   UNL     1       5.506   3.643  17.653  0.00  0.00    +0.000 OA
ATOM     21  H   UNL     1       6.240   4.225  17.397  0.00  0.00    +0.000 HD
ENDBRANCH  15  20
ENDBRANCH   6  12
BRANCH   1  23
ATOM     22  C   UNL     1      -0.724  14.100  19.618  0.00  0.00    +0.000 C 
ATOM     23  C   UNL     1      -1.287  13.156  20.686  0.00  0.00    +0.000 C 
BRANCH  23  24
ATOM     24  C   UNL     1      -0.547  13.356  22.036  0.00  0.00    +0.000 C 
BRANCH  24  25
ATOM     25  C   UNL     1      -1.429  13.507  23.276  0.00  0.00    +0.000 C 
BRANCH  25  26
ATOM     26  C   UNL     1      -2.443  12.374  23.452  0.00  0.00    +0.000 C 
BRANCH  26  27
ATOM     27  C   UNL     1      -3.901  12.848  23.598  0.00  0.00    +0.000 C 
ATOM     28  C   UNL     1      -3.998  14.233  24.240  0.00  0.00    +0.000 C 
ATOM     29  C   UNL     1      -4.644  12.826  22.260  0.00  0.00    +0.000 C 
BRANCH  27  30
ATOM     30  O   UNL     1      -4.579  11.920  24.454  0.00  0.00    +0.000 OA
ATOM     31  H   UNL     1      -4.984  12.426  25.184  0.00  0.00    +0.000 HD
ENDBRANCH  27  30
ENDBRANCH  26  27
ENDBRANCH  25  26
ENDBRANCH  24  25
ENDBRANCH  23  24
ENDBRANCH   1  23
TORSDOF 8
ENDMDL
MODEL 3
REMARK VINA RESULT:      -7.1      3.101     10.211
REMARK  Name = 
REMARK  12 active torsions:
REMARK  status: ('A' for Active; 'I' for Inactive)
REMARK    1  A    between atoms: C_1  and  C_2
REMARK    2  A    between atoms: C_2  and  C_3
REMARK    3  A    between atoms: C_2  and  C_10
REMARK    4  A    between atoms: C_3  and  C_4
REMARK    5  A    between atoms: C_4  and  C_5
REMARK    6  A    between atoms: C_5  and  C_6
REMARK    7  A    between atoms: C_6  and  C_7
REMARK    8  A    between atoms: C_6  and  C_8
REMARK    9  A    between atoms: C_6  and  O_9
REMARK   10  A    between atoms: C_15  and  C_16
REMARK   11  A    between atoms: C_19  and  O_20
REMARK   12  A    between atoms: C_28  and  C_29
REMARK                            x       y       z     vdW  Elec       q    Type
REMARK                         _______ _______ _______ _____ _____    ______ ____
ROOT
ATOM      1  C   UNL     1       4.197   5.401  17.607  0.00  0.00    +0.000 C 
ATOM      2  C   UNL     1       4.487   6.548  16.594  0.00  0.00    +0.000 C 
ATOM      3  C   UNL     1       3.642   7.755  17.018  0.00  0.00    +0.000 C 
ATOM      4  C   UNL     1       3.184   7.403  18.431  0.00  0.00    +0.000 C 
ATOM      5  C   UNL     1       2.036   8.122  19.110  0.00  0.00    +0.000 C 
ATOM      6  C   UNL     1       1.292   9.069  18.504  0.00  0.00    +0.000 C 
ATOM      7  C   UNL     1       1.834   7.598  20.525  0.00  0.00    +0.000 C 
ATOM      8  C   UNL     1       1.677   6.075  20.568  0.00  0.00    +0.000 C 
ATOM      9  C   UNL     1       2.773   5.343  19.786  0.00  0.00    +0.000 C 
ATOM     10  C   UNL     1       2.908   5.873  18.340  0.00  0.00    +0.000 C 
ATOM     11  C   UNL     1       1.628   5.564  17.520  0.00  0.00    +0.000 C 
ENDROOT
BRANCH   6  12
ATOM     12  C   UNL     1       0.138   9.725  19.077  0.00  0.00    +0.000 C 
ATOM     13  C   UNL     1       0.084  10.955  19.624  0.00  0.00    +0.000 C 
ATOM     14  C   UNL     1      -1.234  11.480  20.153  0.00  0.00    +0.000 C 
ATOM     15  C   UNL     1      -1.682  12.760  19.432  0.00  0.00    +0.000 C 
ATOM     16  C   UNL     1      -0.590  13.789  19.379  0.00  0.00    +0.000 C 
ATOM     17  O   UNL     1       0.288  13.653  18.245  0.00  0.00    +0.000 OA
ATOM     18  C   UNL     1       0.856  13.376  19.527  0.00  0.00    +0.000 C 
ATOM     19  C   UNL     1       1.229  11.938  19.759  0.00  0.00    +0.000 C 
BRANCH  15  20
ATOM     20  O   UNL     1      -2.810  13.309  20.120  0.00  0.00    +0.000 OA
ATOM     21  H   UNL     1      -3.609  13.056  19.628  0.00  0.00    +0.000 HD
ENDBRANCH  15  20
ENDBRANCH   6  12
BRANCH   1  23
ATOM     22  C   UNL     1       3.933   2.840  17.861  0.00  0.00    +0.000 C 
ATOM     23  C   UNL     1       4.227   4.009  16.915  0.00  0.00    +0.000 C 
BRANCH  23  24
ATOM     24  C   UNL     1       5.605   3.818  16.225  0.00  0.00    +0.000 C 
BRANCH  24  25
ATOM     25  C   UNL     1       6.656   4.894  16.506  0.00  0.00    +0.000 C 
BRANCH  25  26
ATOM     26  C   UNL     1       7.633   4.524  17.624  0.00  0.00    +0.000 C 
BRANCH  26  27
ATOM     27  C   UNL     1       7.654   5.520  18.798  0.00  0.00    +0.000 C 
ATOM     28  C   UNL     1       7.886   6.959  18.334  0.00  0.00    +0.000 C 
ATOM     29  C   UNL     1       6.383   5.430  19.645  0.00  0.00    +0.000 C 
BRANCH  27  30
ATOM     30  O   UNL     1       8.741   5.157  19.659  0.00  0.00    +0.000 OA
ATOM     31  H   UNL     1       8.890   5.895  20.281  0.00  0.00    +0.000 HD
ENDBRANCH  27  30
ENDBRANCH  26  27
ENDBRANCH  25  26
ENDBRANCH  24  25
ENDBRANCH  23  24
ENDBRANCH   1  23
TORSDOF 8
ENDMDL
MODEL 4
REMARK VINA RESULT:      -7.1      2.860      4.511
REMARK  Name = 
REMARK  12 active torsions:
REMARK  status: ('A' for Active; 'I' for Inactive)
REMARK    1  A    between atoms: C_1  and  C_2
REMARK    2  A    between atoms: C_2  and  C_3
REMARK    3  A    between atoms: C_2  and  C_10
REMARK    4  A    between atoms: C_3  and  C_4
REMARK    5  A    between atoms: C_4  and  C_5
REMARK    6  A    between atoms: C_5  and  C_6
REMARK    7  A    between atoms: C_6  and  C_7
REMARK    8  A    between atoms: C_6  and  C_8
REMARK    9  A    between atoms: C_6  and  O_9
REMARK   10  A    between atoms: C_15  and  C_16
REMARK   11  A    between atoms: C_19  and  O_20
REMARK   12  A    between atoms: C_28  and  C_29
REMARK                            x       y       z     vdW  Elec       q    Type
REMARK                         _______ _______ _______ _____ _____    ______ ____
ROOT
ATOM      1  C   UNL     1      -1.037  11.818  20.222  0.00  0.00    +0.000 C 
ATOM      2  C   UNL     1      -1.095  11.586  18.683  0.00  0.00    +0.000 C 
ATOM      3  C   UNL     1      -0.281  10.322  18.382  0.00  0.00    +0.000 C 
ATOM      4  C   UNL     1      -0.092   9.675  19.751  0.00  0.00    +0.000 C 
ATOM      5  C   UNL     1       0.953   8.605  20.002  0.00  0.00    +0.000 C 
ATOM      6  C   UNL     1       1.833   8.196  19.065  0.00  0.00    +0.000 C 
ATOM      7  C   UNL     1       0.882   8.108  21.439  0.00  0.00    +0.000 C 
ATOM      8  C   UNL     1       0.959   9.251  22.456  0.00  0.00    +0.000 C 
ATOM      9  C   UNL     1      -0.017  10.390  22.145  0.00  0.00    +0.000 C 
ATOM     10  C   UNL     1       0.125  10.897  20.691  0.00  0.00    +0.000 C 
ATOM     11  C   UNL     1       1.513  11.555  20.472  0.00  0.00    +0.000 C 
ENDROOT
BRANCH   6  12
ATOM     12  C   UNL     1       2.899   7.242  19.276  0.00  0.00    +0.000 C 
ATOM     13  C   UNL     1       2.787   5.905  19.398  0.00  0.00    +0.000 C 
ATOM     14  C   UNL     1       4.032   5.066  19.591  0.00  0.00    +0.000 C 
ATOM     15  C   UNL     1       4.229   4.046  18.459  0.00  0.00    +0.000 C 
ATOM     16  C   UNL     1       2.985   3.246  18.200  0.00  0.00    +0.000 C 
ATOM     17  O   UNL     1       2.076   3.861  17.267  0.00  0.00    +0.000 OA
ATOM     18  C   UNL     1       1.634   3.774  18.624  0.00  0.00    +0.000 C 
ATOM     19  C   UNL     1       1.510   5.093  19.336  0.00  0.00    +0.000 C 
BRANCH  15  20
ATOM     20  O   UNL     1       5.292   3.158  18.814  0.00  0.00    +0.000 OA
ATOM     21  H   UNL     1       4.907   2.281  18.970  0.00  0.00    +0.000 HD
ENDBRANCH  15  20
ENDBRANCH   6  12
BRANCH   1  23
ATOM     22  C   UNL     1      -2.328  13.862  21.147  0.00  0.00    +0.000 C 
ATOM     23  C   UNL     1      -1.010  13.335  20.569  0.00  0.00    +0.000 C 
BRANCH  23  24
ATOM     24  C   UNL     1      -0.615  14.135  19.298  0.00  0.00    +0.000 C 
BRANCH  24  25
ATOM     25  C   UNL     1       0.697  14.918  19.373  0.00  0.00    +0.000 C 
BRANCH  25  26
ATOM     26  C   UNL     1       1.748  14.458  18.361  0.00  0.00    +0.000 C 
BRANCH  26  27
ATOM     27  C   UNL     1       2.972  15.387  18.255  0.00  0.00    +0.000 C 
ATOM     28  C   UNL     1       2.594  16.790  17.776  0.00  0.00    +0.000 C 
ATOM     29  C   UNL     1       3.745  15.463  19.574  0.00  0.00    +0.000 C 
BRANCH  27  30
ATOM     30  O   UNL     1       3.868  14.822  17.291  0.00  0.00    +0.000 OA
ATOM     31  H   UNL     1       3.500  14.991  16.403  0.00  0.00    +0.000 HD
ENDBRANCH  27  30
ENDBRANCH  26  27
ENDBRANCH  25  26
ENDBRANCH  24  25
ENDBRANCH  23  24
ENDBRANCH   1  23
TORSDOF 8
ENDMDL
MODEL 5
REMARK VINA RESULT:      -6.9      3.234     11.004
REMARK  Name = 
REMARK  12 active torsions:
REMARK  status: ('A' for Active; 'I' for Inactive)
REMARK    1  A    between atoms: C_1  and  C_2
REMARK    2  A    between atoms: C_2  and  C_3
REMARK    3  A    between atoms: C_2  and  C_10
REMARK    4  A    between atoms: C_3  and  C_4
REMARK    5  A    between atoms: C_4  and  C_5
REMARK    6  A    between atoms: C_5  and  C_6
REMARK    7  A    between atoms: C_6  and  C_7
REMARK    8  A    between atoms: C_6  and  C_8
REMARK    9  A    between atoms: C_6  and  O_9
REMARK   10  A    between atoms: C_15  and  C_16
REMARK   11  A    between atoms: C_19  and  O_20
REMARK   12  A    between atoms: C_28  and  C_29
REMARK                            x       y       z     vdW  Elec       q    Type
REMARK                         _______ _______ _______ _____ _____    ______ ____
ROOT
ATOM      1  C   UNL     1       4.504   5.408  17.470  0.00  0.00    +0.000 C 
ATOM      2  C   UNL     1       4.778   6.584  16.486  0.00  0.00    +0.000 C 
ATOM      3  C   UNL     1       3.873   7.748  16.904  0.00  0.00    +0.000 C 
ATOM      4  C   UNL     1       3.388   7.353  18.297  0.00  0.00    +0.000 C 
ATOM      5  C   UNL     1       2.192   8.014  18.953  0.00  0.00    +0.000 C 
ATOM      6  C   UNL     1       1.429   8.942  18.341  0.00  0.00    +0.000 C 
ATOM      7  C   UNL     1       1.970   7.457  20.352  0.00  0.00    +0.000 C 
ATOM      8  C   UNL     1       1.873   5.928  20.365  0.00  0.00    +0.000 C 
ATOM      9  C   UNL     1       3.020   5.255  19.604  0.00  0.00    +0.000 C 
ATOM     10  C   UNL     1       3.177   5.815  18.171  0.00  0.00    +0.000 C 
ATOM     11  C   UNL     1       1.934   5.471  17.309  0.00  0.00    +0.000 C 
ENDROOT
BRANCH   6  12
ATOM     12  C   UNL     1       0.234   9.541  18.890  0.00  0.00    +0.000 C 
ATOM     13  C   UNL     1       0.117  10.753  19.465  0.00  0.00    +0.000 C 
ATOM     14  C   UNL     1      -1.236  11.217  19.962  0.00  0.00    +0.000 C 
ATOM     15  C   UNL     1      -1.706  12.500  19.258  0.00  0.00    +0.000 C 
ATOM     16  C   UNL     1      -0.650  13.567  19.268  0.00  0.00    +0.000 C 
ATOM     17  O   UNL     1       0.269  13.492  18.162  0.00  0.00    +0.000 OA
ATOM     18  C   UNL     1       0.804  13.202  19.456  0.00  0.00    +0.000 C 
ATOM     19  C   UNL     1       1.220  11.773  19.665  0.00  0.00    +0.000 C 
BRANCH  15  20
ATOM     20  O   UNL     1      -2.875  12.989  19.919  0.00  0.00    +0.000 OA
ATOM     21  H   UNL     1      -3.244  13.707  19.378  0.00  0.00    +0.000 HD
ENDBRANCH  15  20
ENDBRANCH   6  12
BRANCH   1  23
ATOM     22  C   UNL     1       4.125   2.852  17.606  0.00  0.00    +0.000 C 
ATOM     23  C   UNL     1       4.610   4.031  16.755  0.00  0.00    +0.000 C 
BRANCH  23  24
ATOM     24  C   UNL     1       6.079   3.809  16.304  0.00  0.00    +0.000 C 
BRANCH  24  25
ATOM     25  C   UNL     1       6.374   4.046  14.822  0.00  0.00    +0.000 C 
BRANCH  25  26
ATOM     26  C   UNL     1       5.217   3.668  13.895  0.00  0.00    +0.000 C 
BRANCH  26  27
ATOM     27  C   UNL     1       5.635   3.416  12.435  0.00  0.00    +0.000 C 
ATOM     28  C   UNL     1       4.480   3.629  11.455  0.00  0.00    +0.000 C 
ATOM     29  C   UNL     1       6.842   4.267  12.032  0.00  0.00    +0.000 C 
BRANCH  27  30
ATOM     30  O   UNL     1       6.051   2.048  12.329  0.00  0.00    +0.000 OA
ATOM     31  H   UNL     1       5.294   1.484  12.580  0.00  0.00    +0.000 HD
ENDBRANCH  27  30
ENDBRANCH  26  27
ENDBRANCH  25  26
ENDBRANCH  24  25
ENDBRANCH  23  24
ENDBRANCH   1  23
TORSDOF 8
ENDMDL
MODEL 6
REMARK VINA RESULT:      -6.9      3.228     11.079
REMARK  Name = 
REMARK  12 active torsions:
REMARK  status: ('A' for Active; 'I' for Inactive)
REMARK    1  A    between atoms: C_1  and  C_2
REMARK    2  A    between atoms: C_2  and  C_3
REMARK    3  A    between atoms: C_2  and  C_10
REMARK    4  A    between atoms: C_3  and  C_4
REMARK    5  A    between atoms: C_4  and  C_5
REMARK    6  A    between atoms: C_5  and  C_6
REMARK    7  A    between atoms: C_6  and  C_7
REMARK    8  A    between atoms: C_6  and  C_8
REMARK    9  A    between atoms: C_6  and  O_9
REMARK   10  A    between atoms: C_15  and  C_16
REMARK   11  A    between atoms: C_19  and  O_20
REMARK   12  A    between atoms: C_28  and  C_29
REMARK                            x       y       z     vdW  Elec       q    Type
REMARK                         _______ _______ _______ _____ _____    ______ ____
ROOT
ATOM      1  C   UNL     1       4.146   5.212  17.755  0.00  0.00    +0.000 C 
ATOM      2  C   UNL     1       4.547   6.488  16.957  0.00  0.00    +0.000 C 
ATOM      3  C   UNL     1       3.750   7.660  17.541  0.00  0.00    +0.000 C 
ATOM      4  C   UNL     1       3.205   7.111  18.858  0.00  0.00    +0.000 C 
ATOM      5  C   UNL     1       2.066   7.780  19.601  0.00  0.00    +0.000 C 
ATOM      6  C   UNL     1       1.406   8.858  19.131  0.00  0.00    +0.000 C 
ATOM      7  C   UNL     1       1.768   7.047  20.902  0.00  0.00    +0.000 C 
ATOM      8  C   UNL     1       1.527   5.550  20.686  0.00  0.00    +0.000 C 
ATOM      9  C   UNL     1       2.617   4.889  19.837  0.00  0.00    +0.000 C 
ATOM     10  C   UNL     1       2.851   5.637  18.505  0.00  0.00    +0.000 C 
ATOM     11  C   UNL     1       1.597   5.545  17.596  0.00  0.00    +0.000 C 
ENDROOT
BRANCH   6  12
ATOM     12  C   UNL     1       0.263   9.482  19.759  0.00  0.00    +0.000 C 
ATOM     13  C   UNL     1       0.101  10.787  20.048  0.00  0.00    +0.000 C 
ATOM     14  C   UNL     1      -1.189  11.255  20.690  0.00  0.00    +0.000 C 
ATOM     15  C   UNL     1      -1.935  12.278  19.820  0.00  0.00    +0.000 C 
ATOM     16  C   UNL     1      -1.037  13.392  19.364  0.00  0.00    +0.000 C 
ATOM     17  O   UNL     1      -0.330  13.111  18.141  0.00  0.00    +0.000 OA
ATOM     18  C   UNL     1       0.461  13.200  19.328  0.00  0.00    +0.000 C 
ATOM     19  C   UNL     1       1.084  11.906  19.774  0.00  0.00    +0.000 C 
BRANCH  15  20
ATOM     20  O   UNL     1      -3.018  12.827  20.575  0.00  0.00    +0.000 OA
ATOM     21  H   UNL     1      -3.288  12.164  21.232  0.00  0.00    +0.000 HD
ENDBRANCH  15  20
ENDBRANCH   6  12
BRANCH   1  23
ATOM     22  C   UNL     1       3.919   2.638  17.605  0.00  0.00    +0.000 C 
ATOM     23  C   UNL     1       4.134   3.951  16.844  0.00  0.00    +0.000 C 
BRANCH  23  24
ATOM     24  C   UNL     1       5.457   3.902  16.034  0.00  0.00    +0.000 C 
BRANCH  24  25
ATOM     25  C   UNL     1       5.336   4.120  14.525  0.00  0.00    +0.000 C 
BRANCH  25  26
ATOM     26  C   UNL     1       6.437   3.434  13.713  0.00  0.00    +0.000 C 
BRANCH  26  27
ATOM     27  C   UNL     1       6.145   3.345  12.203  0.00  0.00    +0.000 C 
ATOM     28  C   UNL     1       6.593   2.012  11.603  0.00  0.00    +0.000 C 
ATOM     29  C   UNL     1       4.668   3.601  11.892  0.00  0.00    +0.000 C 
BRANCH  27  30
ATOM     30  O   UNL     1       6.882   4.388  11.553  0.00  0.00    +0.000 OA
ATOM     31  H   UNL     1       6.798   4.260  10.589  0.00  0.00    +0.000 HD
ENDBRANCH  27  30
ENDBRANCH  26  27
ENDBRANCH  25  26
ENDBRANCH  24  25
ENDBRANCH  23  24
ENDBRANCH   1  23
TORSDOF 8
ENDMDL
MODEL 7
REMARK VINA RESULT:      -6.9      2.658      4.020
REMARK  Name = 
REMARK  12 active torsions:
REMARK  status: ('A' for Active; 'I' for Inactive)
REMARK    1  A    between atoms: C_1  and  C_2
REMARK    2  A    between atoms: C_2  and  C_3
REMARK    3  A    between atoms: C_2  and  C_10
REMARK    4  A    between atoms: C_3  and  C_4
REMARK    5  A    between atoms: C_4  and  C_5
REMARK    6  A    between atoms: C_5  and  C_6
REMARK    7  A    between atoms: C_6  and  C_7
REMARK    8  A    between atoms: C_6  and  C_8
REMARK    9  A    between atoms: C_6  and  O_9
REMARK   10  A    between atoms: C_15  and  C_16
REMARK   11  A    between atoms: C_19  and  O_20
REMARK   12  A    between atoms: C_28  and  C_29
REMARK                            x       y       z     vdW  Elec       q    Type
REMARK                         _______ _______ _______ _____ _____    ______ ____
ROOT
ATOM      1  C   UNL     1      -1.128  11.713  19.995  0.00  0.00    +0.000 C 
ATOM      2  C   UNL     1      -1.228  11.405  18.471  0.00  0.00    +0.000 C 
ATOM      3  C   UNL     1      -0.356  10.174  18.197  0.00  0.00    +0.000 C 
ATOM      4  C   UNL     1      -0.081   9.604  19.586  0.00  0.00    +0.000 C 
ATOM      5  C   UNL     1       1.031   8.606  19.844  0.00  0.00    +0.000 C 
ATOM      6  C   UNL     1       1.898   8.201  18.893  0.00  0.00    +0.000 C 
ATOM      7  C   UNL     1       1.041   8.176  21.303  0.00  0.00    +0.000 C 
ATOM      8  C   UNL     1       1.091   9.368  22.264  0.00  0.00    +0.000 C 
ATOM      9  C   UNL     1       0.041  10.437  21.939  0.00  0.00    +0.000 C 
ATOM     10  C   UNL     1       0.101  10.880  20.459  0.00  0.00    +0.000 C 
ATOM     11  C   UNL     1       1.441  11.602  20.156  0.00  0.00    +0.000 C 
ENDROOT
BRANCH   6  12
ATOM     12  C   UNL     1       3.023   7.318  19.105  0.00  0.00    +0.000 C 
ATOM     13  C   UNL     1       2.992   5.983  19.279  0.00  0.00    +0.000 C 
ATOM     14  C   UNL     1       4.289   5.223  19.464  0.00  0.00    +0.000 C 
ATOM     15  C   UNL     1       4.511   4.174  18.364  0.00  0.00    +0.000 C 
ATOM     16  C   UNL     1       3.308   3.295  18.173  0.00  0.00    +0.000 C 
ATOM     17  O   UNL     1       2.339   3.822  17.247  0.00  0.00    +0.000 OA
ATOM     18  C   UNL     1       1.942   3.762  18.619  0.00  0.00    +0.000 C 
ATOM     19  C   UNL     1       1.763   5.097  19.287  0.00  0.00    +0.000 C 
BRANCH  15  20
ATOM     20  O   UNL     1       5.634   3.362  18.718  0.00  0.00    +0.000 OA
ATOM     21  H   UNL     1       5.511   2.491  18.307  0.00  0.00    +0.000 HD
ENDBRANCH  15  20
ENDBRANCH   6  12
BRANCH   1  23
ATOM     22  C   UNL     1      -2.525  13.739  20.794  0.00  0.00    +0.000 C 
ATOM     23  C   UNL     1      -1.173  13.244  20.270  0.00  0.00    +0.000 C 
BRANCH  23  24
ATOM     24  C   UNL     1      -0.782  14.001  18.972  0.00  0.00    +0.000 C 
BRANCH  24  25
ATOM     25  C   UNL     1       0.081  15.251  19.153  0.00  0.00    +0.000 C 
BRANCH  25  26
ATOM     26  C   UNL     1       1.568  15.017  18.877  0.00  0.00    +0.000 C 
BRANCH  26  27
ATOM     27  C   UNL     1       2.495  15.409  20.043  0.00  0.00    +0.000 C 
ATOM     28  C   UNL     1       1.894  15.057  21.404  0.00  0.00    +0.000 C 
ATOM     29  C   UNL     1       3.888  14.791  19.897  0.00  0.00    +0.000 C 
BRANCH  27  30
ATOM     30  O   UNL     1       2.676  16.830  19.998  0.00  0.00    +0.000 OA
ATOM     31  H   UNL     1       2.118  17.226  20.694  0.00  0.00    +0.000 HD
ENDBRANCH  27  30
ENDBRANCH  26  27
ENDBRANCH  25  26
ENDBRANCH  24  25
ENDBRANCH  23  24
ENDBRANCH   1  23
TORSDOF 8
ENDMDL
MODEL 8
REMARK VINA RESULT:      -6.9      3.246      4.839
REMARK  Name = 
REMARK  12 active torsions:
REMARK  status: ('A' for Active; 'I' for Inactive)
REMARK    1  A    between atoms: C_1  and  C_2
REMARK    2  A    between atoms: C_2  and  C_3
REMARK    3  A    between atoms: C_2  and  C_10
REMARK    4  A    between atoms: C_3  and  C_4
REMARK    5  A    between atoms: C_4  and  C_5
REMARK    6  A    between atoms: C_5  and  C_6
REMARK    7  A    between atoms: C_6  and  C_7
REMARK    8  A    between atoms: C_6  and  C_8
REMARK    9  A    between atoms: C_6  and  O_9
REMARK   10  A    between atoms: C_15  and  C_16
REMARK   11  A    between atoms: C_19  and  O_20
REMARK   12  A    between atoms: C_28  and  C_29
REMARK                            x       y       z     vdW  Elec       q    Type
REMARK                         _______ _______ _______ _____ _____    ______ ____
ROOT
ATOM      1  C   UNL     1      -1.032  12.740  20.351  0.00  0.00    +0.000 C 
ATOM      2  C   UNL     1      -0.806  12.554  18.821  0.00  0.00    +0.000 C 
ATOM      3  C   UNL     1      -0.194  11.164  18.616  0.00  0.00    +0.000 C 
ATOM      4  C   UNL     1      -0.418  10.465  19.953  0.00  0.00    +0.000 C 
ATOM      5  C   UNL     1       0.336   9.209  20.345  0.00  0.00    +0.000 C 
ATOM      6  C   UNL     1       1.303   8.658  19.583  0.00  0.00    +0.000 C 
ATOM      7  C   UNL     1      -0.125   8.706  21.705  0.00  0.00    +0.000 C 
ATOM      8  C   UNL     1      -0.055   9.791  22.784  0.00  0.00    +0.000 C 
ATOM      9  C   UNL     1      -0.717  11.103  22.351  0.00  0.00    +0.000 C 
ATOM     10  C   UNL     1      -0.183  11.603  20.989  0.00  0.00    +0.000 C 
ATOM     11  C   UNL     1       1.316  11.986  21.096  0.00  0.00    +0.000 C 
ENDROOT
BRANCH   6  12
ATOM     12  C   UNL     1       2.107   7.513  19.947  0.00  0.00    +0.000 C 
ATOM     13  C   UNL     1       2.745   6.666  19.116  0.00  0.00    +0.000 C 
ATOM     14  C   UNL     1       3.565   5.531  19.693  0.00  0.00    +0.000 C 
ATOM     15  C   UNL     1       5.045   5.618  19.290  0.00  0.00    +0.000 C 
ATOM     16  C   UNL     1       5.216   5.807  17.810  0.00  0.00    +0.000 C 
ATOM     17  O   UNL     1       5.188   7.184  17.389  0.00  0.00    +0.000 OA
ATOM     18  C   UNL     1       4.088   6.370  16.977  0.00  0.00    +0.000 C 
ATOM     19  C   UNL     1       2.767   6.724  17.603  0.00  0.00    +0.000 C 
BRANCH  15  20
ATOM     20  O   UNL     1       5.706   4.415  19.689  0.00  0.00    +0.000 OA
ATOM     21  H   UNL     1       6.334   4.641  20.395  0.00  0.00    +0.000 HD
ENDBRANCH  15  20
ENDBRANCH   6  12
BRANCH   1  23
ATOM     22  C   UNL     1      -2.065  14.918  21.291  0.00  0.00    +0.000 C 
ATOM     23  C   UNL     1      -0.800  14.215  20.787  0.00  0.00    +0.000 C 
BRANCH  23  24
ATOM     24  C   UNL     1      -0.177  14.998  19.600  0.00  0.00    +0.000 C 
BRANCH  24  25
ATOM     25  C   UNL     1       1.253  15.504  19.799  0.00  0.00    +0.000 C 
BRANCH  25  26
ATOM     26  C   UNL     1       1.990  15.799  18.491  0.00  0.00    +0.000 C 
BRANCH  26  27
ATOM     27  C   UNL     1       3.191  14.874  18.220  0.00  0.00    +0.000 C 
ATOM     28  C   UNL     1       4.373  15.173  19.144  0.00  0.00    +0.000 C 
ATOM     29  C   UNL     1       2.803  13.396  18.310  0.00  0.00    +0.000 C 
BRANCH  27  30
ATOM     30  O   UNL     1       3.621  15.099  16.872  0.00  0.00    +0.000 OA
ATOM     31  H   UNL     1       3.066  15.808  16.494  0.00  0.00    +0.000 HD
ENDBRANCH  27  30
ENDBRANCH  26  27
ENDBRANCH  25  26
ENDBRANCH  24  25
ENDBRANCH  23  24
ENDBRANCH   1  23
TORSDOF 8
ENDMDL
MODEL 9
REMARK VINA RESULT:      -6.9      2.980      4.097
REMARK  Name = 
REMARK  12 active torsions:
REMARK  status: ('A' for Active; 'I' for Inactive)
REMARK    1  A    between atoms: C_1  and  C_2
REMARK    2  A    between atoms: C_2  and  C_3
REMARK    3  A    between atoms: C_2  and  C_10
REMARK    4  A    between atoms: C_3  and  C_4
REMARK    5  A    between atoms: C_4  and  C_5
REMARK    6  A    between atoms: C_5  and  C_6
REMARK    7  A    between atoms: C_6  and  C_7
REMARK    8  A    between atoms: C_6  and  C_8
REMARK    9  A    between atoms: C_6  and  O_9
REMARK   10  A    between atoms: C_15  and  C_16
REMARK   11  A    between atoms: C_19  and  O_20
REMARK   12  A    between atoms: C_28  and  C_29
REMARK                            x       y       z     vdW  Elec       q    Type
REMARK                         _______ _______ _______ _____ _____    ______ ____
ROOT
ATOM      1  C   UNL     1      -1.150  11.780  20.270  0.00  0.00    +0.000 C 
ATOM      2  C   UNL     1      -1.261  11.555  18.733  0.00  0.00    +0.000 C 
ATOM      3  C   UNL     1      -0.414  10.324  18.391  0.00  0.00    +0.000 C 
ATOM      4  C   UNL     1      -0.145   9.676  19.746  0.00  0.00    +0.000 C 
ATOM      5  C   UNL     1       0.948   8.646  19.946  0.00  0.00    +0.000 C 
ATOM      6  C   UNL     1       1.804   8.275  18.972  0.00  0.00    +0.000 C 
ATOM      7  C   UNL     1       0.954   8.138  21.382  0.00  0.00    +0.000 C 
ATOM      8  C   UNL     1       1.030   9.277  22.403  0.00  0.00    +0.000 C 
ATOM      9  C   UNL     1       0.001  10.381  22.140  0.00  0.00    +0.000 C 
ATOM     10  C   UNL     1       0.064  10.901  20.685  0.00  0.00    +0.000 C 
ATOM     11  C   UNL     1       1.416  11.612  20.415  0.00  0.00    +0.000 C 
ENDROOT
BRANCH   6  12
ATOM     12  C   UNL     1       2.912   7.360  19.133  0.00  0.00    +0.000 C 
ATOM     13  C   UNL     1       2.853   6.024  19.292  0.00  0.00    +0.000 C 
ATOM     14  C   UNL     1       4.136   5.230  19.420  0.00  0.00    +0.000 C 
ATOM     15  C   UNL     1       4.290   4.189  18.301  0.00  0.00    +0.000 C 
ATOM     16  C   UNL     1       3.059   3.344  18.143  0.00  0.00    +0.000 C 
ATOM     17  O   UNL     1       2.071   3.907  17.259  0.00  0.00    +0.000 OA
ATOM     18  C   UNL     1       1.723   3.839  18.644  0.00  0.00    +0.000 C 
ATOM     19  C   UNL     1       1.602   5.170  19.334  0.00  0.00    +0.000 C 
BRANCH  15  20
ATOM     20  O   UNL     1       5.404   3.344  18.603  0.00  0.00    +0.000 OA
ATOM     21  H   UNL     1       5.720   3.576  19.492  0.00  0.00    +0.000 HD
ENDBRANCH  15  20
ENDBRANCH   6  12
BRANCH   1  23
ATOM     22  C   UNL     1      -2.516  13.795  21.149  0.00  0.00    +0.000 C 
ATOM     23  C   UNL     1      -1.165  13.295  20.626  0.00  0.00    +0.000 C 
BRANCH  23  24
ATOM     24  C   UNL     1      -0.728  14.110  19.380  0.00  0.00    +0.000 C 
BRANCH  24  25
ATOM     25  C   UNL     1      -0.308  15.559  19.632  0.00  0.00    +0.000 C 
BRANCH  25  26
ATOM     26  C   UNL     1      -0.289  16.423  18.369  0.00  0.00    +0.000 C 
BRANCH  26  27
ATOM     27  C   UNL     1       0.968  17.301  18.224  0.00  0.00    +0.000 C 
ATOM     28  C   UNL     1       2.255  16.473  18.217  0.00  0.00    +0.000 C 
ATOM     29  C   UNL     1       0.901  18.193  16.983  0.00  0.00    +0.000 C 
BRANCH  27  30
ATOM     30  O   UNL     1       1.020  18.181  19.354  0.00  0.00    +0.000 OA
ATOM     31  H   UNL     1       1.717  18.844  19.187  0.00  0.00    +0.000 HD
ENDBRANCH  27  30
ENDBRANCH  26  27
ENDBRANCH  25  26
ENDBRANCH  24  25
ENDBRANCH  23  24
ENDBRANCH   1  23
TORSDOF 8
ENDMDL
