MODEL 1
REMARK VINA RESULT:      -7.2      0.000      0.000
REMARK  Name = 
REMARK  15 active torsions:
REMARK  status: ('A' for Active; 'I' for Inactive)
REMARK    1  A    between atoms: C_2  and  C_3
REMARK    2  A    between atoms: C_2  and  O_18
REMARK    3  A    between atoms: C_3  and  C_4
REMARK    4  A    between atoms: C_4  and  C_5
REMARK    5  A    between atoms: C_5  and  C_6
REMARK    6  A    between atoms: C_6  and  C_7
REMARK    7  A    between atoms: C_7  and  C_8
REMARK    8  A    between atoms: C_8  and  C_9
REMARK    9  A    between atoms: C_9  and  C_10
REMARK   10  A    between atoms: C_10  and  C_11
REMARK   11  A    between atoms: C_11  and  C_12
REMARK   12  A    between atoms: O_18  and  C_19
REMARK   13  A    between atoms: C_19  and  C_20
REMARK   14  A    between atoms: C_22  and  C_24
REMARK   15  A    between atoms: C_24  and  O_26
REMARK                            x       y       z     vdW  Elec       q    Type
REMARK                         _______ _______ _______ _____ _____    ______ ____
ROOT
ATOM      1  O   UNL     1       1.636   1.509  19.117  0.00  0.00    +0.000 OA
ATOM      2  C   UNL     1       1.675   2.729  19.153  0.00  0.00    +0.000 C 
ENDROOT
BRANCH   2   3
ATOM      3  C   UNL     1       1.014   3.616  20.190  0.00  0.00    +0.000 C 
BRANCH   3   4
ATOM      4  C   UNL     1       1.963   4.664  20.779  0.00  0.00    +0.000 C 
BRANCH   4   5
ATOM      5  C   UNL     1       1.562   6.089  20.372  0.00  0.00    +0.000 C 
BRANCH   5   6
ATOM      6  C   UNL     1       2.690   6.803  19.620  0.00  0.00    +0.000 C 
BRANCH   6   7
ATOM      7  C   UNL     1       2.350   7.017  18.140  0.00  0.00    +0.000 C 
BRANCH   7   8
ATOM      8  C   UNL     1       2.422   8.500  17.765  0.00  0.00    +0.000 C 
BRANCH   8   9
ATOM      9  C   UNL     1       1.087   9.221  17.976  0.00  0.00    +0.000 C 
BRANCH   9  10
ATOM     10  C   UNL     1       1.184  10.212  19.140  0.00  0.00    +0.000 C 
BRANCH  10  11
ATOM     11  C   UNL     1      -0.029  11.144  19.209  0.00  0.00    +0.000 C 
BRANCH  11  12
ATOM     12  C   UNL     1      -0.609  11.192  20.602  0.00  0.00    +0.000 A 
ATOM     13  C   UNL     1      -1.579  12.148  20.932  0.00  0.00    +0.000 A 
ATOM     14  C   UNL     1      -2.098  12.215  22.226  0.00  0.00    +0.000 A 
ATOM     15  C   UNL     1      -1.649  11.329  23.204  0.00  0.00    +0.000 A 
ATOM     16  C   UNL     1      -0.682  10.378  22.888  0.00  0.00    +0.000 A 
ATOM     17  C   UNL     1      -0.162  10.309  21.593  0.00  0.00    +0.000 A 
ENDBRANCH  11  12
ENDBRANCH  10  11
ENDBRANCH   9  10
ENDBRANCH   8   9
ENDBRANCH   7   8
ENDBRANCH   6   7
ENDBRANCH   5   6
ENDBRANCH   4   5
ENDBRANCH   3   4
ENDBRANCH   2   3
BRANCH   2  18
ATOM     18  O   UNL     1       2.435   3.497  18.316  0.00  0.00    +0.000 OA
BRANCH  18  19
ATOM     19  C   UNL     1       3.820   3.128  18.238  0.00  0.00    +0.000 C 
BRANCH  19  20
ATOM     20  C   UNL     1       4.777   4.301  18.009  0.00  0.00    +0.000 C 
ATOM     21  C   UNL     1       5.361   4.363  16.612  0.00  0.00    +0.000 C 
ATOM     22  C   UNL     1       6.756   4.919  16.824  0.00  0.00    +0.000 C 
ATOM     23  F   UNL     1       7.617   4.229  16.001  0.00  0.00    +0.000 F 
ATOM     24  C   UNL     1       7.025   4.652  18.277  0.00  0.00    +0.000 C 
ATOM     25  O   UNL     1       8.094   4.802  18.849  0.00  0.00    +0.000 OA
ATOM     26  O   UNL     1       5.907   4.157  18.883  0.00  0.00    +0.000 OA
BRANCH  22  27
ATOM     27  C   UNL     1       6.829   6.389  16.503  0.00  0.00    +0.000 C 
ATOM     28  O   UNL     1       7.734   7.138  16.844  0.00  0.00    +0.000 OA
BRANCH  27  29
ATOM     29  O   UNL     1       5.724   6.828  15.838  0.00  0.00    +0.000 OA
ATOM     30  H   UNL     1       5.768   6.604  14.883  0.00  0.00    +0.000 HD
ENDBRANCH  27  29
ENDBRANCH  22  27
ENDBRANCH  19  20
ENDBRANCH  18  19
ENDBRANCH   2  18
TORSDOF 15
ENDMDL
MODEL 2
REMARK VINA RESULT:      -7.0      2.278      3.296
REMARK  Name = 
REMARK  15 active torsions:
REMARK  status: ('A' for Active; 'I' for Inactive)
REMARK    1  A    between atoms: C_2  and  C_3
REMARK    2  A    between atoms: C_2  and  O_18
REMARK    3  A    between atoms: C_3  and  C_4
REMARK    4  A    between atoms: C_4  and  C_5
REMARK    5  A    between atoms: C_5  and  C_6
REMARK    6  A    between atoms: C_6  and  C_7
REMARK    7  A    between atoms: C_7  and  C_8
REMARK    8  A    between atoms: C_8  and  C_9
REMARK    9  A    between atoms: C_9  and  C_10
REMARK   10  A    between atoms: C_10  and  C_11
REMARK   11  A    between atoms: C_11  and  C_12
REMARK   12  A    between atoms: O_18  and  C_19
REMARK   13  A    between atoms: C_19  and  C_20
REMARK   14  A    between atoms: C_22  and  C_24
REMARK   15  A    between atoms: C_24  and  O_26
REMARK                            x       y       z     vdW  Elec       q    Type
REMARK                         _______ _______ _______ _____ _____    ______ ____
ROOT
ATOM      1  O   UNL     1       1.957   2.398  19.215  0.00  0.00    +0.000 OA
ATOM      2  C   UNL     1       2.701   3.098  18.544  0.00  0.00    +0.000 C 
ENDROOT
BRANCH   2   3
ATOM      3  C   UNL     1       2.277   4.097  17.485  0.00  0.00    +0.000 C 
BRANCH   3   4
ATOM      4  C   UNL     1       1.660   5.371  18.070  0.00  0.00    +0.000 C 
BRANCH   4   5
ATOM      5  C   UNL     1       2.502   6.613  17.743  0.00  0.00    +0.000 C 
BRANCH   5   6
ATOM      6  C   UNL     1       2.094   7.816  18.600  0.00  0.00    +0.000 C 
BRANCH   6   7
ATOM      7  C   UNL     1       1.412   8.910  17.767  0.00  0.00    +0.000 C 
BRANCH   7   8
ATOM      8  C   UNL     1       1.953  10.296  18.130  0.00  0.00    +0.000 C 
BRANCH   8   9
ATOM      9  C   UNL     1       1.226  10.910  19.331  0.00  0.00    +0.000 C 
BRANCH   9  10
ATOM     10  C   UNL     1      -0.111  11.520  18.901  0.00  0.00    +0.000 C 
BRANCH  10  11
ATOM     11  C   UNL     1      -1.279  10.551  19.101  0.00  0.00    +0.000 C 
BRANCH  11  12
ATOM     12  C   UNL     1      -2.234  10.590  17.932  0.00  0.00    +0.000 A 
ATOM     13  C   UNL     1      -1.989   9.813  16.791  0.00  0.00    +0.000 A 
ATOM     14  C   UNL     1      -2.853   9.868  15.696  0.00  0.00    +0.000 A 
ATOM     15  C   UNL     1      -3.968  10.702  15.729  0.00  0.00    +0.000 A 
ATOM     16  C   UNL     1      -4.219  11.483  16.855  0.00  0.00    +0.000 A 
ATOM     17  C   UNL     1      -3.356  11.428  17.952  0.00  0.00    +0.000 A 
ENDBRANCH  11  12
ENDBRANCH  10  11
ENDBRANCH   9  10
ENDBRANCH   8   9
ENDBRANCH   7   8
ENDBRANCH   6   7
ENDBRANCH   5   6
ENDBRANCH   4   5
ENDBRANCH   3   4
ENDBRANCH   2   3
BRANCH   2  18
ATOM     18  O   UNL     1       4.052   3.182  18.732  0.00  0.00    +0.000 OA
BRANCH  18  19
ATOM     19  C   UNL     1       4.477   4.168  19.685  0.00  0.00    +0.000 C 
BRANCH  19  20
ATOM     20  C   UNL     1       5.728   4.949  19.275  0.00  0.00    +0.000 C 
ATOM     21  C   UNL     1       5.467   6.061  18.278  0.00  0.00    +0.000 C 
ATOM     22  C   UNL     1       6.721   6.087  17.426  0.00  0.00    +0.000 C 
ATOM     23  F   UNL     1       6.339   6.270  16.117  0.00  0.00    +0.000 F 
ATOM     24  C   UNL     1       7.331   4.733  17.653  0.00  0.00    +0.000 C 
ATOM     25  O   UNL     1       8.280   4.262  17.047  0.00  0.00    +0.000 OA
ATOM     26  O   UNL     1       6.638   4.057  18.615  0.00  0.00    +0.000 OA
BRANCH  22  27
ATOM     27  C   UNL     1       7.654   7.196  17.835  0.00  0.00    +0.000 C 
ATOM     28  O   UNL     1       7.775   8.263  17.249  0.00  0.00    +0.000 OA
BRANCH  27  29
ATOM     29  O   UNL     1       8.419   6.858  18.910  0.00  0.00    +0.000 OA
ATOM     30  H   UNL     1       8.897   6.014  18.759  0.00  0.00    +0.000 HD
ENDBRANCH  27  29
ENDBRANCH  22  27
ENDBRANCH  19  20
ENDBRANCH  18  19
ENDBRANCH   2  18
TORSDOF 15
ENDMDL
MODEL 3
REMARK VINA RESULT:      -6.9      4.634      8.962
REMARK  Name = 
REMARK  15 active torsions:
REMARK  status: ('A' for Active; 'I' for Inactive)
REMARK    1  A    between atoms: C_2  and  C_3
REMARK    2  A    between atoms: C_2  and  O_18
REMARK    3  A    between atoms: C_3  and  C_4
REMARK    4  A    between atoms: C_4  and  C_5
REMARK    5  A    between atoms: C_5  and  C_6
REMARK    6  A    between atoms: C_6  and  C_7
REMARK    7  A    between atoms: C_7  and  C_8
REMARK    8  A    between atoms: C_8  and  C_9
REMARK    9  A    between atoms: C_9  and  C_10
REMARK   10  A    between atoms: C_10  and  C_11
REMARK   11  A    between atoms: C_11  and  C_12
REMARK   12  A    between atoms: O_18  and  C_19
REMARK   13  A    between atoms: C_19  and  C_20
REMARK   14  A    between atoms: C_22  and  C_24
REMARK   15  A    between atoms: C_24  and  O_26
REMARK                            x       y       z     vdW  Elec       q    Type
REMARK                         _______ _______ _______ _____ _____    ______ ____
ROOT
ATOM      1  O   UNL     1       2.355   9.475  17.328  0.00  0.00    +0.000 OA
ATOM      2  C   UNL     1       1.981   8.593  18.086  0.00  0.00    +0.000 C 
ENDROOT
BRANCH   2   3
ATOM      3  C   UNL     1       2.553   7.192  18.181  0.00  0.00    +0.000 C 
BRANCH   3   4
ATOM      4  C   UNL     1       2.568   6.643  19.611  0.00  0.00    +0.000 C 
BRANCH   4   5
ATOM      5  C   UNL     1       1.696   5.386  19.748  0.00  0.00    +0.000 C 
BRANCH   5   6
ATOM      6  C   UNL     1       2.405   4.287  20.546  0.00  0.00    +0.000 C 
BRANCH   6   7
ATOM      7  C   UNL     1       1.934   2.886  20.140  0.00  0.00    +0.000 C 
BRANCH   7   8
ATOM      8  C   UNL     1       1.532   2.846  18.662  0.00  0.00    +0.000 C 
BRANCH   8   9
ATOM      9  C   UNL     1       2.516   2.035  17.812  0.00  0.00    +0.000 C 
BRANCH   9  10
ATOM     10  C   UNL     1       3.916   2.651  17.867  0.00  0.00    +0.000 C 
BRANCH  10  11
ATOM     11  C   UNL     1       4.042   3.883  16.968  0.00  0.00    +0.000 C 
BRANCH  11  12
ATOM     12  C   UNL     1       5.180   4.773  17.408  0.00  0.00    +0.000 A 
ATOM     13  C   UNL     1       5.789   5.647  16.496  0.00  0.00    +0.000 A 
ATOM     14  C   UNL     1       6.859   6.451  16.891  0.00  0.00    +0.000 A 
ATOM     15  C   UNL     1       7.334   6.387  18.199  0.00  0.00    +0.000 A 
ATOM     16  C   UNL     1       6.740   5.518  19.113  0.00  0.00    +0.000 A 
ATOM     17  C   UNL     1       5.668   4.714  18.720  0.00  0.00    +0.000 A 
ENDBRANCH  11  12
ENDBRANCH  10  11
ENDBRANCH   9  10
ENDBRANCH   8   9
ENDBRANCH   7   8
ENDBRANCH   6   7
ENDBRANCH   5   6
ENDBRANCH   4   5
ENDBRANCH   3   4
ENDBRANCH   2   3
BRANCH   2  18
ATOM     18  O   UNL     1       1.052   8.773  19.072  0.00  0.00    +0.000 OA
BRANCH  18  19
ATOM     19  C   UNL     1       1.204   9.973  19.844  0.00  0.00    +0.000 C 
BRANCH  19  20
ATOM     20  C   UNL     1      -0.004  10.913  19.803  0.00  0.00    +0.000 C 
ATOM     21  C   UNL     1      -1.110  10.462  18.869  0.00  0.00    +0.000 C 
ATOM     22  C   UNL     1      -1.687  11.759  18.336  0.00  0.00    +0.000 C 
ATOM     23  F   UNL     1      -1.941  11.589  16.994  0.00  0.00    +0.000 F 
ATOM     24  C   UNL     1      -0.596  12.760  18.584  0.00  0.00    +0.000 C 
ATOM     25  O   UNL     1      -0.571  13.911  18.177  0.00  0.00    +0.000 OA
ATOM     26  O   UNL     1       0.417  12.189  19.299  0.00  0.00    +0.000 OA
BRANCH  22  27
ATOM     27  C   UNL     1      -2.963  12.136  19.042  0.00  0.00    +0.000 C 
ATOM     28  O   UNL     1      -3.066  12.345  20.243  0.00  0.00    +0.000 OA
BRANCH  27  29
ATOM     29  O   UNL     1      -4.034  12.155  18.200  0.00  0.00    +0.000 OA
ATOM     30  H   UNL     1      -4.104  11.319  17.689  0.00  0.00    +0.000 HD
ENDBRANCH  27  29
ENDBRANCH  22  27
ENDBRANCH  19  20
ENDBRANCH  18  19
ENDBRANCH   2  18
TORSDOF 15
ENDMDL
MODEL 4
REMARK VINA RESULT:      -6.9      5.986      8.682
REMARK  Name = 
REMARK  15 active torsions:
REMARK  status: ('A' for Active; 'I' for Inactive)
REMARK    1  A    between atoms: C_2  and  C_3
REMARK    2  A    between atoms: C_2  and  O_18
REMARK    3  A    between atoms: C_3  and  C_4
REMARK    4  A    between atoms: C_4  and  C_5
REMARK    5  A    between atoms: C_5  and  C_6
REMARK    6  A    between atoms: C_6  and  C_7
REMARK    7  A    between atoms: C_7  and  C_8
REMARK    8  A    between atoms: C_8  and  C_9
REMARK    9  A    between atoms: C_9  and  C_10
REMARK   10  A    between atoms: C_10  and  C_11
REMARK   11  A    between atoms: C_11  and  C_12
REMARK   12  A    between atoms: O_18  and  C_19
REMARK   13  A    between atoms: C_19  and  C_20
REMARK   14  A    between atoms: C_22  and  C_24
REMARK   15  A    between atoms: C_24  and  O_26
REMARK                            x       y       z     vdW  Elec       q    Type
REMARK                         _______ _______ _______ _____ _____    ______ ____
ROOT
ATOM      1  O   UNL     1       7.333   5.725  16.041  0.00  0.00    +0.000 OA
ATOM      2  C   UNL     1       7.026   6.124  17.154  0.00  0.00    +0.000 C 
ENDROOT
BRANCH   2   3
ATOM      3  C   UNL     1       6.973   7.572  17.602  0.00  0.00    +0.000 C 
BRANCH   3   4
ATOM      4  C   UNL     1       8.346   8.137  17.977  0.00  0.00    +0.000 C 
BRANCH   4   5
ATOM      5  C   UNL     1       8.299   9.659  18.180  0.00  0.00    +0.000 C 
BRANCH   5   6
ATOM      6  C   UNL     1       9.155  10.099  19.372  0.00  0.00    +0.000 C 
BRANCH   6   7
ATOM      7  C   UNL     1       9.794  11.475  19.146  0.00  0.00    +0.000 C 
BRANCH   7   8
ATOM      8  C   UNL     1      10.396  11.578  17.741  0.00  0.00    +0.000 C 
BRANCH   8   9
ATOM      9  C   UNL     1      11.844  12.080  17.762  0.00  0.00    +0.000 C 
BRANCH   9  10
ATOM     10  C   UNL     1      11.992  13.343  16.910  0.00  0.00    +0.000 C 
BRANCH  10  11
ATOM     11  C   UNL     1      12.332  14.574  17.754  0.00  0.00    +0.000 C 
BRANCH  11  12
ATOM     12  C   UNL     1      11.211  14.917  18.706  0.00  0.00    +0.000 A 
ATOM     13  C   UNL     1       9.967  15.334  18.214  0.00  0.00    +0.000 A 
ATOM     14  C   UNL     1       8.937  15.680  19.090  0.00  0.00    +0.000 A 
ATOM     15  C   UNL     1       9.142  15.615  20.467  0.00  0.00    +0.000 A 
ATOM     16  C   UNL     1      10.376  15.207  20.968  0.00  0.00    +0.000 A 
ATOM     17  C   UNL     1      11.407  14.860  20.092  0.00  0.00    +0.000 A 
ENDBRANCH  11  12
ENDBRANCH  10  11
ENDBRANCH   9  10
ENDBRANCH   8   9
ENDBRANCH   7   8
ENDBRANCH   6   7
ENDBRANCH   5   6
ENDBRANCH   4   5
ENDBRANCH   3   4
ENDBRANCH   2   3
BRANCH   2  18
ATOM     18  O   UNL     1       6.556   5.320  18.154  0.00  0.00    +0.000 OA
BRANCH  18  19
ATOM     19  C   UNL     1       5.594   4.336  17.746  0.00  0.00    +0.000 C 
BRANCH  19  20
ATOM     20  C   UNL     1       4.296   4.341  18.561  0.00  0.00    +0.000 C 
ATOM     21  C   UNL     1       4.095   3.106  19.415  0.00  0.00    +0.000 C 
ATOM     22  C   UNL     1       2.593   2.897  19.405  0.00  0.00    +0.000 C 
ATOM     23  F   UNL     1       2.354   1.548  19.281  0.00  0.00    +0.000 F 
ATOM     24  C   UNL     1       2.138   3.666  18.198  0.00  0.00    +0.000 C 
ATOM     25  O   UNL     1       1.014   3.653  17.720  0.00  0.00    +0.000 OA
ATOM     26  O   UNL     1       3.181   4.360  17.657  0.00  0.00    +0.000 OA
BRANCH  22  27
ATOM     27  C   UNL     1       1.948   3.405  20.668  0.00  0.00    +0.000 C 
ATOM     28  O   UNL     1       1.086   4.273  20.716  0.00  0.00    +0.000 OA
BRANCH  27  29
ATOM     29  O   UNL     1       2.481   2.838  21.785  0.00  0.00    +0.000 OA
ATOM     30  H   UNL     1       2.306   3.382  22.583  0.00  0.00    +0.000 HD
ENDBRANCH  27  29
ENDBRANCH  22  27
ENDBRANCH  19  20
ENDBRANCH  18  19
ENDBRANCH   2  18
TORSDOF 15
ENDMDL
MODEL 5
REMARK VINA RESULT:      -6.9      1.819      3.877
REMARK  Name = 
REMARK  15 active torsions:
REMARK  status: ('A' for Active; 'I' for Inactive)
REMARK    1  A    between atoms: C_2  and  C_3
REMARK    2  A    between atoms: C_2  and  O_18
REMARK    3  A    between atoms: C_3  and  C_4
REMARK    4  A    between atoms: C_4  and  C_5
REMARK    5  A    between atoms: C_5  and  C_6
REMARK    6  A    between atoms: C_6  and  C_7
REMARK    7  A    between atoms: C_7  and  C_8
REMARK    8  A    between atoms: C_8  and  C_9
REMARK    9  A    between atoms: C_9  and  C_10
REMARK   10  A    between atoms: C_10  and  C_11
REMARK   11  A    between atoms: C_11  and  C_12
REMARK   12  A    between atoms: O_18  and  C_19
REMARK   13  A    between atoms: C_19  and  C_20
REMARK   14  A    between atoms: C_22  and  C_24
REMARK   15  A    between atoms: C_24  and  O_26
REMARK                            x       y       z     vdW  Elec       q    Type
REMARK                         _______ _______ _______ _____ _____    ______ ____
ROOT
ATOM      1  O   UNL     1       2.025   5.086  21.046  0.00  0.00    +0.000 OA
ATOM      2  C   UNL     1       2.305   5.922  20.201  0.00  0.00    +0.000 C 
ENDROOT
BRANCH   2   3
ATOM      3  C   UNL     1       1.600   7.246  19.983  0.00  0.00    +0.000 C 
BRANCH   3   4
ATOM      4  C   UNL     1       1.604   8.142  21.225  0.00  0.00    +0.000 C 
BRANCH   4   5
ATOM      5  C   UNL     1       0.194   8.637  21.575  0.00  0.00    +0.000 C 
BRANCH   5   6
ATOM      6  C   UNL     1       0.219  10.050  22.168  0.00  0.00    +0.000 C 
BRANCH   6   7
ATOM      7  C   UNL     1      -0.952  10.292  23.129  0.00  0.00    +0.000 C 
BRANCH   7   8
ATOM      8  C   UNL     1      -1.588  11.664  22.888  0.00  0.00    +0.000 C 
BRANCH   8   9
ATOM      9  C   UNL     1      -0.594  12.675  22.306  0.00  0.00    +0.000 C 
BRANCH   9  10
ATOM     10  C   UNL     1      -1.158  13.319  21.036  0.00  0.00    +0.000 C 
BRANCH  10  11
ATOM     11  C   UNL     1      -0.091  13.492  19.952  0.00  0.00    +0.000 C 
BRANCH  11  12
ATOM     12  C   UNL     1       0.166  12.197  19.219  0.00  0.00    +0.000 A 
ATOM     13  C   UNL     1      -0.902  11.360  18.866  0.00  0.00    +0.000 A 
ATOM     14  C   UNL     1      -0.667  10.148  18.215  0.00  0.00    +0.000 A 
ATOM     15  C   UNL     1       0.636   9.759  17.913  0.00  0.00    +0.000 A 
ATOM     16  C   UNL     1       1.706  10.581  18.264  0.00  0.00    +0.000 A 
ATOM     17  C   UNL     1       1.473  11.794  18.916  0.00  0.00    +0.000 A 
ENDBRANCH  11  12
ENDBRANCH  10  11
ENDBRANCH   9  10
ENDBRANCH   8   9
ENDBRANCH   7   8
ENDBRANCH   6   7
ENDBRANCH   5   6
ENDBRANCH   4   5
ENDBRANCH   3   4
ENDBRANCH   2   3
BRANCH   2  18
ATOM     18  O   UNL     1       3.396   5.847  19.381  0.00  0.00    +0.000 OA
BRANCH  18  19
ATOM     19  C   UNL     1       3.344   6.685  18.216  0.00  0.00    +0.000 C 
BRANCH  19  20
ATOM     20  C   UNL     1       4.365   6.329  17.131  0.00  0.00    +0.000 C 
ATOM     21  C   UNL     1       4.915   4.921  17.234  0.00  0.00    +0.000 C 
ATOM     22  C   UNL     1       6.346   5.052  16.751  0.00  0.00    +0.000 C 
ATOM     23  F   UNL     1       7.141   4.280  17.566  0.00  0.00    +0.000 F 
ATOM     24  C   UNL     1       6.636   6.518  16.901  0.00  0.00    +0.000 C 
ATOM     25  O   UNL     1       7.726   7.052  16.767  0.00  0.00    +0.000 OA
ATOM     26  O   UNL     1       5.506   7.189  17.267  0.00  0.00    +0.000 OA
BRANCH  22  27
ATOM     27  C   UNL     1       6.500   4.596  15.324  0.00  0.00    +0.000 C 
ATOM     28  O   UNL     1       6.269   3.464  14.920  0.00  0.00    +0.000 OA
BRANCH  27  29
ATOM     29  O   UNL     1       6.999   5.574  14.519  0.00  0.00    +0.000 OA
ATOM     30  H   UNL     1       7.974   5.501  14.426  0.00  0.00    +0.000 HD
ENDBRANCH  27  29
ENDBRANCH  22  27
ENDBRANCH  19  20
ENDBRANCH  18  19
ENDBRANCH   2  18
TORSDOF 15
ENDMDL
MODEL 6
REMARK VINA RESULT:      -6.8      4.700      8.868
REMARK  Name = 
REMARK  15 active torsions:
REMARK  status: ('A' for Active; 'I' for Inactive)
REMARK    1  A    between atoms: C_2  and  C_3
REMARK    2  A    between atoms: C_2  and  O_18
REMARK    3  A    between atoms: C_3  and  C_4
REMARK    4  A    between atoms: C_4  and  C_5
REMARK    5  A    between atoms: C_5  and  C_6
REMARK    6  A    between atoms: C_6  and  C_7
REMARK    7  A    between atoms: C_7  and  C_8
REMARK    8  A    between atoms: C_8  and  C_9
REMARK    9  A    between atoms: C_9  and  C_10
REMARK   10  A    between atoms: C_10  and  C_11
REMARK   11  A    between atoms: C_11  and  C_12
REMARK   12  A    between atoms: O_18  and  C_19
REMARK   13  A    between atoms: C_19  and  C_20
REMARK   14  A    between atoms: C_22  and  C_24
REMARK   15  A    between atoms: C_24  and  O_26
REMARK                            x       y       z     vdW  Elec       q    Type
REMARK                         _______ _______ _______ _____ _____    ______ ____
ROOT
ATOM      1  O   UNL     1       2.863   8.880  17.060  0.00  0.00    +0.000 OA
ATOM      2  C   UNL     1       2.095   8.773  18.004  0.00  0.00    +0.000 C 
ENDROOT
BRANCH   2   3
ATOM      3  C   UNL     1       1.617   7.475  18.625  0.00  0.00    +0.000 C 
BRANCH   3   4
ATOM      4  C   UNL     1       2.689   6.781  19.471  0.00  0.00    +0.000 C 
BRANCH   4   5
ATOM      5  C   UNL     1       2.131   6.305  20.820  0.00  0.00    +0.000 C 
BRANCH   5   6
ATOM      6  C   UNL     1       2.229   4.783  20.970  0.00  0.00    +0.000 C 
BRANCH   6   7
ATOM      7  C   UNL     1       0.965   4.073  20.471  0.00  0.00    +0.000 C 
BRANCH   7   8
ATOM      8  C   UNL     1       1.273   2.634  20.045  0.00  0.00    +0.000 C 
BRANCH   8   9
ATOM      9  C   UNL     1       1.053   2.409  18.545  0.00  0.00    +0.000 C 
BRANCH   9  10
ATOM     10  C   UNL     1       1.917   3.368  17.721  0.00  0.00    +0.000 C 
BRANCH  10  11
ATOM     11  C   UNL     1       3.370   2.896  17.620  0.00  0.00    +0.000 C 
BRANCH  11  12
ATOM     12  C   UNL     1       4.336   4.049  17.754  0.00  0.00    +0.000 A 
ATOM     13  C   UNL     1       4.414   5.026  16.752  0.00  0.00    +0.000 A 
ATOM     14  C   UNL     1       5.326   6.078  16.857  0.00  0.00    +0.000 A 
ATOM     15  C   UNL     1       6.170   6.162  17.962  0.00  0.00    +0.000 A 
ATOM     16  C   UNL     1       6.104   5.194  18.962  0.00  0.00    +0.000 A 
ATOM     17  C   UNL     1       5.192   4.141  18.859  0.00  0.00    +0.000 A 
ENDBRANCH  11  12
ENDBRANCH  10  11
ENDBRANCH   9  10
ENDBRANCH   8   9
ENDBRANCH   7   8
ENDBRANCH   6   7
ENDBRANCH   5   6
ENDBRANCH   4   5
ENDBRANCH   3   4
ENDBRANCH   2   3
BRANCH   2  18
ATOM     18  O   UNL     1       1.633   9.827  18.740  0.00  0.00    +0.000 OA
BRANCH  18  19
ATOM     19  C   UNL     1       0.696   9.488  19.773  0.00  0.00    +0.000 C 
BRANCH  19  20
ATOM     20  C   UNL     1      -0.713  10.048  19.561  0.00  0.00    +0.000 C 
ATOM     21  C   UNL     1      -1.041  10.377  18.119  0.00  0.00    +0.000 C 
ATOM     22  C   UNL     1      -1.950  11.586  18.218  0.00  0.00    +0.000 C 
ATOM     23  F   UNL     1      -1.594  12.467  17.223  0.00  0.00    +0.000 F 
ATOM     24  C   UNL     1      -1.663  12.133  19.587  0.00  0.00    +0.000 C 
ATOM     25  O   UNL     1      -2.066  13.194  20.036  0.00  0.00    +0.000 OA
ATOM     26  O   UNL     1      -0.829  11.293  20.267  0.00  0.00    +0.000 OA
BRANCH  22  27
ATOM     27  C   UNL     1      -3.400  11.211  18.058  0.00  0.00    +0.000 C 
ATOM     28  O   UNL     1      -3.809  10.094  17.773  0.00  0.00    +0.000 OA
BRANCH  27  29
ATOM     29  O   UNL     1      -4.229  12.282  18.200  0.00  0.00    +0.000 OA
ATOM     30  H   UNL     1      -3.855  13.085  17.776  0.00  0.00    +0.000 HD
ENDBRANCH  27  29
ENDBRANCH  22  27
ENDBRANCH  19  20
ENDBRANCH  18  19
ENDBRANCH   2  18
TORSDOF 15
ENDMDL
MODEL 7
REMARK VINA RESULT:      -6.8      1.644      2.709
REMARK  Name = 
REMARK  15 active torsions:
REMARK  status: ('A' for Active; 'I' for Inactive)
REMARK    1  A    between atoms: C_2  and  C_3
REMARK    2  A    between atoms: C_2  and  O_18
REMARK    3  A    between atoms: C_3  and  C_4
REMARK    4  A    between atoms: C_4  and  C_5
REMARK    5  A    between atoms: C_5  and  C_6
REMARK    6  A    between atoms: C_6  and  C_7
REMARK    7  A    between atoms: C_7  and  C_8
REMARK    8  A    between atoms: C_8  and  C_9
REMARK    9  A    between atoms: C_9  and  C_10
REMARK   10  A    between atoms: C_10  and  C_11
REMARK   11  A    between atoms: C_11  and  C_12
REMARK   12  A    between atoms: O_18  and  C_19
REMARK   13  A    between atoms: C_19  and  C_20
REMARK   14  A    between atoms: C_22  and  C_24
REMARK   15  A    between atoms: C_24  and  O_26
REMARK                            x       y       z     vdW  Elec       q    Type
REMARK                         _______ _______ _______ _____ _____    ______ ____
ROOT
ATOM      1  O   UNL     1       0.654   4.256  17.539  0.00  0.00    +0.000 OA
ATOM      2  C   UNL     1       1.328   3.261  17.759  0.00  0.00    +0.000 C 
ENDROOT
BRANCH   2   3
ATOM      3  C   UNL     1       0.991   2.149  18.734  0.00  0.00    +0.000 C 
BRANCH   3   4
ATOM      4  C   UNL     1       1.872   2.158  19.987  0.00  0.00    +0.000 C 
BRANCH   4   5
ATOM      5  C   UNL     1       1.334   3.122  21.054  0.00  0.00    +0.000 C 
BRANCH   5   6
ATOM      6  C   UNL     1       2.231   4.356  21.208  0.00  0.00    +0.000 C 
BRANCH   6   7
ATOM      7  C   UNL     1       1.557   5.627  20.676  0.00  0.00    +0.000 C 
BRANCH   7   8
ATOM      8  C   UNL     1       2.487   6.387  19.726  0.00  0.00    +0.000 C 
BRANCH   8   9
ATOM      9  C   UNL     1       2.127   7.873  19.623  0.00  0.00    +0.000 C 
BRANCH   9  10
ATOM     10  C   UNL     1       2.291   8.372  18.185  0.00  0.00    +0.000 C 
BRANCH  10  11
ATOM     11  C   UNL     1       1.067   9.155  17.701  0.00  0.00    +0.000 C 
BRANCH  11  12
ATOM     12  C   UNL     1       0.767  10.325  18.607  0.00  0.00    +0.000 A 
ATOM     13  C   UNL     1       1.623  11.434  18.637  0.00  0.00    +0.000 A 
ATOM     14  C   UNL     1       1.366  12.505  19.495  0.00  0.00    +0.000 A 
ATOM     15  C   UNL     1       0.254  12.476  20.333  0.00  0.00    +0.000 A 
ATOM     16  C   UNL     1      -0.601  11.376  20.315  0.00  0.00    +0.000 A 
ATOM     17  C   UNL     1      -0.346  10.304  19.458  0.00  0.00    +0.000 A 
ENDBRANCH  11  12
ENDBRANCH  10  11
ENDBRANCH   9  10
ENDBRANCH   8   9
ENDBRANCH   7   8
ENDBRANCH   6   7
ENDBRANCH   5   6
ENDBRANCH   4   5
ENDBRANCH   3   4
ENDBRANCH   2   3
BRANCH   2  18
ATOM     18  O   UNL     1       2.454   2.928  17.061  0.00  0.00    +0.000 OA
BRANCH  18  19
ATOM     19  C   UNL     1       3.673   3.504  17.554  0.00  0.00    +0.000 C 
BRANCH  19  20
ATOM     20  C   UNL     1       4.559   4.135  16.477  0.00  0.00    +0.000 C 
ATOM     21  C   UNL     1       5.929   3.500  16.347  0.00  0.00    +0.000 C 
ATOM     22  C   UNL     1       6.834   4.657  15.971  0.00  0.00    +0.000 C 
ATOM     23  F   UNL     1       8.011   4.520  16.670  0.00  0.00    +0.000 F 
ATOM     24  C   UNL     1       6.056   5.867  16.402  0.00  0.00    +0.000 C 
ATOM     25  O   UNL     1       6.470   7.016  16.424  0.00  0.00    +0.000 OA
ATOM     26  O   UNL     1       4.811   5.504  16.826  0.00  0.00    +0.000 OA
BRANCH  22  27
ATOM     27  C   UNL     1       7.129   4.679  14.494  0.00  0.00    +0.000 C 
ATOM     28  O   UNL     1       7.828   5.510  13.930  0.00  0.00    +0.000 OA
BRANCH  27  29
ATOM     29  O   UNL     1       6.468   3.697  13.820  0.00  0.00    +0.000 OA
ATOM     30  H   UNL     1       6.761   2.805  14.106  0.00  0.00    +0.000 HD
ENDBRANCH  27  29
ENDBRANCH  22  27
ENDBRANCH  19  20
ENDBRANCH  18  19
ENDBRANCH   2  18
TORSDOF 15
ENDMDL
MODEL 8
REMARK VINA RESULT:      -6.7      6.228      8.691
REMARK  Name = 
REMARK  15 active torsions:
REMARK  status: ('A' for Active; 'I' for Inactive)
REMARK    1  A    between atoms: C_2  and  C_3
REMARK    2  A    between atoms: C_2  and  O_18
REMARK    3  A    between atoms: C_3  and  C_4
REMARK    4  A    between atoms: C_4  and  C_5
REMARK    5  A    between atoms: C_5  and  C_6
REMARK    6  A    between atoms: C_6  and  C_7
REMARK    7  A    between atoms: C_7  and  C_8
REMARK    8  A    between atoms: C_8  and  C_9
REMARK    9  A    between atoms: C_9  and  C_10
REMARK   10  A    between atoms: C_10  and  C_11
REMARK   11  A    between atoms: C_11  and  C_12
REMARK   12  A    between atoms: O_18  and  C_19
REMARK   13  A    between atoms: C_19  and  C_20
REMARK   14  A    between atoms: C_22  and  C_24
REMARK   15  A    between atoms: C_24  and  O_26
REMARK                            x       y       z     vdW  Elec       q    Type
REMARK                         _______ _______ _______ _____ _____    ______ ____
ROOT
ATOM      1  O   UNL     1       8.112   5.079  19.237  0.00  0.00    +0.000 OA
ATOM      2  C   UNL     1       7.337   5.885  18.744  0.00  0.00    +0.000 C 
ENDROOT
BRANCH   2   3
ATOM      3  C   UNL     1       7.710   7.061  17.862  0.00  0.00    +0.000 C 
BRANCH   3   4
ATOM      4  C   UNL     1       8.451   8.169  18.617  0.00  0.00    +0.000 C 
BRANCH   4   5
ATOM      5  C   UNL     1       8.231   9.544  17.970  0.00  0.00    +0.000 C 
BRANCH   5   6
ATOM      6  C   UNL     1       9.391  10.502  18.264  0.00  0.00    +0.000 C 
BRANCH   6   7
ATOM      7  C   UNL     1       9.474  10.865  19.752  0.00  0.00    +0.000 C 
BRANCH   7   8
ATOM      8  C   UNL     1      10.692  11.749  20.036  0.00  0.00    +0.000 C 
BRANCH   8   9
ATOM      9  C   UNL     1      10.319  13.228  20.183  0.00  0.00    +0.000 C 
BRANCH   9  10
ATOM     10  C   UNL     1       9.063  13.552  19.370  0.00  0.00    +0.000 C 
BRANCH  10  11
ATOM     11  C   UNL     1       9.397  14.043  17.959  0.00  0.00    +0.000 C 
BRANCH  11  12
ATOM     12  C   UNL     1       9.537  15.545  17.916  0.00  0.00    +0.000 A 
ATOM     13  C   UNL     1       8.514  16.366  18.412  0.00  0.00    +0.000 A 
ATOM     14  C   UNL     1       8.626  17.756  18.347  0.00  0.00    +0.000 A 
ATOM     15  C   UNL     1       9.758  18.339  17.783  0.00  0.00    +0.000 A 
ATOM     16  C   UNL     1      10.779  17.534  17.282  0.00  0.00    +0.000 A 
ATOM     17  C   UNL     1      10.669  16.143  17.346  0.00  0.00    +0.000 A 
ENDBRANCH  11  12
ENDBRANCH  10  11
ENDBRANCH   9  10
ENDBRANCH   8   9
ENDBRANCH   7   8
ENDBRANCH   6   7
ENDBRANCH   5   6
ENDBRANCH   4   5
ENDBRANCH   3   4
ENDBRANCH   2   3
BRANCH   2  18
ATOM     18  O   UNL     1       5.976   5.781  18.811  0.00  0.00    +0.000 OA
BRANCH  18  19
ATOM     19  C   UNL     1       5.464   4.440  18.796  0.00  0.00    +0.000 C 
BRANCH  19  20
ATOM     20  C   UNL     1       4.026   4.303  19.304  0.00  0.00    +0.000 C 
ATOM     21  C   UNL     1       3.704   2.947  19.898  0.00  0.00    +0.000 C 
ATOM     22  C   UNL     1       2.248   2.726  19.535  0.00  0.00    +0.000 C 
ATOM     23  F   UNL     1       2.099   1.411  19.159  0.00  0.00    +0.000 F 
ATOM     24  C   UNL     1       2.023   3.671  18.389  0.00  0.00    +0.000 C 
ATOM     25  O   UNL     1       1.027   3.722  17.685  0.00  0.00    +0.000 OA
ATOM     26  O   UNL     1       3.126   4.453  18.196  0.00  0.00    +0.000 OA
BRANCH  22  27
ATOM     27  C   UNL     1       1.331   3.023  20.692  0.00  0.00    +0.000 C 
ATOM     28  O   UNL     1       1.317   2.412  21.752  0.00  0.00    +0.000 OA
BRANCH  27  29
ATOM     29  O   UNL     1       0.448   4.021  20.409  0.00  0.00    +0.000 OA
ATOM     30  H   UNL     1      -0.153   4.195  21.166  0.00  0.00    +0.000 HD
ENDBRANCH  27  29
ENDBRANCH  22  27
ENDBRANCH  19  20
ENDBRANCH  18  19
ENDBRANCH   2  18
TORSDOF 15
ENDMDL
MODEL 9
REMARK VINA RESULT:      -6.7      4.283      8.339
REMARK  Name = 
REMARK  15 active torsions:
REMARK  status: ('A' for Active; 'I' for Inactive)
REMARK    1  A    between atoms: C_2  and  C_3
REMARK    2  A    between atoms: C_2  and  O_18
REMARK    3  A    between atoms: C_3  and  C_4
REMARK    4  A    between atoms: C_4  and  C_5
REMARK    5  A    between atoms: C_5  and  C_6
REMARK    6  A    between atoms: C_6  and  C_7
REMARK    7  A    between atoms: C_7  and  C_8
REMARK    8  A    between atoms: C_8  and  C_9
REMARK    9  A    between atoms: C_9  and  C_10
REMARK   10  A    between atoms: C_10  and  C_11
REMARK   11  A    between atoms: C_11  and  C_12
REMARK   12  A    between atoms: O_18  and  C_19
REMARK   13  A    between atoms: C_19  and  C_20
REMARK   14  A    between atoms: C_22  and  C_24
REMARK   15  A    between atoms: C_24  and  O_26
REMARK                            x       y       z     vdW  Elec       q    Type
REMARK                         _______ _______ _______ _____ _____    ______ ____
ROOT
ATOM      1  O   UNL     1       2.359   6.841  18.467  0.00  0.00    +0.000 OA
ATOM      2  C   UNL     1       2.129   6.956  19.662  0.00  0.00    +0.000 C 
ENDROOT
BRANCH   2   3
ATOM      3  C   UNL     1       2.048   5.828  20.671  0.00  0.00    +0.000 C 
BRANCH   3   4
ATOM      4  C   UNL     1       3.045   4.699  20.395  0.00  0.00    +0.000 C 
BRANCH   4   5
ATOM      5  C   UNL     1       2.491   3.332  20.822  0.00  0.00    +0.000 C 
BRANCH   5   6
ATOM      6  C   UNL     1       1.031   3.152  20.391  0.00  0.00    +0.000 C 
BRANCH   6   7
ATOM      7  C   UNL     1       0.884   3.104  18.865  0.00  0.00    +0.000 C 
BRANCH   7   8
ATOM      8  C   UNL     1       2.081   2.401  18.217  0.00  0.00    +0.000 C 
BRANCH   8   9
ATOM      9  C   UNL     1       2.704   3.230  17.089  0.00  0.00    +0.000 C 
BRANCH   9  10
ATOM     10  C   UNL     1       4.220   3.339  17.271  0.00  0.00    +0.000 C 
BRANCH  10  11
ATOM     11  C   UNL     1       4.826   4.458  16.421  0.00  0.00    +0.000 C 
BRANCH  11  12
ATOM     12  C   UNL     1       5.863   5.239  17.194  0.00  0.00    +0.000 A 
ATOM     13  C   UNL     1       6.366   6.444  16.686  0.00  0.00    +0.000 A 
ATOM     14  C   UNL     1       7.345   7.154  17.383  0.00  0.00    +0.000 A 
ATOM     15  C   UNL     1       7.833   6.664  18.593  0.00  0.00    +0.000 A 
ATOM     16  C   UNL     1       7.344   5.465  19.105  0.00  0.00    +0.000 A 
ATOM     17  C   UNL     1       6.364   4.753  18.409  0.00  0.00    +0.000 A 
ENDBRANCH  11  12
ENDBRANCH  10  11
ENDBRANCH   9  10
ENDBRANCH   8   9
ENDBRANCH   7   8
ENDBRANCH   6   7
ENDBRANCH   5   6
ENDBRANCH   4   5
ENDBRANCH   3   4
ENDBRANCH   2   3
BRANCH   2  18
ATOM     18  O   UNL     1       2.028   8.155  20.310  0.00  0.00    +0.000 OA
BRANCH  18  19
ATOM     19  C   UNL     1       0.856   8.312  21.125  0.00  0.00    +0.000 C 
BRANCH  19  20
ATOM     20  C   UNL     1       0.090   9.616  20.891  0.00  0.00    +0.000 C 
ATOM     21  C   UNL     1       0.037  10.054  19.441  0.00  0.00    +0.000 C 
ATOM     22  C   UNL     1       0.062  11.568  19.517  0.00  0.00    +0.000 C 
ATOM     23  F   UNL     1       0.886  12.029  18.516  0.00  0.00    +0.000 F 
ATOM     24  C   UNL     1       0.621  11.844  20.883  0.00  0.00    +0.000 C 
ATOM     25  O   UNL     1       0.954  12.937  21.315  0.00  0.00    +0.000 OA
ATOM     26  O   UNL     1       0.761  10.681  21.581  0.00  0.00    +0.000 OA
BRANCH  22  27
ATOM     27  C   UNL     1      -1.312  12.161  19.345  0.00  0.00    +0.000 C 
ATOM     28  O   UNL     1      -2.323  11.525  19.078  0.00  0.00    +0.000 OA
BRANCH  27  29
ATOM     29  O   UNL     1      -1.306  13.519  19.451  0.00  0.00    +0.000 OA
ATOM     30  H   UNL     1      -1.820  13.820  20.232  0.00  0.00    +0.000 HD
ENDBRANCH  27  29
ENDBRANCH  22  27
ENDBRANCH  19  20
ENDBRANCH  18  19
ENDBRANCH   2  18
TORSDOF 15
ENDMDL
