MODEL 1
REMARK VINA RESULT:      -7.3      0.000      0.000
REMARK  Name = 
REMARK  6 active torsions:
REMARK  status: ('A' for Active; 'I' for Inactive)
REMARK    1  A    between atoms: C_1  and  C_2
REMARK    2  A    between atoms: C_2  and  C_3
REMARK    3  A    between atoms: C_16  and  O_17
REMARK    4  A    between atoms: C_18  and  O_19
REMARK    5  A    between atoms: O_19  and  C_20
REMARK    6  A    between atoms: C_20  and  C_21
REMARK                            x       y       z     vdW  Elec       q    Type
REMARK                         _______ _______ _______ _____ _____    ______ ____
ROOT
ATOM      1  C   UNL     1       7.580   4.946  15.819  0.00  0.00    +0.000 C 
ATOM      2  C   UNL     1       6.117   5.204  16.224  0.00  0.00    +0.000 C 
ATOM      3  C   UNL     1       5.377   5.897  15.056  0.00  0.00    +0.000 C 
ATOM      4  O   UNL     1       5.509   3.893  16.296  0.00  0.00    +0.000 OA
ATOM      5  C   UNL     1       4.364   3.904  17.037  0.00  0.00    +0.000 A 
ATOM      6  C   UNL     1       3.169   3.568  16.411  0.00  0.00    +0.000 A 
ATOM      7  C   UNL     1       1.997   3.583  17.154  0.00  0.00    +0.000 A 
ATOM      8  C   UNL     1       2.064   3.773  18.536  0.00  0.00    +0.000 A 
ATOM      9  C   UNL     1       0.870   3.639  19.351  0.00  0.00    +0.000 A 
ATOM     10  C   UNL     1       1.005   3.559  20.674  0.00  0.00    +0.000 A 
ATOM     11  C   UNL     1       2.322   3.675  21.329  0.00  0.00    +0.000 A 
ATOM     12  O   UNL     1       2.444   3.409  22.520  0.00  0.00    +0.000 OA
ATOM     13  O   UNL     1       3.372   4.158  20.551  0.00  0.00    +0.000 OA
ATOM     14  C   UNL     1       3.286   4.090  19.146  0.00  0.00    +0.000 A 
ATOM     15  C   UNL     1       4.433   4.282  18.378  0.00  0.00    +0.000 A 
ATOM     16  C   UNL     1       5.678   5.037  18.782  0.00  0.00    +0.000 C 
ATOM     17  C   UNL     1       5.984   6.010  17.576  0.00  0.00    +0.000 C 
ENDROOT
BRANCH  16  18
ATOM     18  O   UNL     1       6.747   4.144  19.075  0.00  0.00    +0.000 OA
ATOM     19  H   UNL     1       7.524   4.675  19.318  0.00  0.00    +0.000 HD
ENDBRANCH  16  18
BRANCH  17  20
ATOM     20  O   UNL     1       7.103   6.872  17.849  0.00  0.00    +0.000 OA
BRANCH  20  21
ATOM     21  C   UNL     1       6.971   8.158  17.235  0.00  0.00    +0.000 C 
BRANCH  21  22
ATOM     22  C   UNL     1       7.902   9.179  17.837  0.00  0.00    +0.000 A 
ATOM     23  C   UNL     1       7.878  10.506  17.381  0.00  0.00    +0.000 A 
ATOM     24  C   UNL     1       8.676  11.480  17.987  0.00  0.00    +0.000 A 
ATOM     25  C   UNL     1       9.498  11.126  19.055  0.00  0.00    +0.000 A 
ATOM     26  C   UNL     1       9.534   9.811  19.506  0.00  0.00    +0.000 A 
ATOM     27  C   UNL     1       8.742   8.835  18.904  0.00  0.00    +0.000 A 
ENDBRANCH  21  22
ENDBRANCH  20  21
ENDBRANCH  17  20
TORSDOF 4
ENDMDL
MODEL 2
REMARK VINA RESULT:      -7.3      7.285      9.291
REMARK  Name = 
REMARK  6 active torsions:
REMARK  status: ('A' for Active; 'I' for Inactive)
REMARK    1  A    between atoms: C_1  and  C_2
REMARK    2  A    between atoms: C_2  and  C_3
REMARK    3  A    between atoms: C_16  and  O_17
REMARK    4  A    between atoms: C_18  and  O_19
REMARK    5  A    between atoms: O_19  and  C_20
REMARK    6  A    between atoms: C_20  and  C_21
REMARK                            x       y       z     vdW  Elec       q    Type
REMARK                         _______ _______ _______ _____ _____    ______ ____
ROOT
ATOM      1  C   UNL     1       1.703  11.703  21.338  0.00  0.00    +0.000 C 
ATOM      2  C   UNL     1       0.304  11.203  20.931  0.00  0.00    +0.000 C 
ATOM      3  C   UNL     1      -0.542  10.958  22.202  0.00  0.00    +0.000 C 
ATOM      4  O   UNL     1      -0.332  12.339  20.299  0.00  0.00    +0.000 OA
ATOM      5  C   UNL     1      -1.385  11.960  19.517  0.00  0.00    +0.000 A 
ATOM      6  C   UNL     1      -2.654  12.422  19.850  0.00  0.00    +0.000 A 
ATOM      7  C   UNL     1      -3.732  12.038  19.066  0.00  0.00    +0.000 A 
ATOM      8  C   UNL     1      -3.502  11.338  17.879  0.00  0.00    +0.000 A 
ATOM      9  C   UNL     1      -4.599  11.062  16.970  0.00  0.00    +0.000 A 
ATOM     10  C   UNL     1      -4.317  10.639  15.738  0.00  0.00    +0.000 A 
ATOM     11  C   UNL     1      -2.931  10.378  15.304  0.00  0.00    +0.000 A 
ATOM     12  O   UNL     1      -2.682  10.175  14.121  0.00  0.00    +0.000 OA
ATOM     13  O   UNL     1      -1.962  10.308  16.304  0.00  0.00    +0.000 OA
ATOM     14  C   UNL     1      -2.209  10.902  17.556  0.00  0.00    +0.000 A 
ATOM     15  C   UNL     1      -1.152  11.103  18.442  0.00  0.00    +0.000 A 
ATOM     16  C   UNL     1       0.155  10.345  18.481  0.00  0.00    +0.000 C 
ATOM     17  C   UNL     1       0.351   9.933  19.992  0.00  0.00    +0.000 C 
ENDROOT
BRANCH  16  18
ATOM     18  O   UNL     1       1.221  11.134  17.964  0.00  0.00    +0.000 OA
ATOM     19  H   UNL     1       2.053  10.792  18.333  0.00  0.00    +0.000 HD
ENDBRANCH  16  18
BRANCH  17  20
ATOM     20  O   UNL     1       1.521   9.117  20.182  0.00  0.00    +0.000 OA
BRANCH  20  21
ATOM     21  C   UNL     1       1.241   7.909  20.897  0.00  0.00    +0.000 C 
BRANCH  21  22
ATOM     22  C   UNL     1       1.845   6.698  20.235  0.00  0.00    +0.000 A 
ATOM     23  C   UNL     1       1.661   5.425  20.798  0.00  0.00    +0.000 A 
ATOM     24  C   UNL     1       2.144   4.285  20.149  0.00  0.00    +0.000 A 
ATOM     25  C   UNL     1       2.811   4.418  18.933  0.00  0.00    +0.000 A 
ATOM     26  C   UNL     1       3.006   5.678  18.375  0.00  0.00    +0.000 A 
ATOM     27  C   UNL     1       2.527   6.818  19.017  0.00  0.00    +0.000 A 
ENDBRANCH  21  22
ENDBRANCH  20  21
ENDBRANCH  17  20
TORSDOF 4
ENDMDL
MODEL 3
REMARK VINA RESULT:      -6.8      8.543      9.915
REMARK  Name = 
REMARK  6 active torsions:
REMARK  status: ('A' for Active; 'I' for Inactive)
REMARK    1  A    between atoms: C_1  and  C_2
REMARK    2  A    between atoms: C_2  and  C_3
REMARK    3  A    between atoms: C_16  and  O_17
REMARK    4  A    between atoms: C_18  and  O_19
REMARK    5  A    between atoms: O_19  and  C_20
REMARK    6  A    between atoms: C_20  and  C_21
REMARK                            x       y       z     vdW  Elec       q    Type
REMARK                         _______ _______ _______ _____ _____    ______ ____
ROOT
ATOM      1  C   UNL     1       1.595  12.552  18.599  0.00  0.00    +0.000 C 
ATOM      2  C   UNL     1       0.409  12.327  19.554  0.00  0.00    +0.000 C 
ATOM      3  C   UNL     1       0.895  12.461  21.016  0.00  0.00    +0.000 C 
ATOM      4  O   UNL     1      -0.451  13.475  19.363  0.00  0.00    +0.000 OA
ATOM      5  C   UNL     1      -1.722  13.236  19.802  0.00  0.00    +0.000 A 
ATOM      6  C   UNL     1      -2.218  14.013  20.842  0.00  0.00    +0.000 A 
ATOM      7  C   UNL     1      -3.506  13.774  21.299  0.00  0.00    +0.000 A 
ATOM      8  C   UNL     1      -4.325  12.880  20.607  0.00  0.00    +0.000 A 
ATOM      9  C   UNL     1      -5.721  12.732  20.975  0.00  0.00    +0.000 A 
ATOM     10  C   UNL     1      -6.536  12.085  20.143  0.00  0.00    +0.000 A 
ATOM     11  C   UNL     1      -6.043  11.461  18.901  0.00  0.00    +0.000 A 
ATOM     12  O   UNL     1      -6.836  11.041  18.064  0.00  0.00    +0.000 OA
ATOM     13  O   UNL     1      -4.662  11.317  18.774  0.00  0.00    +0.000 OA
ATOM     14  C   UNL     1      -3.805  12.123  19.547  0.00  0.00    +0.000 A 
ATOM     15  C   UNL     1      -2.454  12.205  19.214  0.00  0.00    +0.000 A 
ATOM     16  C   UNL     1      -1.647  11.186  18.443  0.00  0.00    +0.000 C 
ATOM     17  C   UNL     1      -0.339  10.959  19.299  0.00  0.00    +0.000 C 
ENDROOT
BRANCH  16  18
ATOM     18  O   UNL     1      -1.388  11.632  17.117  0.00  0.00    +0.000 OA
ATOM     19  H   UNL     1      -0.425  11.718  17.012  0.00  0.00    +0.000 HD
ENDBRANCH  16  18
BRANCH  17  20
ATOM     20  O   UNL     1       0.503   9.935  18.737  0.00  0.00    +0.000 OA
BRANCH  20  21
ATOM     21  C   UNL     1       1.100   9.103  19.736  0.00  0.00    +0.000 C 
BRANCH  21  22
ATOM     22  C   UNL     1       2.014   8.062  19.142  0.00  0.00    +0.000 A 
ATOM     23  C   UNL     1       2.669   8.314  17.927  0.00  0.00    +0.000 A 
ATOM     24  C   UNL     1       3.583   7.393  17.409  0.00  0.00    +0.000 A 
ATOM     25  C   UNL     1       3.844   6.216  18.109  0.00  0.00    +0.000 A 
ATOM     26  C   UNL     1       3.190   5.956  19.309  0.00  0.00    +0.000 A 
ATOM     27  C   UNL     1       2.277   6.870  19.830  0.00  0.00    +0.000 A 
ENDBRANCH  21  22
ENDBRANCH  20  21
ENDBRANCH  17  20
TORSDOF 4
ENDMDL
MODEL 4
REMARK VINA RESULT:      -6.8      9.155     10.172
REMARK  Name = 
REMARK  6 active torsions:
REMARK  status: ('A' for Active; 'I' for Inactive)
REMARK    1  A    between atoms: C_1  and  C_2
REMARK    2  A    between atoms: C_2  and  C_3
REMARK    3  A    between atoms: C_16  and  O_17
REMARK    4  A    between atoms: C_18  and  O_19
REMARK    5  A    between atoms: O_19  and  C_20
REMARK    6  A    between atoms: C_20  and  C_21
REMARK                            x       y       z     vdW  Elec       q    Type
REMARK                         _______ _______ _______ _____ _____    ______ ____
ROOT
ATOM      1  C   UNL     1       1.402  11.497  19.231  0.00  0.00    +0.000 C 
ATOM      2  C   UNL     1       0.175  12.372  19.547  0.00  0.00    +0.000 C 
ATOM      3  C   UNL     1      -0.081  13.340  18.368  0.00  0.00    +0.000 C 
ATOM      4  O   UNL     1      -0.953  11.466  19.508  0.00  0.00    +0.000 OA
ATOM      5  C   UNL     1      -2.035  11.973  20.168  0.00  0.00    +0.000 A 
ATOM      6  C   UNL     1      -3.197  12.213  19.444  0.00  0.00    +0.000 A 
ATOM      7  C   UNL     1      -4.300  12.734  20.104  0.00  0.00    +0.000 A 
ATOM      8  C   UNL     1      -4.274  12.853  21.495  0.00  0.00    +0.000 A 
ATOM      9  C   UNL     1      -5.469  13.250  22.217  0.00  0.00    +0.000 A 
ATOM     10  C   UNL     1      -5.496  13.097  23.541  0.00  0.00    +0.000 A 
ATOM     11  C   UNL     1      -4.325  12.605  24.291  0.00  0.00    +0.000 A 
ATOM     12  O   UNL     1      -4.434  12.293  25.472  0.00  0.00    +0.000 OA
ATOM     13  O   UNL     1      -3.107  12.584  23.613  0.00  0.00    +0.000 OA
ATOM     14  C   UNL     1      -3.094  12.584  22.204  0.00  0.00    +0.000 A 
ATOM     15  C   UNL     1      -1.920  12.259  21.528  0.00  0.00    +0.000 A 
ATOM     16  C   UNL     1      -0.509  12.375  22.055  0.00  0.00    +0.000 C 
ATOM     17  C   UNL     1       0.296  13.131  20.927  0.00  0.00    +0.000 C 
ENDROOT
BRANCH  16  18
ATOM     18  O   UNL     1       0.027  11.096  22.375  0.00  0.00    +0.000 OA
ATOM     19  H   UNL     1      -0.682  10.440  22.273  0.00  0.00    +0.000 HD
ENDBRANCH  16  18
BRANCH  17  20
ATOM     20  O   UNL     1       1.654  13.402  21.321  0.00  0.00    +0.000 OA
BRANCH  20  21
ATOM     21  C   UNL     1       1.963  14.799  21.307  0.00  0.00    +0.000 C 
BRANCH  21  22
ATOM     22  C   UNL     1       2.501  15.254  19.974  0.00  0.00    +0.000 A 
ATOM     23  C   UNL     1       3.527  14.529  19.348  0.00  0.00    +0.000 A 
ATOM     24  C   UNL     1       3.977  14.890  18.075  0.00  0.00    +0.000 A 
ATOM     25  C   UNL     1       3.397  15.978  17.425  0.00  0.00    +0.000 A 
ATOM     26  C   UNL     1       2.386  16.707  18.045  0.00  0.00    +0.000 A 
ATOM     27  C   UNL     1       1.934  16.352  19.314  0.00  0.00    +0.000 A 
ENDBRANCH  21  22
ENDBRANCH  20  21
ENDBRANCH  17  20
TORSDOF 4
ENDMDL
MODEL 5
REMARK VINA RESULT:      -6.8     10.903     12.779
REMARK  Name = 
REMARK  6 active torsions:
REMARK  status: ('A' for Active; 'I' for Inactive)
REMARK    1  A    between atoms: C_1  and  C_2
REMARK    2  A    between atoms: C_2  and  C_3
REMARK    3  A    between atoms: C_16  and  O_17
REMARK    4  A    between atoms: C_18  and  O_19
REMARK    5  A    between atoms: O_19  and  C_20
REMARK    6  A    between atoms: C_20  and  C_21
REMARK                            x       y       z     vdW  Elec       q    Type
REMARK                         _______ _______ _______ _____ _____    ______ ____
ROOT
ATOM      1  C   UNL     1      -7.188  13.281  19.580  0.00  0.00    +0.000 C 
ATOM      2  C   UNL     1      -6.108  12.186  19.626  0.00  0.00    +0.000 C 
ATOM      3  C   UNL     1      -6.783  10.796  19.550  0.00  0.00    +0.000 C 
ATOM      4  O   UNL     1      -5.400  12.302  18.369  0.00  0.00    +0.000 OA
ATOM      5  C   UNL     1      -4.172  11.708  18.421  0.00  0.00    +0.000 A 
ATOM      6  C   UNL     1      -3.920  10.637  17.572  0.00  0.00    +0.000 A 
ATOM      7  C   UNL     1      -2.677  10.023  17.622  0.00  0.00    +0.000 A 
ATOM      8  C   UNL     1      -1.662  10.589  18.396  0.00  0.00    +0.000 A 
ATOM      9  C   UNL     1      -0.315  10.053  18.342  0.00  0.00    +0.000 A 
ATOM     10  C   UNL     1       0.678  10.765  18.873  0.00  0.00    +0.000 A 
ATOM     11  C   UNL     1       0.433  12.041  19.572  0.00  0.00    +0.000 A 
ATOM     12  O   UNL     1       1.372  12.766  19.881  0.00  0.00    +0.000 OA
ATOM     13  O   UNL     1      -0.888  12.328  19.912  0.00  0.00    +0.000 OA
ATOM     14  C   UNL     1      -1.938  11.684  19.229  0.00  0.00    +0.000 A 
ATOM     15  C   UNL     1      -3.236  12.178  19.342  0.00  0.00    +0.000 A 
ATOM     16  C   UNL     1      -3.793  13.013  20.473  0.00  0.00    +0.000 C 
ATOM     17  C   UNL     1      -5.150  12.315  20.876  0.00  0.00    +0.000 C 
ENDROOT
BRANCH  16  18
ATOM     18  O   UNL     1      -3.948  14.372  20.079  0.00  0.00    +0.000 OA
ATOM     19  H   UNL     1      -4.819  14.464  19.657  0.00  0.00    +0.000 HD
ENDBRANCH  16  18
BRANCH  17  20
ATOM     20  O   UNL     1      -5.765  12.947  22.013  0.00  0.00    +0.000 OA
BRANCH  20  21
ATOM     21  C   UNL     1      -4.961  12.860  23.194  0.00  0.00    +0.000 C 
BRANCH  21  22
ATOM     22  C   UNL     1      -4.758  14.203  23.848  0.00  0.00    +0.000 A 
ATOM     23  C   UNL     1      -3.564  14.476  24.534  0.00  0.00    +0.000 A 
ATOM     24  C   UNL     1      -3.329  15.744  25.072  0.00  0.00    +0.000 A 
ATOM     25  C   UNL     1      -4.289  16.742  24.923  0.00  0.00    +0.000 A 
ATOM     26  C   UNL     1      -5.479  16.475  24.252  0.00  0.00    +0.000 A 
ATOM     27  C   UNL     1      -5.720  15.213  23.714  0.00  0.00    +0.000 A 
ENDBRANCH  21  22
ENDBRANCH  20  21
ENDBRANCH  17  20
TORSDOF 4
ENDMDL
MODEL 6
REMARK VINA RESULT:      -6.6      8.238      9.818
REMARK  Name = 
REMARK  6 active torsions:
REMARK  status: ('A' for Active; 'I' for Inactive)
REMARK    1  A    between atoms: C_1  and  C_2
REMARK    2  A    between atoms: C_2  and  C_3
REMARK    3  A    between atoms: C_16  and  O_17
REMARK    4  A    between atoms: C_18  and  O_19
REMARK    5  A    between atoms: O_19  and  C_20
REMARK    6  A    between atoms: C_20  and  C_21
REMARK                            x       y       z     vdW  Elec       q    Type
REMARK                         _______ _______ _______ _____ _____    ______ ____
ROOT
ATOM      1  C   UNL     1       1.845  11.813  18.415  0.00  0.00    +0.000 C 
ATOM      2  C   UNL     1       0.662  11.854  19.400  0.00  0.00    +0.000 C 
ATOM      3  C   UNL     1       1.183  12.216  20.810  0.00  0.00    +0.000 C 
ATOM      4  O   UNL     1      -0.117  13.008  19.005  0.00  0.00    +0.000 OA
ATOM      5  C   UNL     1      -1.393  12.948  19.485  0.00  0.00    +0.000 A 
ATOM      6  C   UNL     1      -1.814  13.936  20.367  0.00  0.00    +0.000 A 
ATOM      7  C   UNL     1      -3.107  13.880  20.865  0.00  0.00    +0.000 A 
ATOM      8  C   UNL     1      -4.001  12.938  20.351  0.00  0.00    +0.000 A 
ATOM      9  C   UNL     1      -5.397  12.963  20.747  0.00  0.00    +0.000 A 
ATOM     10  C   UNL     1      -6.271  12.237  20.050  0.00  0.00    +0.000 A 
ATOM     11  C   UNL     1      -5.846  11.362  18.941  0.00  0.00    +0.000 A 
ATOM     12  O   UNL     1      -6.681  10.857  18.198  0.00  0.00    +0.000 OA
ATOM     13  O   UNL     1      -4.481  11.096  18.837  0.00  0.00    +0.000 OA
ATOM     14  C   UNL     1      -3.555  11.964  19.446  0.00  0.00    +0.000 A 
ATOM     15  C   UNL     1      -2.207  11.884  19.099  0.00  0.00    +0.000 A 
ATOM     16  C   UNL     1      -1.489  10.684  18.525  0.00  0.00    +0.000 C 
ATOM     17  C   UNL     1      -0.186  10.521  19.402  0.00  0.00    +0.000 C 
ENDROOT
BRANCH  16  18
ATOM     18  O   UNL     1      -1.222  10.861  17.138  0.00  0.00    +0.000 OA
ATOM     19  H   UNL     1      -0.378  10.423  16.937  0.00  0.00    +0.000 HD
ENDBRANCH  16  18
BRANCH  17  20
ATOM     20  O   UNL     1       0.569   9.353  19.034  0.00  0.00    +0.000 OA
BRANCH  20  21
ATOM     21  C   UNL     1       1.132   8.682  20.165  0.00  0.00    +0.000 C 
BRANCH  21  22
ATOM     22  C   UNL     1       1.889   7.438  19.775  0.00  0.00    +0.000 A 
ATOM     23  C   UNL     1       1.835   6.298  20.592  0.00  0.00    +0.000 A 
ATOM     24  C   UNL     1       2.462   5.113  20.200  0.00  0.00    +0.000 A 
ATOM     25  C   UNL     1       3.144   5.066  18.986  0.00  0.00    +0.000 A 
ATOM     26  C   UNL     1       3.210   6.195  18.176  0.00  0.00    +0.000 A 
ATOM     27  C   UNL     1       2.587   7.380  18.562  0.00  0.00    +0.000 A 
ENDBRANCH  21  22
ENDBRANCH  20  21
ENDBRANCH  17  20
TORSDOF 4
ENDMDL
MODEL 7
REMARK VINA RESULT:      -6.6      7.782     10.148
REMARK  Name = 
REMARK  6 active torsions:
REMARK  status: ('A' for Active; 'I' for Inactive)
REMARK    1  A    between atoms: C_1  and  C_2
REMARK    2  A    between atoms: C_2  and  C_3
REMARK    3  A    between atoms: C_16  and  O_17
REMARK    4  A    between atoms: C_18  and  O_19
REMARK    5  A    between atoms: O_19  and  C_20
REMARK    6  A    between atoms: C_20  and  C_21
REMARK                            x       y       z     vdW  Elec       q    Type
REMARK                         _______ _______ _______ _____ _____    ______ ____
ROOT
ATOM      1  C   UNL     1       7.747  15.824  22.047  0.00  0.00    +0.000 C 
ATOM      2  C   UNL     1       7.972  14.912  23.267  0.00  0.00    +0.000 C 
ATOM      3  C   UNL     1       9.340  15.242  23.908  0.00  0.00    +0.000 C 
ATOM      4  O   UNL     1       7.007  15.356  24.251  0.00  0.00    +0.000 OA
ATOM      5  C   UNL     1       6.782  14.407  25.205  0.00  0.00    +0.000 A 
ATOM      6  C   UNL     1       7.103  14.708  26.524  0.00  0.00    +0.000 A 
ATOM      7  C   UNL     1       6.884  13.747  27.501  0.00  0.00    +0.000 A 
ATOM      8  C   UNL     1       6.202  12.574  27.169  0.00  0.00    +0.000 A 
ATOM      9  C   UNL     1       5.828  11.629  28.205  0.00  0.00    +0.000 A 
ATOM     10  C   UNL     1       4.957  10.666  27.905  0.00  0.00    +0.000 A 
ATOM     11  C   UNL     1       4.425  10.496  26.541  0.00  0.00    +0.000 A 
ATOM     12  O   UNL     1       3.488   9.731  26.334  0.00  0.00    +0.000 OA
ATOM     13  O   UNL     1       5.078  11.184  25.520  0.00  0.00    +0.000 OA
ATOM     14  C   UNL     1       5.871  12.305  25.833  0.00  0.00    +0.000 A 
ATOM     15  C   UNL     1       6.273  13.169  24.816  0.00  0.00    +0.000 A 
ATOM     16  C   UNL     1       6.404  12.840  23.347  0.00  0.00    +0.000 C 
ATOM     17  C   UNL     1       7.828  13.376  22.926  0.00  0.00    +0.000 C 
ENDROOT
BRANCH  16  18
ATOM     18  O   UNL     1       5.337  13.410  22.596  0.00  0.00    +0.000 OA
ATOM     19  H   UNL     1       4.690  13.774  23.223  0.00  0.00    +0.000 HD
ENDBRANCH  16  18
BRANCH  17  20
ATOM     20  O   UNL     1       8.144  13.055  21.559  0.00  0.00    +0.000 OA
BRANCH  20  21
ATOM     21  C   UNL     1       8.828  11.805  21.431  0.00  0.00    +0.000 C 
BRANCH  21  22
ATOM     22  C   UNL     1       9.798  11.799  20.277  0.00  0.00    +0.000 A 
ATOM     23  C   UNL     1      11.160  12.047  20.503  0.00  0.00    +0.000 A 
ATOM     24  C   UNL     1      12.082  11.961  19.457  0.00  0.00    +0.000 A 
ATOM     25  C   UNL     1      11.639  11.624  18.179  0.00  0.00    +0.000 A 
ATOM     26  C   UNL     1      10.288  11.386  17.945  0.00  0.00    +0.000 A 
ATOM     27  C   UNL     1       9.365  11.471  18.985  0.00  0.00    +0.000 A 
ENDBRANCH  21  22
ENDBRANCH  20  21
ENDBRANCH  17  20
TORSDOF 4
ENDMDL
MODEL 8
REMARK VINA RESULT:      -6.6      8.783     11.352
REMARK  Name = 
REMARK  6 active torsions:
REMARK  status: ('A' for Active; 'I' for Inactive)
REMARK    1  A    between atoms: C_1  and  C_2
REMARK    2  A    between atoms: C_2  and  C_3
REMARK    3  A    between atoms: C_16  and  O_17
REMARK    4  A    between atoms: C_18  and  O_19
REMARK    5  A    between atoms: O_19  and  C_20
REMARK    6  A    between atoms: C_20  and  C_21
REMARK                            x       y       z     vdW  Elec       q    Type
REMARK                         _______ _______ _______ _____ _____    ______ ____
ROOT
ATOM      1  C   UNL     1      -1.096  11.758  22.585  0.00  0.00    +0.000 C 
ATOM      2  C   UNL     1      -1.358  12.681  21.382  0.00  0.00    +0.000 C 
ATOM      3  C   UNL     1      -2.862  12.642  21.023  0.00  0.00    +0.000 C 
ATOM      4  O   UNL     1      -1.151  14.023  21.884  0.00  0.00    +0.000 OA
ATOM      5  C   UNL     1      -0.928  14.915  20.875  0.00  0.00    +0.000 A 
ATOM      6  C   UNL     1      -1.834  15.955  20.702  0.00  0.00    +0.000 A 
ATOM      7  C   UNL     1      -1.619  16.863  19.675  0.00  0.00    +0.000 A 
ATOM      8  C   UNL     1      -0.427  16.810  18.949  0.00  0.00    +0.000 A 
ATOM      9  C   UNL     1      -0.117  17.842  17.977  0.00  0.00    +0.000 A 
ATOM     10  C   UNL     1       1.126  17.917  17.501  0.00  0.00    +0.000 A 
ATOM     11  C   UNL     1       2.164  16.941  17.880  0.00  0.00    +0.000 A 
ATOM     12  O   UNL     1       3.337  17.140  17.583  0.00  0.00    +0.000 OA
ATOM     13  O   UNL     1       1.733  15.778  18.517  0.00  0.00    +0.000 OA
ATOM     14  C   UNL     1       0.480  15.761  19.159  0.00  0.00    +0.000 A 
ATOM     15  C   UNL     1       0.175  14.727  20.043  0.00  0.00    +0.000 A 
ATOM     16  C   UNL     1       0.785  13.345  20.066  0.00  0.00    +0.000 C 
ATOM     17  C   UNL     1      -0.441  12.351  20.138  0.00  0.00    +0.000 C 
ENDROOT
BRANCH  16  18
ATOM     18  O   UNL     1       1.696  13.203  21.150  0.00  0.00    +0.000 OA
ATOM     19  H   UNL     1       1.434  13.829  21.846  0.00  0.00    +0.000 HD
ENDBRANCH  16  18
BRANCH  17  20
ATOM     20  O   UNL     1      -0.024  10.975  20.075  0.00  0.00    +0.000 OA
BRANCH  20  21
ATOM     21  C   UNL     1       0.681  10.667  18.869  0.00  0.00    +0.000 C 
BRANCH  21  22
ATOM     22  C   UNL     1       1.411   9.351  18.953  0.00  0.00    +0.000 A 
ATOM     23  C   UNL     1       1.412   8.625  20.154  0.00  0.00    +0.000 A 
ATOM     24  C   UNL     1       2.013   7.365  20.221  0.00  0.00    +0.000 A 
ATOM     25  C   UNL     1       2.613   6.828  19.083  0.00  0.00    +0.000 A 
ATOM     26  C   UNL     1       2.623   7.548  17.892  0.00  0.00    +0.000 A 
ATOM     27  C   UNL     1       2.027   8.805  17.819  0.00  0.00    +0.000 A 
ENDBRANCH  21  22
ENDBRANCH  20  21
ENDBRANCH  17  20
TORSDOF 4
ENDMDL
MODEL 9
REMARK VINA RESULT:      -6.5      9.245     10.735
REMARK  Name = 
REMARK  6 active torsions:
REMARK  status: ('A' for Active; 'I' for Inactive)
REMARK    1  A    between atoms: C_1  and  C_2
REMARK    2  A    between atoms: C_2  and  C_3
REMARK    3  A    between atoms: C_16  and  O_17
REMARK    4  A    between atoms: C_18  and  O_19
REMARK    5  A    between atoms: O_19  and  C_20
REMARK    6  A    between atoms: C_20  and  C_21
REMARK                            x       y       z     vdW  Elec       q    Type
REMARK                         _______ _______ _______ _____ _____    ______ ____
ROOT
ATOM      1  C   UNL     1       0.827  13.301  20.220  0.00  0.00    +0.000 C 
ATOM      2  C   UNL     1      -0.482  12.781  20.841  0.00  0.00    +0.000 C 
ATOM      3  C   UNL     1      -0.271  12.539  22.354  0.00  0.00    +0.000 C 
ATOM      4  O   UNL     1      -1.395  13.903  20.789  0.00  0.00    +0.000 OA
ATOM      5  C   UNL     1      -2.696  13.505  20.900  0.00  0.00    +0.000 A 
ATOM      6  C   UNL     1      -3.433  13.955  21.989  0.00  0.00    +0.000 A 
ATOM      7  C   UNL     1      -4.754  13.551  22.115  0.00  0.00    +0.000 A 
ATOM      8  C   UNL     1      -5.357  12.842  21.074  0.00  0.00    +0.000 A 
ATOM      9  C   UNL     1      -6.777  12.544  21.119  0.00  0.00    +0.000 A 
ATOM     10  C   UNL     1      -7.374  12.112  20.009  0.00  0.00    +0.000 A 
ATOM     11  C   UNL     1      -6.619  11.862  18.767  0.00  0.00    +0.000 A 
ATOM     12  O   UNL     1      -7.213  11.651  17.715  0.00  0.00    +0.000 OA
ATOM     13  O   UNL     1      -5.230  11.813  18.874  0.00  0.00    +0.000 OA
ATOM     14  C   UNL     1      -4.595  12.417  19.976  0.00  0.00    +0.000 A 
ATOM     15  C   UNL     1      -3.220  12.640  19.940  0.00  0.00    +0.000 A 
ATOM     16  C   UNL     1      -2.204  11.897  19.104  0.00  0.00    +0.000 C 
ATOM     17  C   UNL     1      -1.049  11.502  20.106  0.00  0.00    +0.000 C 
ENDROOT
BRANCH  16  18
ATOM     18  O   UNL     1      -1.759  12.692  18.010  0.00  0.00    +0.000 OA
ATOM     19  H   UNL     1      -2.410  13.398  17.868  0.00  0.00    +0.000 HD
ENDBRANCH  16  18
BRANCH  17  20
ATOM     20  O   UNL     1      -0.035  10.701  19.474  0.00  0.00    +0.000 OA
BRANCH  20  21
ATOM     21  C   UNL     1       0.465   9.669  20.330  0.00  0.00    +0.000 C 
BRANCH  21  22
ATOM     22  C   UNL     1       1.332   8.682  19.590  0.00  0.00    +0.000 A 
ATOM     23  C   UNL     1       1.768   8.969  18.288  0.00  0.00    +0.000 A 
ATOM     24  C   UNL     1       2.640   8.102  17.623  0.00  0.00    +0.000 A 
ATOM     25  C   UNL     1       3.078   6.945  18.264  0.00  0.00    +0.000 A 
ATOM     26  C   UNL     1       2.641   6.649  19.551  0.00  0.00    +0.000 A 
ATOM     27  C   UNL     1       1.771   7.509  20.218  0.00  0.00    +0.000 A 
ENDBRANCH  21  22
ENDBRANCH  20  21
ENDBRANCH  17  20
TORSDOF 4
ENDMDL
