MODEL 1
REMARK VINA RESULT:      -8.3      0.000      0.000
REMARK  Name = 
REMARK  7 active torsions:
REMARK  status: ('A' for Active; 'I' for Inactive)
REMARK    1  A    between atoms: C_1  and  C_2
REMARK    2  A    between atoms: C_2  and  C_3
REMARK    3  A    between atoms: C_5  and  N_6
REMARK    4  A    between atoms: N_6  and  C_7
REMARK    5  A    between atoms: C_10  and  N_11
REMARK    6  A    between atoms: C_15  and  C_16
REMARK    7  A    between atoms: C_17  and  C_18
REMARK                            x       y       z     vdW  Elec       q    Type
REMARK                         _______ _______ _______ _____ _____    ______ ____
ROOT
ATOM      1  C   UNL     1       7.213   5.860  17.362  0.00  0.00    +0.000 A 
ATOM      2  C   UNL     1       6.200   4.923  17.929  0.00  0.00    +0.000 A 
ATOM      3  C   UNL     1       5.518   4.159  17.058  0.00  0.00    +0.000 A 
ATOM      4  N   UNL     1       5.893   4.211  15.693  0.00  0.00    +0.000 N 
ATOM      5  N   UNL     1       5.371   3.485  14.663  0.00  0.00    +0.000 NA
ATOM      6  C   UNL     1       6.087   3.850  13.593  0.00  0.00    +0.000 A 
ATOM      7  C   UNL     1       5.810   3.242  12.267  0.00  0.00    +0.000 C 
ATOM      8  C   UNL     1       7.070   4.825  13.909  0.00  0.00    +0.000 A 
ATOM      9  C   UNL     1       8.058   5.461  13.008  0.00  0.00    +0.000 C 
ATOM     10  C   UNL     1       6.911   5.063  15.258  0.00  0.00    +0.000 A 
ATOM     11  N   UNL     1       7.552   5.926  16.107  0.00  0.00    +0.000 NA
ENDROOT
BRANCH   1  13
ATOM     12  C   UNL     1       7.908   8.227  17.724  0.00  0.00    +0.000 C 
ATOM     13  C   UNL     1       7.839   6.837  18.337  0.00  0.00    +0.000 C 
ENDBRANCH   1  13
BRANCH   3  14
ATOM     14  N   UNL     1       4.489   3.288  17.456  0.00  0.00    +0.000 N 
ATOM     15  H   UNL     1       4.658   2.406  16.948  0.00  0.00    +0.000 HD
BRANCH  14  16
ATOM     16  C   UNL     1       3.076   3.639  17.207  0.00  0.00    +0.000 C 
ATOM     17  C   UNL     1       2.645   4.967  17.826  0.00  0.00    +0.000 C 
ATOM     18  C   UNL     1       2.479   4.663  19.310  0.00  0.00    +0.000 C 
ATOM     19  C   UNL     1       2.087   3.182  19.378  0.00  0.00    +0.000 C 
ATOM     20  C   UNL     1       2.165   2.651  17.938  0.00  0.00    +0.000 C 
BRANCH  19  21
ATOM     21  N   UNL     1       0.756   2.984  19.946  0.00  0.00    +0.000 NA
ATOM     22  H   UNL     1       0.062   2.923  19.200  0.00  0.00    +0.000 HD
ATOM     23  H   UNL     1       0.498   3.803  20.496  0.00  0.00    +0.000 HD
ENDBRANCH  19  21
ENDBRANCH  14  16
ENDBRANCH   3  14
TORSDOF 4
ENDMDL
MODEL 2
REMARK VINA RESULT:      -8.2      0.736      1.041
REMARK  Name = 
REMARK  7 active torsions:
REMARK  status: ('A' for Active; 'I' for Inactive)
REMARK    1  A    between atoms: C_1  and  C_2
REMARK    2  A    between atoms: C_2  and  C_3
REMARK    3  A    between atoms: C_5  and  N_6
REMARK    4  A    between atoms: N_6  and  C_7
REMARK    5  A    between atoms: C_10  and  N_11
REMARK    6  A    between atoms: C_15  and  C_16
REMARK    7  A    between atoms: C_17  and  C_18
REMARK                            x       y       z     vdW  Elec       q    Type
REMARK                         _______ _______ _______ _____ _____    ______ ____
ROOT
ATOM      1  C   UNL     1       7.308   6.066  17.311  0.00  0.00    +0.000 A 
ATOM      2  C   UNL     1       6.291   5.159  17.920  0.00  0.00    +0.000 A 
ATOM      3  C   UNL     1       5.593   4.373  17.082  0.00  0.00    +0.000 A 
ATOM      4  N   UNL     1       5.956   4.374  15.712  0.00  0.00    +0.000 N 
ATOM      5  N   UNL     1       5.417   3.618  14.713  0.00  0.00    +0.000 NA
ATOM      6  C   UNL     1       6.127   3.938  13.625  0.00  0.00    +0.000 A 
ATOM      7  C   UNL     1       5.831   3.287  12.324  0.00  0.00    +0.000 C 
ATOM      8  C   UNL     1       7.123   4.913  13.897  0.00  0.00    +0.000 A 
ATOM      9  C   UNL     1       8.109   5.506  12.967  0.00  0.00    +0.000 C 
ATOM     10  C   UNL     1       6.978   5.199  15.239  0.00  0.00    +0.000 A 
ATOM     11  N   UNL     1       7.636   6.084  16.052  0.00  0.00    +0.000 NA
ENDROOT
BRANCH   1  13
ATOM     12  C   UNL     1       7.868   8.470  17.660  0.00  0.00    +0.000 C 
ATOM     13  C   UNL     1       7.953   7.070  18.246  0.00  0.00    +0.000 C 
ENDBRANCH   1  13
BRANCH   3  14
ATOM     14  N   UNL     1       4.559   3.527  17.519  0.00  0.00    +0.000 N 
ATOM     15  H   UNL     1       4.132   3.143  16.662  0.00  0.00    +0.000 HD
BRANCH  14  16
ATOM     16  C   UNL     1       3.445   4.065  18.326  0.00  0.00    +0.000 C 
ATOM     17  C   UNL     1       3.337   3.459  19.724  0.00  0.00    +0.000 C 
ATOM     18  C   UNL     1       2.726   2.082  19.499  0.00  0.00    +0.000 C 
ATOM     19  C   UNL     1       1.864   2.224  18.237  0.00  0.00    +0.000 C 
ATOM     20  C   UNL     1       2.111   3.644  17.707  0.00  0.00    +0.000 C 
BRANCH  19  21
ATOM     21  N   UNL     1       0.446   1.994  18.502  0.00  0.00    +0.000 NA
ATOM     22  H   UNL     1       0.304   1.042  18.842  0.00  0.00    +0.000 HD
ATOM     23  H   UNL     1      -0.076   2.056  17.628  0.00  0.00    +0.000 HD
ENDBRANCH  19  21
ENDBRANCH  14  16
ENDBRANCH   3  14
TORSDOF 4
ENDMDL
MODEL 3
REMARK VINA RESULT:      -7.8      0.998      1.227
REMARK  Name = 
REMARK  7 active torsions:
REMARK  status: ('A' for Active; 'I' for Inactive)
REMARK    1  A    between atoms: C_1  and  C_2
REMARK    2  A    between atoms: C_2  and  C_3
REMARK    3  A    between atoms: C_5  and  N_6
REMARK    4  A    between atoms: N_6  and  C_7
REMARK    5  A    between atoms: C_10  and  N_11
REMARK    6  A    between atoms: C_15  and  C_16
REMARK    7  A    between atoms: C_17  and  C_18
REMARK                            x       y       z     vdW  Elec       q    Type
REMARK                         _______ _______ _______ _____ _____    ______ ____
ROOT
ATOM      1  C   UNL     1       7.124   6.132  17.288  0.00  0.00    +0.000 A 
ATOM      2  C   UNL     1       5.917   5.457  17.848  0.00  0.00    +0.000 A 
ATOM      3  C   UNL     1       5.150   4.763  16.990  0.00  0.00    +0.000 A 
ATOM      4  N   UNL     1       5.606   4.622  15.655  0.00  0.00    +0.000 N 
ATOM      5  N   UNL     1       5.011   3.920  14.648  0.00  0.00    +0.000 NA
ATOM      6  C   UNL     1       5.845   4.046  13.610  0.00  0.00    +0.000 A 
ATOM      7  C   UNL     1       5.531   3.387  12.317  0.00  0.00    +0.000 C 
ATOM      8  C   UNL     1       6.981   4.841  13.921  0.00  0.00    +0.000 A 
ATOM      9  C   UNL     1       8.124   5.194  13.050  0.00  0.00    +0.000 C 
ATOM     10  C   UNL     1       6.793   5.223  15.234  0.00  0.00    +0.000 A 
ATOM     11  N   UNL     1       7.541   6.020  16.060  0.00  0.00    +0.000 NA
ENDROOT
BRANCH   1  13
ATOM     12  C   UNL     1       7.915   8.465  17.665  0.00  0.00    +0.000 C 
ATOM     13  C   UNL     1       7.872   7.054  18.229  0.00  0.00    +0.000 C 
ENDBRANCH   1  13
BRANCH   3  14
ATOM     14  N   UNL     1       3.950   4.142  17.376  0.00  0.00    +0.000 N 
ATOM     15  H   UNL     1       3.502   4.788  18.043  0.00  0.00    +0.000 HD
BRANCH  14  16
ATOM     16  C   UNL     1       3.972   2.821  18.037  0.00  0.00    +0.000 C 
ATOM     17  C   UNL     1       2.663   2.042  17.922  0.00  0.00    +0.000 C 
ATOM     18  C   UNL     1       1.729   2.711  18.923  0.00  0.00    +0.000 C 
ATOM     19  C   UNL     1       2.645   3.265  20.023  0.00  0.00    +0.000 C 
ATOM     20  C   UNL     1       4.084   3.007  19.552  0.00  0.00    +0.000 C 
BRANCH  19  21
ATOM     21  N   UNL     1       2.391   2.647  21.322  0.00  0.00    +0.000 NA
ATOM     22  H   UNL     1       2.147   1.664  21.200  0.00  0.00    +0.000 HD
ATOM     23  H   UNL     1       1.574   3.083  21.749  0.00  0.00    +0.000 HD
ENDBRANCH  19  21
ENDBRANCH  14  16
ENDBRANCH   3  14
TORSDOF 4
ENDMDL
MODEL 4
REMARK VINA RESULT:      -7.5      2.332      6.483
REMARK  Name = 
REMARK  7 active torsions:
REMARK  status: ('A' for Active; 'I' for Inactive)
REMARK    1  A    between atoms: C_1  and  C_2
REMARK    2  A    between atoms: C_2  and  C_3
REMARK    3  A    between atoms: C_5  and  N_6
REMARK    4  A    between atoms: N_6  and  C_7
REMARK    5  A    between atoms: C_10  and  N_11
REMARK    6  A    between atoms: C_15  and  C_16
REMARK    7  A    between atoms: C_17  and  C_18
REMARK                            x       y       z     vdW  Elec       q    Type
REMARK                         _______ _______ _______ _____ _____    ______ ____
ROOT
ATOM      1  C   UNL     1       2.902   3.850  20.205  0.00  0.00    +0.000 A 
ATOM      2  C   UNL     1       3.635   3.595  18.931  0.00  0.00    +0.000 A 
ATOM      3  C   UNL     1       3.641   4.584  18.021  0.00  0.00    +0.000 A 
ATOM      4  N   UNL     1       3.061   5.826  18.383  0.00  0.00    +0.000 N 
ATOM      5  N   UNL     1       3.009   6.964  17.634  0.00  0.00    +0.000 NA
ATOM      6  C   UNL     1       2.417   7.864  18.427  0.00  0.00    +0.000 A 
ATOM      7  C   UNL     1       2.201   9.253  17.948  0.00  0.00    +0.000 C 
ATOM      8  C   UNL     1       2.064   7.322  19.692  0.00  0.00    +0.000 A 
ATOM      9  C   UNL     1       1.413   7.999  20.835  0.00  0.00    +0.000 C 
ATOM     10  C   UNL     1       2.463   6.002  19.632  0.00  0.00    +0.000 A 
ATOM     11  N   UNL     1       2.353   4.982  20.539  0.00  0.00    +0.000 NA
ENDROOT
BRANCH   1  13
ATOM     12  C   UNL     1       1.357   2.638  21.742  0.00  0.00    +0.000 C 
ATOM     13  C   UNL     1       2.753   2.665  21.139  0.00  0.00    +0.000 C 
ENDBRANCH   1  13
BRANCH   3  14
ATOM     14  N   UNL     1       4.234   4.447  16.753  0.00  0.00    +0.000 N 
ATOM     15  H   UNL     1       3.594   3.849  16.209  0.00  0.00    +0.000 HD
BRANCH  14  16
ATOM     16  C   UNL     1       5.574   3.840  16.619  0.00  0.00    +0.000 C 
ATOM     17  C   UNL     1       6.677   4.591  17.363  0.00  0.00    +0.000 C 
ATOM     18  C   UNL     1       6.962   5.812  16.497  0.00  0.00    +0.000 C 
ATOM     19  C   UNL     1       6.634   5.376  15.063  0.00  0.00    +0.000 C 
ATOM     20  C   UNL     1       6.049   3.959  15.169  0.00  0.00    +0.000 C 
BRANCH  19  21
ATOM     21  N   UNL     1       7.805   5.404  14.190  0.00  0.00    +0.000 NA
ATOM     22  H   UNL     1       7.596   4.931  13.311  0.00  0.00    +0.000 HD
ATOM     23  H   UNL     1       8.559   4.868  14.620  0.00  0.00    +0.000 HD
ENDBRANCH  19  21
ENDBRANCH  14  16
ENDBRANCH   3  14
TORSDOF 4
ENDMDL
MODEL 5
REMARK VINA RESULT:      -7.3      0.992      1.386
REMARK  Name = 
REMARK  7 active torsions:
REMARK  status: ('A' for Active; 'I' for Inactive)
REMARK    1  A    between atoms: C_1  and  C_2
REMARK    2  A    between atoms: C_2  and  C_3
REMARK    3  A    between atoms: C_5  and  N_6
REMARK    4  A    between atoms: N_6  and  C_7
REMARK    5  A    between atoms: C_10  and  N_11
REMARK    6  A    between atoms: C_15  and  C_16
REMARK    7  A    between atoms: C_17  and  C_18
REMARK                            x       y       z     vdW  Elec       q    Type
REMARK                         _______ _______ _______ _____ _____    ______ ____
ROOT
ATOM      1  C   UNL     1       7.303   6.021  17.386  0.00  0.00    +0.000 A 
ATOM      2  C   UNL     1       6.306   5.097  18.000  0.00  0.00    +0.000 A 
ATOM      3  C   UNL     1       5.605   4.311  17.165  0.00  0.00    +0.000 A 
ATOM      4  N   UNL     1       5.948   4.328  15.790  0.00  0.00    +0.000 N 
ATOM      5  N   UNL     1       5.403   3.575  14.792  0.00  0.00    +0.000 NA
ATOM      6  C   UNL     1       6.093   3.914  13.697  0.00  0.00    +0.000 A 
ATOM      7  C   UNL     1       5.786   3.272  12.393  0.00  0.00    +0.000 C 
ATOM      8  C   UNL     1       7.081   4.898  13.964  0.00  0.00    +0.000 A 
ATOM      9  C   UNL     1       8.047   5.512  13.025  0.00  0.00    +0.000 C 
ATOM     10  C   UNL     1       6.953   5.170  15.310  0.00  0.00    +0.000 A 
ATOM     11  N   UNL     1       7.612   6.055  16.122  0.00  0.00    +0.000 NA
ENDROOT
BRANCH   1  13
ATOM     12  C   UNL     1       7.937   8.412  17.700  0.00  0.00    +0.000 C 
ATOM     13  C   UNL     1       7.950   7.024  18.320  0.00  0.00    +0.000 C 
ENDBRANCH   1  13
BRANCH   3  14
ATOM     14  N   UNL     1       4.588   3.448  17.609  0.00  0.00    +0.000 N 
ATOM     15  H   UNL     1       3.714   3.812  17.198  0.00  0.00    +0.000 HD
BRANCH  14  16
ATOM     16  C   UNL     1       4.324   3.285  19.053  0.00  0.00    +0.000 C 
ATOM     17  C   UNL     1       3.016   2.565  19.372  0.00  0.00    +0.000 C 
ATOM     18  C   UNL     1       1.933   3.609  19.125  0.00  0.00    +0.000 C 
ATOM     19  C   UNL     1       2.602   4.960  19.411  0.00  0.00    +0.000 C 
ATOM     20  C   UNL     1       4.082   4.656  19.689  0.00  0.00    +0.000 C 
BRANCH  19  21
ATOM     21  N   UNL     1       1.983   5.661  20.533  0.00  0.00    +0.000 NA
ATOM     22  H   UNL     1       2.101   5.121  21.391  0.00  0.00    +0.000 HD
ATOM     23  H   UNL     1       0.976   5.720  20.381  0.00  0.00    +0.000 HD
ENDBRANCH  19  21
ENDBRANCH  14  16
ENDBRANCH   3  14
TORSDOF 4
ENDMDL
MODEL 6
REMARK VINA RESULT:      -7.2      2.923      6.715
REMARK  Name = 
REMARK  7 active torsions:
REMARK  status: ('A' for Active; 'I' for Inactive)
REMARK    1  A    between atoms: C_1  and  C_2
REMARK    2  A    between atoms: C_2  and  C_3
REMARK    3  A    between atoms: C_5  and  N_6
REMARK    4  A    between atoms: N_6  and  C_7
REMARK    5  A    between atoms: C_10  and  N_11
REMARK    6  A    between atoms: C_15  and  C_16
REMARK    7  A    between atoms: C_17  and  C_18
REMARK                            x       y       z     vdW  Elec       q    Type
REMARK                         _______ _______ _______ _____ _____    ______ ____
ROOT
ATOM      1  C   UNL     1       2.375   4.838  20.594  0.00  0.00    +0.000 A 
ATOM      2  C   UNL     1       3.137   4.532  19.348  0.00  0.00    +0.000 A 
ATOM      3  C   UNL     1       3.167   5.485  18.400  0.00  0.00    +0.000 A 
ATOM      4  N   UNL     1       2.584   6.742  18.701  0.00  0.00    +0.000 N 
ATOM      5  N   UNL     1       2.554   7.851  17.907  0.00  0.00    +0.000 NA
ATOM      6  C   UNL     1       1.948   8.783  18.651  0.00  0.00    +0.000 A 
ATOM      7  C   UNL     1       1.749  10.153  18.114  0.00  0.00    +0.000 C 
ATOM      8  C   UNL     1       1.564   8.291  19.927  0.00  0.00    +0.000 A 
ATOM      9  C   UNL     1       0.889   9.014  21.028  0.00  0.00    +0.000 C 
ATOM     10  C   UNL     1       1.959   6.969  19.928  0.00  0.00    +0.000 A 
ATOM     11  N   UNL     1       1.823   5.984  20.871  0.00  0.00    +0.000 NA
ENDROOT
BRANCH   1  13
ATOM     12  C   UNL     1       1.442   2.549  20.912  0.00  0.00    +0.000 C 
ATOM     13  C   UNL     1       2.199   3.692  21.569  0.00  0.00    +0.000 C 
ENDBRANCH   1  13
BRANCH   3  14
ATOM     14  N   UNL     1       3.789   5.297  17.154  0.00  0.00    +0.000 N 
ATOM     15  H   UNL     1       4.000   4.289  17.096  0.00  0.00    +0.000 HD
BRANCH  14  16
ATOM     16  C   UNL     1       5.050   5.997  16.835  0.00  0.00    +0.000 C 
ATOM     17  C   UNL     1       5.706   5.542  15.533  0.00  0.00    +0.000 C 
ATOM     18  C   UNL     1       6.345   4.201  15.875  0.00  0.00    +0.000 C 
ATOM     19  C   UNL     1       6.689   4.286  17.368  0.00  0.00    +0.000 C 
ATOM     20  C   UNL     1       6.120   5.624  17.863  0.00  0.00    +0.000 C 
BRANCH  19  21
ATOM     21  N   UNL     1       8.126   4.195  17.614  0.00  0.00    +0.000 NA
ATOM     22  H   UNL     1       8.545   5.125  17.584  0.00  0.00    +0.000 HD
ATOM     23  H   UNL     1       8.566   3.670  16.859  0.00  0.00    +0.000 HD
ENDBRANCH  19  21
ENDBRANCH  14  16
ENDBRANCH   3  14
TORSDOF 4
ENDMDL
MODEL 7
REMARK VINA RESULT:      -7.1      2.818      4.465
REMARK  Name = 
REMARK  7 active torsions:
REMARK  status: ('A' for Active; 'I' for Inactive)
REMARK    1  A    between atoms: C_1  and  C_2
REMARK    2  A    between atoms: C_2  and  C_3
REMARK    3  A    between atoms: C_5  and  N_6
REMARK    4  A    between atoms: N_6  and  C_7
REMARK    5  A    between atoms: C_10  and  N_11
REMARK    6  A    between atoms: C_15  and  C_16
REMARK    7  A    between atoms: C_17  and  C_18
REMARK                            x       y       z     vdW  Elec       q    Type
REMARK                         _______ _______ _______ _____ _____    ______ ____
ROOT
ATOM      1  C   UNL     1       2.243   8.240  18.398  0.00  0.00    +0.000 A 
ATOM      2  C   UNL     1       2.136   7.411  19.634  0.00  0.00    +0.000 A 
ATOM      3  C   UNL     1       2.821   6.254  19.655  0.00  0.00    +0.000 A 
ATOM      4  N   UNL     1       3.681   5.970  18.565  0.00  0.00    +0.000 N 
ATOM      5  N   UNL     1       4.497   4.887  18.416  0.00  0.00    +0.000 NA
ATOM      6  C   UNL     1       5.137   5.102  17.260  0.00  0.00    +0.000 A 
ATOM      7  C   UNL     1       6.140   4.124  16.770  0.00  0.00    +0.000 C 
ATOM      8  C   UNL     1       4.737   6.315  16.639  0.00  0.00    +0.000 A 
ATOM      9  C   UNL     1       5.223   6.903  15.370  0.00  0.00    +0.000 C 
ATOM     10  C   UNL     1       3.781   6.844  17.481  0.00  0.00    +0.000 A 
ATOM     11  N   UNL     1       3.018   7.978  17.385  0.00  0.00    +0.000 NA
ENDROOT
BRANCH   1  13
ATOM     12  C   UNL     1       0.666   9.696  19.666  0.00  0.00    +0.000 C 
ATOM     13  C   UNL     1       1.327   9.445  18.320  0.00  0.00    +0.000 C 
ENDBRANCH   1  13
BRANCH   3  14
ATOM     14  N   UNL     1       2.749   5.349  20.728  0.00  0.00    +0.000 N 
ATOM     15  H   UNL     1       3.559   4.720  20.618  0.00  0.00    +0.000 HD
BRANCH  14  16
ATOM     16  C   UNL     1       1.570   4.473  20.888  0.00  0.00    +0.000 C 
ATOM     17  C   UNL     1       1.833   3.218  21.717  0.00  0.00    +0.000 C 
ATOM     18  C   UNL     1       2.598   2.292  20.780  0.00  0.00    +0.000 C 
ATOM     19  C   UNL     1       2.119   2.659  19.369  0.00  0.00    +0.000 C 
ATOM     20  C   UNL     1       1.189   3.871  19.534  0.00  0.00    +0.000 C 
BRANCH  19  21
ATOM     21  N   UNL     1       1.436   1.551  18.707  0.00  0.00    +0.000 NA
ATOM     22  H   UNL     1       1.373   1.728  17.704  0.00  0.00    +0.000 HD
ATOM     23  H   UNL     1       0.473   1.500  19.039  0.00  0.00    +0.000 HD
ENDBRANCH  19  21
ENDBRANCH  14  16
ENDBRANCH   3  14
TORSDOF 4
ENDMDL
MODEL 8
REMARK VINA RESULT:      -7.1      2.526      6.470
REMARK  Name = 
REMARK  7 active torsions:
REMARK  status: ('A' for Active; 'I' for Inactive)
REMARK    1  A    between atoms: C_1  and  C_2
REMARK    2  A    between atoms: C_2  and  C_3
REMARK    3  A    between atoms: C_5  and  N_6
REMARK    4  A    between atoms: N_6  and  C_7
REMARK    5  A    between atoms: C_10  and  N_11
REMARK    6  A    between atoms: C_15  and  C_16
REMARK    7  A    between atoms: C_17  and  C_18
REMARK                            x       y       z     vdW  Elec       q    Type
REMARK                         _______ _______ _______ _____ _____    ______ ____
ROOT
ATOM      1  C   UNL     1       3.158   4.211  19.976  0.00  0.00    +0.000 A 
ATOM      2  C   UNL     1       4.042   4.138  18.776  0.00  0.00    +0.000 A 
ATOM      3  C   UNL     1       4.028   5.193  17.942  0.00  0.00    +0.000 A 
ATOM      4  N   UNL     1       3.279   6.333  18.324  0.00  0.00    +0.000 N 
ATOM      5  N   UNL     1       3.175   7.517  17.654  0.00  0.00    +0.000 NA
ATOM      6  C   UNL     1       2.408   8.283  18.437  0.00  0.00    +0.000 A 
ATOM      7  C   UNL     1       2.087   9.676  18.034  0.00  0.00    +0.000 C 
ATOM      8  C   UNL     1       1.992   7.607  19.615  0.00  0.00    +0.000 A 
ATOM      9  C   UNL     1       1.156   8.118  20.724  0.00  0.00    +0.000 C 
ATOM     10  C   UNL     1       2.541   6.345  19.509  0.00  0.00    +0.000 A 
ATOM     11  N   UNL     1       2.454   5.249  20.325  0.00  0.00    +0.000 NA
ENDROOT
BRANCH   1  13
ATOM     12  C   UNL     1       1.754   2.944  21.601  0.00  0.00    +0.000 C 
ATOM     13  C   UNL     1       3.049   2.946  20.804  0.00  0.00    +0.000 C 
ENDBRANCH   1  13
BRANCH   3  14
ATOM     14  N   UNL     1       4.759   5.220  16.742  0.00  0.00    +0.000 N 
ATOM     15  H   UNL     1       4.071   5.055  15.992  0.00  0.00    +0.000 HD
BRANCH  14  16
ATOM     16  C   UNL     1       5.854   4.256  16.512  0.00  0.00    +0.000 C 
ATOM     17  C   UNL     1       7.145   4.887  15.994  0.00  0.00    +0.000 C 
ATOM     18  C   UNL     1       6.868   5.173  14.523  0.00  0.00    +0.000 C 
ATOM     19  C   UNL     1       5.854   4.107  14.088  0.00  0.00    +0.000 C 
ATOM     20  C   UNL     1       5.485   3.323  15.357  0.00  0.00    +0.000 C 
BRANCH  19  21
ATOM     21  N   UNL     1       6.384   3.224  13.052  0.00  0.00    +0.000 NA
ATOM     22  H   UNL     1       7.362   3.008  13.244  0.00  0.00    +0.000 HD
ATOM     23  H   UNL     1       6.379   3.713  12.157  0.00  0.00    +0.000 HD
ENDBRANCH  19  21
ENDBRANCH  14  16
ENDBRANCH   3  14
TORSDOF 4
ENDMDL
MODEL 9
REMARK VINA RESULT:      -6.9      2.627      5.018
REMARK  Name = 
REMARK  7 active torsions:
REMARK  status: ('A' for Active; 'I' for Inactive)
REMARK    1  A    between atoms: C_1  and  C_2
REMARK    2  A    between atoms: C_2  and  C_3
REMARK    3  A    between atoms: C_5  and  N_6
REMARK    4  A    between atoms: N_6  and  C_7
REMARK    5  A    between atoms: C_10  and  N_11
REMARK    6  A    between atoms: C_15  and  C_16
REMARK    7  A    between atoms: C_17  and  C_18
REMARK                            x       y       z     vdW  Elec       q    Type
REMARK                         _______ _______ _______ _____ _____    ______ ____
ROOT
ATOM      1  C   UNL     1       4.735   5.776  16.599  0.00  0.00    +0.000 A 
ATOM      2  C   UNL     1       4.806   4.662  17.589  0.00  0.00    +0.000 A 
ATOM      3  C   UNL     1       4.206   4.859  18.776  0.00  0.00    +0.000 A 
ATOM      4  N   UNL     1       3.454   6.047  18.952  0.00  0.00    +0.000 N 
ATOM      5  N   UNL     1       2.731   6.413  20.049  0.00  0.00    +0.000 NA
ATOM      6  C   UNL     1       2.166   7.578  19.708  0.00  0.00    +0.000 A 
ATOM      7  C   UNL     1       1.275   8.282  20.665  0.00  0.00    +0.000 C 
ATOM      8  C   UNL     1       2.525   7.990  18.397  0.00  0.00    +0.000 A 
ATOM      9  C   UNL     1       2.096   9.202  17.664  0.00  0.00    +0.000 C 
ATOM     10  C   UNL     1       3.375   7.005  17.939  0.00  0.00    +0.000 A 
ATOM     11  N   UNL     1       4.059   6.877  16.759  0.00  0.00    +0.000 NA
ENDROOT
BRANCH   1  13
ATOM     12  C   UNL     1       6.597   4.507  15.533  0.00  0.00    +0.000 C 
ATOM     13  C   UNL     1       5.566   5.608  15.343  0.00  0.00    +0.000 C 
ENDBRANCH   1  13
BRANCH   3  14
ATOM     14  N   UNL     1       4.261   3.919  19.820  0.00  0.00    +0.000 N 
ATOM     15  H   UNL     1       5.239   3.594  19.852  0.00  0.00    +0.000 HD
BRANCH  14  16
ATOM     16  C   UNL     1       3.426   2.701  19.771  0.00  0.00    +0.000 C 
ATOM     17  C   UNL     1       2.033   2.921  19.186  0.00  0.00    +0.000 C 
ATOM     18  C   UNL     1       1.253   3.610  20.300  0.00  0.00    +0.000 C 
ATOM     19  C   UNL     1       1.887   3.109  21.605  0.00  0.00    +0.000 C 
ATOM     20  C   UNL     1       3.092   2.250  21.195  0.00  0.00    +0.000 C 
BRANCH  19  21
ATOM     21  N   UNL     1       0.946   2.350  22.426  0.00  0.00    +0.000 NA
ATOM     22  H   UNL     1       1.278   2.308  23.390  0.00  0.00    +0.000 HD
ATOM     23  H   UNL     1       0.919   1.383  22.101  0.00  0.00    +0.000 HD
ENDBRANCH  19  21
ENDBRANCH  14  16
ENDBRANCH   3  14
TORSDOF 4
ENDMDL
