MODEL 1
REMARK VINA RESULT:      -7.2      0.000      0.000
REMARK  Name = 
REMARK  7 active torsions:
REMARK  status: ('A' for Active; 'I' for Inactive)
REMARK    1  A    between atoms: C_1  and  C_2
REMARK    2  A    between atoms: C_5  and  N_6
REMARK    3  A    between atoms: C_12  and  C_13
REMARK    4  A    between atoms: C_13  and  C_14
REMARK    5  A    between atoms: C_20  and  C_22
REMARK    6  A    between atoms: C_26  and  C_27
REMARK    7  A    between atoms: C_28  and  N_29
REMARK                            x       y       z     vdW  Elec       q    Type
REMARK                         _______ _______ _______ _____ _____    ______ ____
ROOT
ATOM      1  C   UNL     1      -2.328  11.201  18.982  0.00  0.00    +0.000 C 
ATOM      2  C   UNL     1      -1.889  11.276  17.476  0.00  0.00    +0.000 C 
ATOM      3  O   UNL     1      -2.918  10.934  16.542  0.00  0.00    +0.000 OA
ATOM      4  C   UNL     1      -4.122  11.669  16.793  0.00  0.00    +0.000 C 
ATOM      5  C   UNL     1      -4.624  11.327  18.191  0.00  0.00    +0.000 C 
ATOM      6  N   UNL     1      -3.681  11.861  19.201  0.00  0.00    +0.000 N 
ATOM      7  C   UNL     1      -4.249  12.861  20.058  0.00  0.00    +0.000 C 
ATOM      8  O   UNL     1      -5.382  13.271  19.808  0.00  0.00    +0.000 OA
ENDROOT
BRANCH   7   9
ATOM      9  C   UNL     1      -3.616  13.352  21.338  0.00  0.00    +0.000 A 
ATOM     10  C   UNL     1      -4.266  12.828  22.466  0.00  0.00    +0.000 A 
ATOM     11  C   UNL     1      -3.778  12.995  23.752  0.00  0.00    +0.000 A 
ATOM     12  C   UNL     1      -2.640  13.734  23.950  0.00  0.00    +0.000 A 
ATOM     13  C   UNL     1      -2.019  14.425  22.893  0.00  0.00    +0.000 A 
ATOM     14  C   UNL     1      -0.779  15.201  23.303  0.00  0.00    +0.000 C 
ATOM     15  C   UNL     1      -2.562  14.313  21.558  0.00  0.00    +0.000 A 
BRANCH  15  16
ATOM     16  N   UNL     1      -2.081  15.254  20.559  0.00  0.00    +0.000 N 
ATOM     17  N   UNL     1      -1.005  14.960  19.758  0.00  0.00    +0.000 NA
ATOM     18  C   UNL     1      -0.652  16.136  19.248  0.00  0.00    +0.000 A 
ATOM     19  C   UNL     1      -1.563  17.104  19.639  0.00  0.00    +0.000 A 
ATOM     20  N   UNL     1      -2.510  16.537  20.403  0.00  0.00    +0.000 NA
ENDBRANCH  15  16
ENDBRANCH   7   9
BRANCH   1  21
ATOM     21  C   UNL     1      -1.066  11.417  19.841  0.00  0.00    +0.000 C 
BRANCH  21  28
ATOM     22  C   UNL     1      -0.889  10.929  22.819  0.00  0.00    +0.000 C 
ATOM     23  C   UNL     1      -0.142  10.104  21.805  0.00  0.00    +0.000 A 
ATOM     24  C   UNL     1       0.780   9.169  22.301  0.00  0.00    +0.000 A 
ATOM     25  C   UNL     1       1.537   8.378  21.440  0.00  0.00    +0.000 A 
ATOM     26  C   UNL     1       1.340   8.468  20.064  0.00  0.00    +0.000 A 
ATOM     27  C   UNL     1       0.401   9.372  19.557  0.00  0.00    +0.000 A 
ATOM     28  C   UNL     1      -0.286  10.255  20.406  0.00  0.00    +0.000 A 
BRANCH  26  29
ATOM     29  N   UNL     1       2.174   7.737  19.179  0.00  0.00    +0.000 N 
ATOM     30  C   UNL     1       2.710   8.153  17.979  0.00  0.00    +0.000 A 
ATOM     31  C   UNL     1       3.669   7.231  17.632  0.00  0.00    +0.000 A 
ATOM     32  C   UNL     1       3.610   6.265  18.644  0.00  0.00    +0.000 A 
ATOM     33  N   UNL     1       2.641   6.510  19.527  0.00  0.00    +0.000 NA
ENDBRANCH  26  29
ENDBRANCH  21  28
ENDBRANCH   1  21
TORSDOF 5
ENDMDL
MODEL 2
REMARK VINA RESULT:      -7.1      3.118      6.604
REMARK  Name = 
REMARK  7 active torsions:
REMARK  status: ('A' for Active; 'I' for Inactive)
REMARK    1  A    between atoms: C_1  and  C_2
REMARK    2  A    between atoms: C_5  and  N_6
REMARK    3  A    between atoms: C_12  and  C_13
REMARK    4  A    between atoms: C_13  and  C_14
REMARK    5  A    between atoms: C_20  and  C_22
REMARK    6  A    between atoms: C_26  and  C_27
REMARK    7  A    between atoms: C_28  and  N_29
REMARK                            x       y       z     vdW  Elec       q    Type
REMARK                         _______ _______ _______ _____ _____    ______ ____
ROOT
ATOM      1  C   UNL     1      -0.882  11.128  22.042  0.00  0.00    +0.000 C 
ATOM      2  C   UNL     1      -0.166   9.935  22.771  0.00  0.00    +0.000 C 
ATOM      3  O   UNL     1       0.158   8.831  21.921  0.00  0.00    +0.000 OA
ATOM      4  C   UNL     1       0.869   9.258  20.753  0.00  0.00    +0.000 C 
ATOM      5  C   UNL     1      -0.014  10.216  19.962  0.00  0.00    +0.000 C 
ATOM      6  N   UNL     1      -0.195  11.470  20.729  0.00  0.00    +0.000 N 
ATOM      7  C   UNL     1       0.349  12.631  20.084  0.00  0.00    +0.000 C 
ATOM      8  O   UNL     1       1.008  12.475  19.058  0.00  0.00    +0.000 OA
ENDROOT
BRANCH   7   9
ATOM      9  C   UNL     1       0.052  14.054  20.492  0.00  0.00    +0.000 A 
ATOM     10  C   UNL     1      -1.234  14.446  20.087  0.00  0.00    +0.000 A 
ATOM     11  C   UNL     1      -1.806  15.645  20.480  0.00  0.00    +0.000 A 
ATOM     12  C   UNL     1      -1.085  16.512  21.261  0.00  0.00    +0.000 A 
ATOM     13  C   UNL     1       0.265  16.267  21.578  0.00  0.00    +0.000 A 
ATOM     14  C   UNL     1       0.905  17.342  22.439  0.00  0.00    +0.000 C 
ATOM     15  C   UNL     1       0.892  15.050  21.112  0.00  0.00    +0.000 A 
BRANCH  15  16
ATOM     16  N   UNL     1       2.341  14.966  21.205  0.00  0.00    +0.000 N 
ATOM     17  N   UNL     1       3.145  15.279  20.137  0.00  0.00    +0.000 NA
ATOM     18  C   UNL     1       4.328  14.766  20.462  0.00  0.00    +0.000 A 
ATOM     19  C   UNL     1       4.272  14.253  21.749  0.00  0.00    +0.000 A 
ATOM     20  N   UNL     1       3.042  14.446  22.250  0.00  0.00    +0.000 NA
ENDBRANCH  15  16
ENDBRANCH   7   9
BRANCH   1  21
ATOM     21  C   UNL     1      -1.317  12.136  23.125  0.00  0.00    +0.000 C 
BRANCH  21  28
ATOM     22  C   UNL     1      -1.616  14.804  24.515  0.00  0.00    +0.000 C 
ATOM     23  C   UNL     1      -2.718  14.169  23.707  0.00  0.00    +0.000 A 
ATOM     24  C   UNL     1      -3.972  14.797  23.739  0.00  0.00    +0.000 A 
ATOM     25  C   UNL     1      -5.060  14.269  23.047  0.00  0.00    +0.000 A 
ATOM     26  C   UNL     1      -4.893  13.134  22.258  0.00  0.00    +0.000 A 
ATOM     27  C   UNL     1      -3.639  12.516  22.190  0.00  0.00    +0.000 A 
ATOM     28  C   UNL     1      -2.565  12.970  22.973  0.00  0.00    +0.000 A 
BRANCH  26  29
ATOM     29  N   UNL     1      -6.015  12.537  21.628  0.00  0.00    +0.000 N 
ATOM     30  C   UNL     1      -6.168  12.209  20.298  0.00  0.00    +0.000 A 
ATOM     31  C   UNL     1      -7.277  11.402  20.213  0.00  0.00    +0.000 A 
ATOM     32  C   UNL     1      -7.766  11.339  21.524  0.00  0.00    +0.000 A 
ATOM     33  N   UNL     1      -7.070  12.104  22.365  0.00  0.00    +0.000 NA
ENDBRANCH  26  29
ENDBRANCH  21  28
ENDBRANCH   1  21
TORSDOF 5
ENDMDL
MODEL 3
REMARK VINA RESULT:      -7.1      4.944      9.107
REMARK  Name = 
REMARK  7 active torsions:
REMARK  status: ('A' for Active; 'I' for Inactive)
REMARK    1  A    between atoms: C_1  and  C_2
REMARK    2  A    between atoms: C_5  and  N_6
REMARK    3  A    between atoms: C_12  and  C_13
REMARK    4  A    between atoms: C_13  and  C_14
REMARK    5  A    between atoms: C_20  and  C_22
REMARK    6  A    between atoms: C_26  and  C_27
REMARK    7  A    between atoms: C_28  and  N_29
REMARK                            x       y       z     vdW  Elec       q    Type
REMARK                         _______ _______ _______ _____ _____    ______ ____
ROOT
ATOM      1  C   UNL     1       3.656   4.165  18.457  0.00  0.00    +0.000 C 
ATOM      2  C   UNL     1       3.212   2.746  17.951  0.00  0.00    +0.000 C 
ATOM      3  O   UNL     1       3.097   1.759  18.981  0.00  0.00    +0.000 OA
ATOM      4  C   UNL     1       2.289   2.225  20.068  0.00  0.00    +0.000 C 
ATOM      5  C   UNL     1       2.943   3.461  20.673  0.00  0.00    +0.000 C 
ATOM      6  N   UNL     1       2.886   4.578  19.702  0.00  0.00    +0.000 N 
ATOM      7  C   UNL     1       2.105   5.697  20.147  0.00  0.00    +0.000 C 
ATOM      8  O   UNL     1       1.468   5.587  21.193  0.00  0.00    +0.000 OA
ENDROOT
BRANCH   7   9
ATOM      9  C   UNL     1       2.119   7.061  19.499  0.00  0.00    +0.000 A 
ATOM     10  C   UNL     1       2.979   7.093  18.389  0.00  0.00    +0.000 A 
ATOM     11  C   UNL     1       3.045   8.177  17.529  0.00  0.00    +0.000 A 
ATOM     12  C   UNL     1       2.279   9.286  17.783  0.00  0.00    +0.000 A 
ATOM     13  C   UNL     1       1.513   9.398  18.959  0.00  0.00    +0.000 A 
ATOM     14  C   UNL     1       0.742  10.701  19.076  0.00  0.00    +0.000 C 
ATOM     15  C   UNL     1       1.493   8.298  19.898  0.00  0.00    +0.000 A 
BRANCH  15  16
ATOM     16  N   UNL     1       0.938   8.555  21.217  0.00  0.00    +0.000 N 
ATOM     17  N   UNL     1      -0.385   8.309  21.496  0.00  0.00    +0.000 NA
ATOM     18  C   UNL     1      -0.602   8.967  22.631  0.00  0.00    +0.000 A 
ATOM     19  C   UNL     1       0.590   9.506  23.090  0.00  0.00    +0.000 A 
ATOM     20  N   UNL     1       1.578   9.183  22.241  0.00  0.00    +0.000 NA
ENDBRANCH  15  16
ENDBRANCH   7   9
BRANCH   1  21
ATOM     21  C   UNL     1       3.904   5.042  17.214  0.00  0.00    +0.000 C 
BRANCH  21  28
ATOM     22  C   UNL     1       6.605   6.225  17.880  0.00  0.00    +0.000 C 
ATOM     23  C   UNL     1       6.329   5.468  16.607  0.00  0.00    +0.000 A 
ATOM     24  C   UNL     1       7.350   5.453  15.643  0.00  0.00    +0.000 A 
ATOM     25  C   UNL     1       7.179   4.803  14.424  0.00  0.00    +0.000 A 
ATOM     26  C   UNL     1       6.002   4.102  14.172  0.00  0.00    +0.000 A 
ATOM     27  C   UNL     1       4.989   4.081  15.137  0.00  0.00    +0.000 A 
ATOM     28  C   UNL     1       5.102   4.827  16.321  0.00  0.00    +0.000 A 
BRANCH  26  29
ATOM     29  N   UNL     1       5.783   3.519  12.897  0.00  0.00    +0.000 N 
ATOM     30  C   UNL     1       6.605   2.658  12.204  0.00  0.00    +0.000 A 
ATOM     31  C   UNL     1       5.859   2.139  11.173  0.00  0.00    +0.000 A 
ATOM     32  C   UNL     1       4.619   2.781  11.281  0.00  0.00    +0.000 A 
ATOM     33  N   UNL     1       4.598   3.690  12.256  0.00  0.00    +0.000 NA
ENDBRANCH  26  29
ENDBRANCH  21  28
ENDBRANCH   1  21
TORSDOF 5
ENDMDL
MODEL 4
REMARK VINA RESULT:      -7.0      2.666      4.086
REMARK  Name = 
REMARK  7 active torsions:
REMARK  status: ('A' for Active; 'I' for Inactive)
REMARK    1  A    between atoms: C_1  and  C_2
REMARK    2  A    between atoms: C_5  and  N_6
REMARK    3  A    between atoms: C_12  and  C_13
REMARK    4  A    between atoms: C_13  and  C_14
REMARK    5  A    between atoms: C_20  and  C_22
REMARK    6  A    between atoms: C_26  and  C_27
REMARK    7  A    between atoms: C_28  and  N_29
REMARK                            x       y       z     vdW  Elec       q    Type
REMARK                         _______ _______ _______ _____ _____    ______ ____
ROOT
ATOM      1  C   UNL     1      -0.244  10.524  18.669  0.00  0.00    +0.000 C 
ATOM      2  C   UNL     1      -0.644   9.647  17.428  0.00  0.00    +0.000 C 
ATOM      3  O   UNL     1      -2.004   9.797  17.011  0.00  0.00    +0.000 OA
ATOM      4  C   UNL     1      -2.351  11.176  16.835  0.00  0.00    +0.000 C 
ATOM      5  C   UNL     1      -2.185  11.899  18.167  0.00  0.00    +0.000 C 
ATOM      6  N   UNL     1      -0.750  11.951  18.527  0.00  0.00    +0.000 N 
ATOM      7  C   UNL     1      -0.215  13.281  18.596  0.00  0.00    +0.000 C 
ATOM      8  O   UNL     1      -0.926  14.218  18.236  0.00  0.00    +0.000 OA
ENDROOT
BRANCH   7   9
ATOM      9  C   UNL     1       1.115  13.636  19.216  0.00  0.00    +0.000 A 
ATOM     10  C   UNL     1       2.162  13.521  18.288  0.00  0.00    +0.000 A 
ATOM     11  C   UNL     1       3.452  13.946  18.563  0.00  0.00    +0.000 A 
ATOM     12  C   UNL     1       3.742  14.461  19.800  0.00  0.00    +0.000 A 
ATOM     13  C   UNL     1       2.791  14.463  20.838  0.00  0.00    +0.000 A 
ATOM     14  C   UNL     1       3.295  15.060  22.141  0.00  0.00    +0.000 C 
ATOM     15  C   UNL     1       1.461  13.957  20.580  0.00  0.00    +0.000 A 
BRANCH  15  16
ATOM     16  N   UNL     1       0.607  13.706  21.730  0.00  0.00    +0.000 N 
ATOM     17  N   UNL     1       0.104  12.454  21.988  0.00  0.00    +0.000 NA
ATOM     18  C   UNL     1      -0.871  12.673  22.864  0.00  0.00    +0.000 A 
ATOM     19  C   UNL     1      -0.886  14.013  23.218  0.00  0.00    +0.000 A 
ATOM     20  N   UNL     1       0.094  14.654  22.562  0.00  0.00    +0.000 NA
ENDBRANCH  15  16
ENDBRANCH   7   9
BRANCH   1  21
ATOM     21  C   UNL     1       1.180  10.106  19.089  0.00  0.00    +0.000 C 
BRANCH  21  28
ATOM     22  C   UNL     1       0.520   8.588  21.619  0.00  0.00    +0.000 C 
ATOM     23  C   UNL     1       1.321   7.995  20.489  0.00  0.00    +0.000 A 
ATOM     24  C   UNL     1       1.896   6.734  20.711  0.00  0.00    +0.000 A 
ATOM     25  C   UNL     1       2.676   6.117  19.736  0.00  0.00    +0.000 A 
ATOM     26  C   UNL     1       2.846   6.728  18.496  0.00  0.00    +0.000 A 
ATOM     27  C   UNL     1       2.251   7.971  18.250  0.00  0.00    +0.000 A 
ATOM     28  C   UNL     1       1.559   8.655  19.261  0.00  0.00    +0.000 A 
BRANCH  26  29
ATOM     29  N   UNL     1       3.716   6.152  17.535  0.00  0.00    +0.000 N 
ATOM     30  C   UNL     1       4.700   6.776  16.799  0.00  0.00    +0.000 A 
ATOM     31  C   UNL     1       5.462   5.783  16.231  0.00  0.00    +0.000 A 
ATOM     32  C   UNL     1       4.838   4.593  16.628  0.00  0.00    +0.000 A 
ATOM     33  N   UNL     1       3.725   4.810  17.330  0.00  0.00    +0.000 NA
ENDBRANCH  26  29
ENDBRANCH  21  28
ENDBRANCH   1  21
TORSDOF 5
ENDMDL
MODEL 5
REMARK VINA RESULT:      -7.0      3.341      5.878
REMARK  Name = 
REMARK  7 active torsions:
REMARK  status: ('A' for Active; 'I' for Inactive)
REMARK    1  A    between atoms: C_1  and  C_2
REMARK    2  A    between atoms: C_5  and  N_6
REMARK    3  A    between atoms: C_12  and  C_13
REMARK    4  A    between atoms: C_13  and  C_14
REMARK    5  A    between atoms: C_20  and  C_22
REMARK    6  A    between atoms: C_26  and  C_27
REMARK    7  A    between atoms: C_28  and  N_29
REMARK                            x       y       z     vdW  Elec       q    Type
REMARK                         _______ _______ _______ _____ _____    ______ ____
ROOT
ATOM      1  C   UNL     1      -0.351  13.931  19.632  0.00  0.00    +0.000 C 
ATOM      2  C   UNL     1       1.215  14.028  19.716  0.00  0.00    +0.000 C 
ATOM      3  O   UNL     1       1.765  15.224  19.155  0.00  0.00    +0.000 OA
ATOM      4  C   UNL     1       1.121  16.393  19.674  0.00  0.00    +0.000 C 
ATOM      5  C   UNL     1      -0.359  16.342  19.312  0.00  0.00    +0.000 C 
ATOM      6  N   UNL     1      -1.011  15.237  20.050  0.00  0.00    +0.000 N 
ATOM      7  C   UNL     1      -2.023  15.669  20.971  0.00  0.00    +0.000 C 
ATOM      8  O   UNL     1      -2.166  16.876  21.160  0.00  0.00    +0.000 OA
ENDROOT
BRANCH   7   9
ATOM      9  C   UNL     1      -3.032  14.754  21.624  0.00  0.00    +0.000 A 
ATOM     10  C   UNL     1      -4.071  14.422  20.740  0.00  0.00    +0.000 A 
ATOM     11  C   UNL     1      -5.032  13.471  21.043  0.00  0.00    +0.000 A 
ATOM     12  C   UNL     1      -5.006  12.853  22.267  0.00  0.00    +0.000 A 
ATOM     13  C   UNL     1      -4.096  13.242  23.268  0.00  0.00    +0.000 A 
ATOM     14  C   UNL     1      -4.222  12.455  24.561  0.00  0.00    +0.000 C 
ATOM     15  C   UNL     1      -3.133  14.283  22.984  0.00  0.00    +0.000 A 
BRANCH  15  16
ATOM     16  N   UNL     1      -2.415  14.855  24.111  0.00  0.00    +0.000 N 
ATOM     17  N   UNL     1      -3.012  15.761  24.955  0.00  0.00    +0.000 NA
ATOM     18  C   UNL     1      -1.994  16.306  25.614  0.00  0.00    +0.000 A 
ATOM     19  C   UNL     1      -0.816  15.666  25.261  0.00  0.00    +0.000 A 
ATOM     20  N   UNL     1      -1.088  14.699  24.372  0.00  0.00    +0.000 NA
ENDBRANCH  15  16
ENDBRANCH   7   9
BRANCH   1  21
ATOM     21  C   UNL     1      -0.752  12.521  20.109  0.00  0.00    +0.000 C 
BRANCH  21  28
ATOM     22  C   UNL     1       0.606  10.329  18.529  0.00  0.00    +0.000 C 
ATOM     23  C   UNL     1      -0.868  10.627  18.426  0.00  0.00    +0.000 A 
ATOM     24  C   UNL     1      -1.587   9.936  17.438  0.00  0.00    +0.000 A 
ATOM     25  C   UNL     1      -2.948  10.163  17.248  0.00  0.00    +0.000 A 
ATOM     26  C   UNL     1      -3.627  11.044  18.087  0.00  0.00    +0.000 A 
ATOM     27  C   UNL     1      -2.928  11.715  19.097  0.00  0.00    +0.000 A 
ATOM     28  C   UNL     1      -1.537  11.582  19.225  0.00  0.00    +0.000 A 
BRANCH  26  29
ATOM     29  N   UNL     1      -4.989  11.352  17.838  0.00  0.00    +0.000 N 
ATOM     30  C   UNL     1      -6.100  10.893  18.511  0.00  0.00    +0.000 A 
ATOM     31  C   UNL     1      -7.158  11.676  18.114  0.00  0.00    +0.000 A 
ATOM     32  C   UNL     1      -6.611  12.544  17.160  0.00  0.00    +0.000 A 
ATOM     33  N   UNL     1      -5.326  12.288  16.914  0.00  0.00    +0.000 NA
ENDBRANCH  26  29
ENDBRANCH  21  28
ENDBRANCH   1  21
TORSDOF 5
ENDMDL
MODEL 6
REMARK VINA RESULT:      -7.0      3.014      5.899
REMARK  Name = 
REMARK  7 active torsions:
REMARK  status: ('A' for Active; 'I' for Inactive)
REMARK    1  A    between atoms: C_1  and  C_2
REMARK    2  A    between atoms: C_5  and  N_6
REMARK    3  A    between atoms: C_12  and  C_13
REMARK    4  A    between atoms: C_13  and  C_14
REMARK    5  A    between atoms: C_20  and  C_22
REMARK    6  A    between atoms: C_26  and  C_27
REMARK    7  A    between atoms: C_28  and  N_29
REMARK                            x       y       z     vdW  Elec       q    Type
REMARK                         _______ _______ _______ _____ _____    ______ ____
ROOT
ATOM      1  C   UNL     1      -1.906  12.756  19.779  0.00  0.00    +0.000 C 
ATOM      2  C   UNL     1      -2.469  11.898  18.591  0.00  0.00    +0.000 C 
ATOM      3  O   UNL     1      -1.591  10.862  18.141  0.00  0.00    +0.000 OA
ATOM      4  C   UNL     1      -1.134  10.050  19.228  0.00  0.00    +0.000 C 
ATOM      5  C   UNL     1      -0.364  10.926  20.208  0.00  0.00    +0.000 C 
ATOM      6  N   UNL     1      -1.293  11.877  20.859  0.00  0.00    +0.000 N 
ATOM      7  C   UNL     1      -1.412  11.698  22.278  0.00  0.00    +0.000 C 
ATOM      8  O   UNL     1      -0.859  10.727  22.793  0.00  0.00    +0.000 OA
ENDROOT
BRANCH   7   9
ATOM      9  C   UNL     1      -2.048  12.695  23.216  0.00  0.00    +0.000 A 
ATOM     10  C   UNL     1      -3.294  12.242  23.679  0.00  0.00    +0.000 A 
ATOM     11  C   UNL     1      -4.002  12.897  24.674  0.00  0.00    +0.000 A 
ATOM     12  C   UNL     1      -3.501  14.057  25.206  0.00  0.00    +0.000 A 
ATOM     13  C   UNL     1      -2.341  14.663  24.687  0.00  0.00    +0.000 A 
ATOM     14  C   UNL     1      -1.944  15.948  25.393  0.00  0.00    +0.000 C 
ATOM     15  C   UNL     1      -1.633  14.022  23.601  0.00  0.00    +0.000 A 
BRANCH  15  16
ATOM     16  N   UNL     1      -0.625  14.806  22.906  0.00  0.00    +0.000 N 
ATOM     17  N   UNL     1      -0.943  15.988  22.282  0.00  0.00    +0.000 NA
ATOM     18  C   UNL     1       0.099  16.226  21.490  0.00  0.00    +0.000 A 
ATOM     19  C   UNL     1       1.078  15.269  21.713  0.00  0.00    +0.000 A 
ATOM     20  N   UNL     1       0.657  14.417  22.660  0.00  0.00    +0.000 NA
ENDBRANCH  15  16
ENDBRANCH   7   9
BRANCH   1  21
ATOM     21  C   UNL     1      -2.888  13.923  20.011  0.00  0.00    +0.000 C 
BRANCH  21  28
ATOM     22  C   UNL     1      -4.320  15.836  21.863  0.00  0.00    +0.000 C 
ATOM     23  C   UNL     1      -4.927  14.541  21.387  0.00  0.00    +0.000 A 
ATOM     24  C   UNL     1      -6.151  14.166  21.961  0.00  0.00    +0.000 A 
ATOM     25  C   UNL     1      -6.777  12.973  21.605  0.00  0.00    +0.000 A 
ATOM     26  C   UNL     1      -6.215  12.163  20.621  0.00  0.00    +0.000 A 
ATOM     27  C   UNL     1      -5.011  12.542  20.018  0.00  0.00    +0.000 A 
ATOM     28  C   UNL     1      -4.312  13.682  20.448  0.00  0.00    +0.000 A 
BRANCH  26  29
ATOM     29  N   UNL     1      -6.795  10.903  20.323  0.00  0.00    +0.000 N 
ATOM     30  C   UNL     1      -6.602  10.123  19.204  0.00  0.00    +0.000 A 
ATOM     31  C   UNL     1      -7.128   8.885  19.487  0.00  0.00    +0.000 A 
ATOM     32  C   UNL     1      -7.667   9.019  20.772  0.00  0.00    +0.000 A 
ATOM     33  N   UNL     1      -7.560  10.262  21.243  0.00  0.00    +0.000 NA
ENDBRANCH  26  29
ENDBRANCH  21  28
ENDBRANCH   1  21
TORSDOF 5
ENDMDL
MODEL 7
REMARK VINA RESULT:      -6.9      2.871      5.891
REMARK  Name = 
REMARK  7 active torsions:
REMARK  status: ('A' for Active; 'I' for Inactive)
REMARK    1  A    between atoms: C_1  and  C_2
REMARK    2  A    between atoms: C_5  and  N_6
REMARK    3  A    between atoms: C_12  and  C_13
REMARK    4  A    between atoms: C_13  and  C_14
REMARK    5  A    between atoms: C_20  and  C_22
REMARK    6  A    between atoms: C_26  and  C_27
REMARK    7  A    between atoms: C_28  and  N_29
REMARK                            x       y       z     vdW  Elec       q    Type
REMARK                         _______ _______ _______ _____ _____    ______ ____
ROOT
ATOM      1  C   UNL     1      -3.973  14.168  22.273  0.00  0.00    +0.000 C 
ATOM      2  C   UNL     1      -4.894  15.096  21.402  0.00  0.00    +0.000 C 
ATOM      3  O   UNL     1      -4.767  16.493  21.688  0.00  0.00    +0.000 OA
ATOM      4  C   UNL     1      -3.398  16.912  21.664  0.00  0.00    +0.000 C 
ATOM      5  C   UNL     1      -2.628  16.142  22.732  0.00  0.00    +0.000 C 
ATOM      6  N   UNL     1      -2.554  14.712  22.355  0.00  0.00    +0.000 N 
ATOM      7  C   UNL     1      -1.220  14.240  22.122  0.00  0.00    +0.000 C 
ATOM      8  O   UNL     1      -0.300  15.057  22.124  0.00  0.00    +0.000 OA
ENDROOT
BRANCH   7   9
ATOM      9  C   UNL     1      -0.834  12.783  22.015  0.00  0.00    +0.000 A 
ATOM     10  C   UNL     1      -1.277  12.052  23.129  0.00  0.00    +0.000 A 
ATOM     11  C   UNL     1      -1.193  10.671  23.196  0.00  0.00    +0.000 A 
ATOM     12  C   UNL     1      -0.618   9.981  22.160  0.00  0.00    +0.000 A 
ATOM     13  C   UNL     1      -0.007  10.647  21.081  0.00  0.00    +0.000 A 
ATOM     14  C   UNL     1       0.589   9.720  20.036  0.00  0.00    +0.000 C 
ATOM     15  C   UNL     1      -0.028  12.092  21.038  0.00  0.00    +0.000 A 
BRANCH  15  16
ATOM     16  N   UNL     1       0.849  12.746  20.081  0.00  0.00    +0.000 N 
ATOM     17  N   UNL     1       2.158  13.028  20.388  0.00  0.00    +0.000 NA
ATOM     18  C   UNL     1       2.526  13.903  19.456  0.00  0.00    +0.000 A 
ATOM     19  C   UNL     1       1.501  14.061  18.537  0.00  0.00    +0.000 A 
ATOM     20  N   UNL     1       0.470  13.275  18.885  0.00  0.00    +0.000 NA
ENDBRANCH  15  16
ENDBRANCH   7   9
BRANCH   1  21
ATOM     21  C   UNL     1      -4.367  12.710  21.967  0.00  0.00    +0.000 C 
BRANCH  21  28
ATOM     22  C   UNL     1      -7.374  12.499  21.734  0.00  0.00    +0.000 C 
ATOM     23  C   UNL     1      -6.435  12.145  20.610  0.00  0.00    +0.000 A 
ATOM     24  C   UNL     1      -7.002  11.558  19.469  0.00  0.00    +0.000 A 
ATOM     25  C   UNL     1      -6.212  11.172  18.389  0.00  0.00    +0.000 A 
ATOM     26  C   UNL     1      -4.842  11.423  18.409  0.00  0.00    +0.000 A 
ATOM     27  C   UNL     1      -4.268  12.038  19.527  0.00  0.00    +0.000 A 
ATOM     28  C   UNL     1      -5.033  12.327  20.668  0.00  0.00    +0.000 A 
BRANCH  26  29
ATOM     29  N   UNL     1      -4.019  10.947  17.356  0.00  0.00    +0.000 N 
ATOM     30  C   UNL     1      -4.104  11.239  16.013  0.00  0.00    +0.000 A 
ATOM     31  C   UNL     1      -2.940  10.792  15.434  0.00  0.00    +0.000 A 
ATOM     32  C   UNL     1      -2.234  10.194  16.485  0.00  0.00    +0.000 A 
ATOM     33  N   UNL     1      -2.923  10.193  17.627  0.00  0.00    +0.000 NA
ENDBRANCH  26  29
ENDBRANCH  21  28
ENDBRANCH   1  21
TORSDOF 5
ENDMDL
MODEL 8
REMARK VINA RESULT:      -6.9      1.690      2.895
REMARK  Name = 
REMARK  7 active torsions:
REMARK  status: ('A' for Active; 'I' for Inactive)
REMARK    1  A    between atoms: C_1  and  C_2
REMARK    2  A    between atoms: C_5  and  N_6
REMARK    3  A    between atoms: C_12  and  C_13
REMARK    4  A    between atoms: C_13  and  C_14
REMARK    5  A    between atoms: C_20  and  C_22
REMARK    6  A    between atoms: C_26  and  C_27
REMARK    7  A    between atoms: C_28  and  N_29
REMARK                            x       y       z     vdW  Elec       q    Type
REMARK                         _______ _______ _______ _____ _____    ______ ____
ROOT
ATOM      1  C   UNL     1      -2.531  11.359  19.000  0.00  0.00    +0.000 C 
ATOM      2  C   UNL     1      -2.259  11.198  17.461  0.00  0.00    +0.000 C 
ATOM      3  O   UNL     1      -3.406  10.823  16.693  0.00  0.00    +0.000 OA
ATOM      4  C   UNL     1      -4.521  11.681  16.959  0.00  0.00    +0.000 C 
ATOM      5  C   UNL     1      -4.887  11.570  18.435  0.00  0.00    +0.000 C 
ATOM      6  N   UNL     1      -3.803  12.152  19.259  0.00  0.00    +0.000 N 
ATOM      7  C   UNL     1      -4.203  13.300  20.020  0.00  0.00    +0.000 C 
ATOM      8  O   UNL     1      -5.326  13.766  19.832  0.00  0.00    +0.000 OA
ENDROOT
BRANCH   7   9
ATOM      9  C   UNL     1      -3.399  13.901  21.149  0.00  0.00    +0.000 A 
ATOM     10  C   UNL     1      -2.142  14.343  20.705  0.00  0.00    +0.000 A 
ATOM     11  C   UNL     1      -1.284  15.075  21.508  0.00  0.00    +0.000 A 
ATOM     12  C   UNL     1      -1.642  15.350  22.803  0.00  0.00    +0.000 A 
ATOM     13  C   UNL     1      -2.810  14.810  23.373  0.00  0.00    +0.000 A 
ATOM     14  C   UNL     1      -3.038  15.211  24.820  0.00  0.00    +0.000 C 
ATOM     15  C   UNL     1      -3.678  13.985  22.562  0.00  0.00    +0.000 A 
BRANCH  15  16
ATOM     16  N   UNL     1      -4.703  13.216  23.248  0.00  0.00    +0.000 N 
ATOM     17  N   UNL     1      -6.030  13.563  23.172  0.00  0.00    +0.000 NA
ATOM     18  C   UNL     1      -6.599  12.884  24.164  0.00  0.00    +0.000 A 
ATOM     19  C   UNL     1      -5.660  12.055  24.756  0.00  0.00    +0.000 A 
ATOM     20  N   UNL     1      -4.481  12.204  24.132  0.00  0.00    +0.000 NA
ENDBRANCH  15  16
ENDBRANCH   7   9
BRANCH   1  21
ATOM     21  C   UNL     1      -1.170  11.581  19.688  0.00  0.00    +0.000 C 
BRANCH  21  28
ATOM     22  C   UNL     1      -1.043  11.335  22.699  0.00  0.00    +0.000 C 
ATOM     23  C   UNL     1      -0.306  10.410  21.766  0.00  0.00    +0.000 A 
ATOM     24  C   UNL     1       0.584   9.495  22.350  0.00  0.00    +0.000 A 
ATOM     25  C   UNL     1       1.330   8.617  21.567  0.00  0.00    +0.000 A 
ATOM     26  C   UNL     1       1.152   8.598  20.186  0.00  0.00    +0.000 A 
ATOM     27  C   UNL     1       0.244   9.482  19.594  0.00  0.00    +0.000 A 
ATOM     28  C   UNL     1      -0.429  10.449  20.358  0.00  0.00    +0.000 A 
BRANCH  26  29
ATOM     29  N   UNL     1       1.977   7.776  19.376  0.00  0.00    +0.000 N 
ATOM     30  C   UNL     1       2.526   8.072  18.148  0.00  0.00    +0.000 A 
ATOM     31  C   UNL     1       3.470   7.106  17.890  0.00  0.00    +0.000 A 
ATOM     32  C   UNL     1       3.387   6.236  18.985  0.00  0.00    +0.000 A 
ATOM     33  N   UNL     1       2.418   6.577  19.836  0.00  0.00    +0.000 NA
ENDBRANCH  26  29
ENDBRANCH  21  28
ENDBRANCH   1  21
TORSDOF 5
ENDMDL
MODEL 9
REMARK VINA RESULT:      -6.9      3.306      5.815
REMARK  Name = 
REMARK  7 active torsions:
REMARK  status: ('A' for Active; 'I' for Inactive)
REMARK    1  A    between atoms: C_1  and  C_2
REMARK    2  A    between atoms: C_5  and  N_6
REMARK    3  A    between atoms: C_12  and  C_13
REMARK    4  A    between atoms: C_13  and  C_14
REMARK    5  A    between atoms: C_20  and  C_22
REMARK    6  A    between atoms: C_26  and  C_27
REMARK    7  A    between atoms: C_28  and  N_29
REMARK                            x       y       z     vdW  Elec       q    Type
REMARK                         _______ _______ _______ _____ _____    ______ ____
ROOT
ATOM      1  C   UNL     1      -0.381  13.789  19.387  0.00  0.00    +0.000 C 
ATOM      2  C   UNL     1       1.153  13.969  19.099  0.00  0.00    +0.000 C 
ATOM      3  O   UNL     1       1.508  15.245  18.559  0.00  0.00    +0.000 OA
ATOM      4  C   UNL     1       0.974  16.317  19.345  0.00  0.00    +0.000 C 
ATOM      5  C   UNL     1      -0.547  16.214  19.349  0.00  0.00    +0.000 C 
ATOM      6  N   UNL     1      -0.960  15.004  20.095  0.00  0.00    +0.000 N 
ATOM      7  C   UNL     1      -1.727  15.281  21.276  0.00  0.00    +0.000 C 
ATOM      8  O   UNL     1      -1.858  16.453  21.628  0.00  0.00    +0.000 OA
ENDROOT
BRANCH   7   9
ATOM      9  C   UNL     1      -2.513  14.248  22.047  0.00  0.00    +0.000 A 
ATOM     10  C   UNL     1      -1.675  13.250  22.569  0.00  0.00    +0.000 A 
ATOM     11  C   UNL     1      -2.129  12.280  23.449  0.00  0.00    +0.000 A 
ATOM     12  C   UNL     1      -3.454  12.256  23.799  0.00  0.00    +0.000 A 
ATOM     13  C   UNL     1      -4.390  13.119  23.198  0.00  0.00    +0.000 A 
ATOM     14  C   UNL     1      -5.812  12.939  23.700  0.00  0.00    +0.000 C 
ATOM     15  C   UNL     1      -3.936  14.089  22.226  0.00  0.00    +0.000 A 
BRANCH  15  16
ATOM     16  N   UNL     1      -4.949  14.755  21.423  0.00  0.00    +0.000 N 
ATOM     17  N   UNL     1      -5.532  15.928  21.836  0.00  0.00    +0.000 NA
ATOM     18  C   UNL     1      -6.608  16.043  21.064  0.00  0.00    +0.000 A 
ATOM     19  C   UNL     1      -6.617  15.022  20.126  0.00  0.00    +0.000 A 
ATOM     20  N   UNL     1      -5.531  14.253  20.299  0.00  0.00    +0.000 NA
ENDBRANCH  15  16
ENDBRANCH   7   9
BRANCH   1  21
ATOM     21  C   UNL     1      -0.605  12.316  19.786  0.00  0.00    +0.000 C 
BRANCH  21  28
ATOM     22  C   UNL     1       0.511   9.998  18.199  0.00  0.00    +0.000 C 
ATOM     23  C   UNL     1      -0.944  10.388  18.173  0.00  0.00    +0.000 A 
ATOM     24  C   UNL     1      -1.764   9.719  17.251  0.00  0.00    +0.000 A 
ATOM     25  C   UNL     1      -3.117  10.030  17.134  0.00  0.00    +0.000 A 
ATOM     26  C   UNL     1      -3.686  10.976  17.983  0.00  0.00    +0.000 A 
ATOM     27  C   UNL     1      -2.886  11.627  18.929  0.00  0.00    +0.000 A 
ATOM     28  C   UNL     1      -1.501  11.407  18.980  0.00  0.00    +0.000 A 
BRANCH  26  29
ATOM     29  N   UNL     1      -5.039  11.366  17.805  0.00  0.00    +0.000 N 
ATOM     30  C   UNL     1      -6.129  11.025  18.575  0.00  0.00    +0.000 A 
ATOM     31  C   UNL     1      -7.156  11.858  18.200  0.00  0.00    +0.000 A 
ATOM     32  C   UNL     1      -6.620  12.631  17.163  0.00  0.00    +0.000 A 
ATOM     33  N   UNL     1      -5.375  12.270  16.849  0.00  0.00    +0.000 NA
ENDBRANCH  26  29
ENDBRANCH  21  28
ENDBRANCH   1  21
TORSDOF 5
ENDMDL
