MODEL 1
REMARK VINA RESULT:      -8.6      0.000      0.000
REMARK  Name = 
REMARK  7 active torsions:
REMARK  status: ('A' for Active; 'I' for Inactive)
REMARK    1  A    between atoms: C_1  and  O_2
REMARK    2  A    between atoms: O_2  and  C_3
REMARK    3  A    between atoms: C_10  and  N_11
REMARK    4  A    between atoms: C_18  and  N_19
REMARK    5  A    between atoms: N_19  and  C_20
REMARK    6  A    between atoms: C_20  and  C_21
REMARK    7  A    between atoms: C_22  and  C_23
REMARK                            x       y       z     vdW  Elec       q    Type
REMARK                         _______ _______ _______ _____ _____    ______ ____
ROOT
ATOM      1  N   UNL     1       2.444   6.922  18.604  0.00  0.00    +0.000 N 
ATOM      2  C   UNL     1       2.122   8.103  17.977  0.00  0.00    +0.000 A 
ATOM      3  C   UNL     1       1.586   8.927  18.933  0.00  0.00    +0.000 A 
ATOM      4  C   UNL     1       1.687   8.215  20.124  0.00  0.00    +0.000 A 
ATOM      5  N   UNL     1       2.122   6.968  19.930  0.00  0.00    +0.000 NA
ATOM      6  C   UNL     1       1.365   8.756  21.457  0.00  0.00    +0.000 C 
ATOM      7  C   UNL     1       0.829  10.198  21.448  0.00  0.00    +0.000 C 
ATOM      8  C   UNL     1       0.706  10.999  20.115  0.00  0.00    +0.000 C 
ATOM      9  C   UNL     1       1.052  10.280  18.788  0.00  0.00    +0.000 C 
ENDROOT
BRANCH   1  17
ATOM     10  C   UNL     1       6.281   6.635  16.873  0.00  0.00    +0.000 A 
ATOM     11  C   UNL     1       6.692   5.492  16.228  0.00  0.00    +0.000 A 
ATOM     12  C   UNL     1       5.811   4.415  16.201  0.00  0.00    +0.000 A 
ATOM     13  C   UNL     1       4.562   4.491  16.802  0.00  0.00    +0.000 A 
ATOM     14  N   UNL     1       3.780   3.394  16.803  0.00  0.00    +0.000 NA
ATOM     15  C   UNL     1       2.602   3.459  17.452  0.00  0.00    +0.000 A 
ATOM     16  C   UNL     1       2.153   4.591  18.089  0.00  0.00    +0.000 A 
ATOM     17  C   UNL     1       2.953   5.738  18.023  0.00  0.00    +0.000 A 
ATOM     18  C   UNL     1       4.207   5.718  17.401  0.00  0.00    +0.000 A 
ATOM     19  N   UNL     1       5.062   6.772  17.426  0.00  0.00    +0.000 NA
BRANCH  10  21
ATOM     20  C   UNL     1       7.961   7.625  18.141  0.00  0.00    +0.000 C 
ATOM     21  O   UNL     1       7.177   7.679  16.949  0.00  0.00    +0.000 OA
ENDBRANCH  10  21
ENDBRANCH   1  17
BRANCH   8  22
ATOM     22  N   UNL     1       1.421  12.288  20.260  0.00  0.00    +0.000 NA
ATOM     23  H   UNL     1       1.589  12.686  19.336  0.00  0.00    +0.000 HD
BRANCH  22  24
ATOM     24  C   UNL     1       0.692  13.263  21.073  0.00  0.00    +0.000 C 
BRANCH  24  25
ATOM     25  C   UNL     1       0.364  14.454  20.238  0.00  0.00    +0.000 C 
ATOM     26  C   UNL     1       1.217  15.006  19.358  0.00  0.00    +0.000 C 
BRANCH  26  27
ATOM     27  C   UNL     1       0.879  16.168  18.537  0.00  0.00    +0.000 A 
ATOM     28  C   UNL     1      -0.435  16.638  18.439  0.00  0.00    +0.000 A 
ATOM     29  C   UNL     1      -0.733  17.738  17.638  0.00  0.00    +0.000 A 
ATOM     30  C   UNL     1       0.279  18.390  16.945  0.00  0.00    +0.000 A 
ATOM     31  C   UNL     1       1.597  17.953  17.063  0.00  0.00    +0.000 A 
ATOM     32  C   UNL     1       1.899  16.848  17.862  0.00  0.00    +0.000 A 
ENDBRANCH  26  27
ENDBRANCH  24  25
ENDBRANCH  22  24
ENDBRANCH   8  22
TORSDOF 6
ENDMDL
MODEL 2
REMARK VINA RESULT:      -8.5      3.591      4.943
REMARK  Name = 
REMARK  7 active torsions:
REMARK  status: ('A' for Active; 'I' for Inactive)
REMARK    1  A    between atoms: C_1  and  O_2
REMARK    2  A    between atoms: O_2  and  C_3
REMARK    3  A    between atoms: C_10  and  N_11
REMARK    4  A    between atoms: C_18  and  N_19
REMARK    5  A    between atoms: N_19  and  C_20
REMARK    6  A    between atoms: C_20  and  C_21
REMARK    7  A    between atoms: C_22  and  C_23
REMARK                            x       y       z     vdW  Elec       q    Type
REMARK                         _______ _______ _______ _____ _____    ______ ____
ROOT
ATOM      1  N   UNL     1       2.797   7.399  18.347  0.00  0.00    +0.000 N 
ATOM      2  C   UNL     1       2.176   8.480  17.768  0.00  0.00    +0.000 A 
ATOM      3  C   UNL     1       1.399   9.059  18.739  0.00  0.00    +0.000 A 
ATOM      4  C   UNL     1       1.659   8.329  19.894  0.00  0.00    +0.000 A 
ATOM      5  N   UNL     1       2.433   7.267  19.656  0.00  0.00    +0.000 NA
ATOM      6  C   UNL     1       1.154   8.671  21.236  0.00  0.00    +0.000 C 
ATOM      7  C   UNL     1       0.235   9.904  21.277  0.00  0.00    +0.000 C 
ATOM      8  C   UNL     1      -0.067  10.722  19.983  0.00  0.00    +0.000 C 
ATOM      9  C   UNL     1       0.511  10.216  18.640  0.00  0.00    +0.000 C 
ENDROOT
BRANCH   1  17
ATOM     10  C   UNL     1       1.986   3.259  18.308  0.00  0.00    +0.000 A 
ATOM     11  C   UNL     1       2.885   2.358  17.787  0.00  0.00    +0.000 A 
ATOM     12  C   UNL     1       4.058   2.864  17.234  0.00  0.00    +0.000 A 
ATOM     13  C   UNL     1       4.313   4.228  17.210  0.00  0.00    +0.000 A 
ATOM     14  N   UNL     1       5.433   4.664  16.600  0.00  0.00    +0.000 NA
ATOM     15  C   UNL     1       5.631   5.993  16.520  0.00  0.00    +0.000 A 
ATOM     16  C   UNL     1       4.764   6.919  17.048  0.00  0.00    +0.000 A 
ATOM     17  C   UNL     1       3.638   6.444  17.730  0.00  0.00    +0.000 A 
ATOM     18  C   UNL     1       3.356   5.075  17.808  0.00  0.00    +0.000 A 
ATOM     19  N   UNL     1       2.212   4.585  18.352  0.00  0.00    +0.000 NA
BRANCH  10  21
ATOM     20  C   UNL     1       0.648   3.024  20.195  0.00  0.00    +0.000 C 
ATOM     21  O   UNL     1       0.800   2.760  18.801  0.00  0.00    +0.000 OA
ENDBRANCH  10  21
ENDBRANCH   1  17
BRANCH   8  22
ATOM     22  N   UNL     1       0.252  12.148  20.232  0.00  0.00    +0.000 NA
ATOM     23  H   UNL     1       0.632  12.561  19.380  0.00  0.00    +0.000 HD
BRANCH  22  24
ATOM     24  C   UNL     1      -0.907  12.931  20.664  0.00  0.00    +0.000 C 
BRANCH  24  25
ATOM     25  C   UNL     1      -2.113  12.483  19.911  0.00  0.00    +0.000 C 
ATOM     26  C   UNL     1      -3.373  12.698  20.325  0.00  0.00    +0.000 C 
BRANCH  26  27
ATOM     27  C   UNL     1      -4.549  12.263  19.571  0.00  0.00    +0.000 A 
ATOM     28  C   UNL     1      -4.433  11.695  18.298  0.00  0.00    +0.000 A 
ATOM     29  C   UNL     1      -5.569  11.303  17.594  0.00  0.00    +0.000 A 
ATOM     30  C   UNL     1      -6.828  11.455  18.162  0.00  0.00    +0.000 A 
ATOM     31  C   UNL     1      -6.954  11.987  19.444  0.00  0.00    +0.000 A 
ATOM     32  C   UNL     1      -5.817  12.385  20.151  0.00  0.00    +0.000 A 
ENDBRANCH  26  27
ENDBRANCH  24  25
ENDBRANCH  22  24
ENDBRANCH   8  22
TORSDOF 6
ENDMDL
MODEL 3
REMARK VINA RESULT:      -8.4      1.867      2.958
REMARK  Name = 
REMARK  7 active torsions:
REMARK  status: ('A' for Active; 'I' for Inactive)
REMARK    1  A    between atoms: C_1  and  O_2
REMARK    2  A    between atoms: O_2  and  C_3
REMARK    3  A    between atoms: C_10  and  N_11
REMARK    4  A    between atoms: C_18  and  N_19
REMARK    5  A    between atoms: N_19  and  C_20
REMARK    6  A    between atoms: C_20  and  C_21
REMARK    7  A    between atoms: C_22  and  C_23
REMARK                            x       y       z     vdW  Elec       q    Type
REMARK                         _______ _______ _______ _____ _____    ______ ____
ROOT
ATOM      1  N   UNL     1       2.727   7.438  18.399  0.00  0.00    +0.000 N 
ATOM      2  C   UNL     1       2.045   8.499  17.850  0.00  0.00    +0.000 A 
ATOM      3  C   UNL     1       1.278   9.040  18.850  0.00  0.00    +0.000 A 
ATOM      4  C   UNL     1       1.603   8.312  19.990  0.00  0.00    +0.000 A 
ATOM      5  N   UNL     1       2.410   7.283  19.718  0.00  0.00    +0.000 NA
ATOM      6  C   UNL     1       1.130   8.625  21.351  0.00  0.00    +0.000 C 
ATOM      7  C   UNL     1       0.165   9.821  21.431  0.00  0.00    +0.000 C 
ATOM      8  C   UNL     1      -0.209  10.636  20.154  0.00  0.00    +0.000 C 
ATOM      9  C   UNL     1       0.343  10.162  18.789  0.00  0.00    +0.000 C 
ENDROOT
BRANCH   1  17
ATOM     10  C   UNL     1       2.047   3.275  18.307  0.00  0.00    +0.000 A 
ATOM     11  C   UNL     1       2.962   2.412  17.751  0.00  0.00    +0.000 A 
ATOM     12  C   UNL     1       4.106   2.965  17.182  0.00  0.00    +0.000 A 
ATOM     13  C   UNL     1       4.316   4.337  17.176  0.00  0.00    +0.000 A 
ATOM     14  N   UNL     1       5.408   4.818  16.550  0.00  0.00    +0.000 NA
ATOM     15  C   UNL     1       5.562   6.155  16.488  0.00  0.00    +0.000 A 
ATOM     16  C   UNL     1       4.678   7.043  17.051  0.00  0.00    +0.000 A 
ATOM     17  C   UNL     1       3.583   6.521  17.749  0.00  0.00    +0.000 A 
ATOM     18  C   UNL     1       3.347   5.142  17.809  0.00  0.00    +0.000 A 
ATOM     19  N   UNL     1       2.231   4.607  18.369  0.00  0.00    +0.000 NA
BRANCH  10  21
ATOM     20  C   UNL     1       0.638   3.163  20.155  0.00  0.00    +0.000 C 
ATOM     21  O   UNL     1       0.889   2.731  18.817  0.00  0.00    +0.000 OA
ENDBRANCH  10  21
ENDBRANCH   1  17
BRANCH   8  22
ATOM     22  N   UNL     1       0.062  12.071  20.404  0.00  0.00    +0.000 NA
ATOM     23  H   UNL     1      -0.183  12.297  21.369  0.00  0.00    +0.000 HD
BRANCH  22  24
ATOM     24  C   UNL     1       1.458  12.443  20.168  0.00  0.00    +0.000 C 
BRANCH  24  25
ATOM     25  C   UNL     1       1.505  13.664  19.314  0.00  0.00    +0.000 C 
ATOM     26  C   UNL     1       0.718  14.737  19.502  0.00  0.00    +0.000 C 
BRANCH  26  27
ATOM     27  C   UNL     1       0.781  15.933  18.663  0.00  0.00    +0.000 A 
ATOM     28  C   UNL     1      -0.365  16.675  18.358  0.00  0.00    +0.000 A 
ATOM     29  C   UNL     1      -0.280  17.802  17.544  0.00  0.00    +0.000 A 
ATOM     30  C   UNL     1       0.951  18.211  17.046  0.00  0.00    +0.000 A 
ATOM     31  C   UNL     1       2.105  17.501  17.373  0.00  0.00    +0.000 A 
ATOM     32  C   UNL     1       2.023  16.368  18.185  0.00  0.00    +0.000 A 
ENDBRANCH  26  27
ENDBRANCH  24  25
ENDBRANCH  22  24
ENDBRANCH   8  22
TORSDOF 6
ENDMDL
MODEL 4
REMARK VINA RESULT:      -8.4      3.354      5.120
REMARK  Name = 
REMARK  7 active torsions:
REMARK  status: ('A' for Active; 'I' for Inactive)
REMARK    1  A    between atoms: C_1  and  O_2
REMARK    2  A    between atoms: O_2  and  C_3
REMARK    3  A    between atoms: C_10  and  N_11
REMARK    4  A    between atoms: C_18  and  N_19
REMARK    5  A    between atoms: N_19  and  C_20
REMARK    6  A    between atoms: C_20  and  C_21
REMARK    7  A    between atoms: C_22  and  C_23
REMARK                            x       y       z     vdW  Elec       q    Type
REMARK                         _______ _______ _______ _____ _____    ______ ____
ROOT
ATOM      1  N   UNL     1       2.608   7.444  18.467  0.00  0.00    +0.000 N 
ATOM      2  C   UNL     1       1.961   8.500  17.868  0.00  0.00    +0.000 A 
ATOM      3  C   UNL     1       1.213   9.112  18.841  0.00  0.00    +0.000 A 
ATOM      4  C   UNL     1       1.514   8.428  20.014  0.00  0.00    +0.000 A 
ATOM      5  N   UNL     1       2.286   7.362  19.792  0.00  0.00    +0.000 NA
ATOM      6  C   UNL     1       1.052   8.820  21.358  0.00  0.00    +0.000 C 
ATOM      7  C   UNL     1       0.127  10.050  21.381  0.00  0.00    +0.000 C 
ATOM      8  C   UNL     1      -0.220  10.816  20.068  0.00  0.00    +0.000 C 
ATOM      9  C   UNL     1       0.316  10.261  18.726  0.00  0.00    +0.000 C 
ENDROOT
BRANCH   1  17
ATOM     10  C   UNL     1       2.069   3.291  18.974  0.00  0.00    +0.000 A 
ATOM     11  C   UNL     1       2.960   2.384  18.449  0.00  0.00    +0.000 A 
ATOM     12  C   UNL     1       4.027   2.884  17.707  0.00  0.00    +0.000 A 
ATOM     13  C   UNL     1       4.187   4.247  17.506  0.00  0.00    +0.000 A 
ATOM     14  N   UNL     1       5.200   4.667  16.723  0.00  0.00    +0.000 NA
ATOM     15  C   UNL     1       5.301   5.987  16.476  0.00  0.00    +0.000 A 
ATOM     16  C   UNL     1       4.440   6.921  17.001  0.00  0.00    +0.000 A 
ATOM     17  C   UNL     1       3.433   6.469  17.861  0.00  0.00    +0.000 A 
ATOM     18  C   UNL     1       3.252   5.106  18.120  0.00  0.00    +0.000 A 
ATOM     19  N   UNL     1       2.212   4.623  18.847  0.00  0.00    +0.000 NA
BRANCH  10  21
ATOM     20  C   UNL     1       1.216   2.729  21.064  0.00  0.00    +0.000 C 
ATOM     21  O   UNL     1       0.982   2.791  19.657  0.00  0.00    +0.000 OA
ENDBRANCH  10  21
ENDBRANCH   1  17
BRANCH   8  22
ATOM     22  N   UNL     1       0.098  12.251  20.250  0.00  0.00    +0.000 NA
ATOM     23  H   UNL     1       0.969  12.467  19.765  0.00  0.00    +0.000 HD
BRANCH  22  24
ATOM     24  C   UNL     1      -0.953  13.143  19.757  0.00  0.00    +0.000 C 
BRANCH  24  25
ATOM     25  C   UNL     1      -2.190  12.940  20.564  0.00  0.00    +0.000 C 
ATOM     26  C   UNL     1      -2.262  13.162  21.887  0.00  0.00    +0.000 C 
BRANCH  26  27
ATOM     27  C   UNL     1      -3.485  12.970  22.666  0.00  0.00    +0.000 A 
ATOM     28  C   UNL     1      -3.449  12.490  23.979  0.00  0.00    +0.000 A 
ATOM     29  C   UNL     1      -4.629  12.302  24.695  0.00  0.00    +0.000 A 
ATOM     30  C   UNL     1      -5.853  12.610  24.114  0.00  0.00    +0.000 A 
ATOM     31  C   UNL     1      -5.899  13.123  22.819  0.00  0.00    +0.000 A 
ATOM     32  C   UNL     1      -4.718  13.309  22.097  0.00  0.00    +0.000 A 
ENDBRANCH  26  27
ENDBRANCH  24  25
ENDBRANCH  22  24
ENDBRANCH   8  22
TORSDOF 6
ENDMDL
MODEL 5
REMARK VINA RESULT:      -8.4      2.806      3.750
REMARK  Name = 
REMARK  7 active torsions:
REMARK  status: ('A' for Active; 'I' for Inactive)
REMARK    1  A    between atoms: C_1  and  O_2
REMARK    2  A    between atoms: O_2  and  C_3
REMARK    3  A    between atoms: C_10  and  N_11
REMARK    4  A    between atoms: C_18  and  N_19
REMARK    5  A    between atoms: N_19  and  C_20
REMARK    6  A    between atoms: C_20  and  C_21
REMARK    7  A    between atoms: C_22  and  C_23
REMARK                            x       y       z     vdW  Elec       q    Type
REMARK                         _______ _______ _______ _____ _____    ______ ____
ROOT
ATOM      1  N   UNL     1       2.637   6.657  18.585  0.00  0.00    +0.000 N 
ATOM      2  C   UNL     1       2.172   7.750  17.892  0.00  0.00    +0.000 A 
ATOM      3  C   UNL     1       1.534   8.556  18.800  0.00  0.00    +0.000 A 
ATOM      4  C   UNL     1       1.719   7.933  20.030  0.00  0.00    +0.000 A 
ATOM      5  N   UNL     1       2.307   6.741  19.907  0.00  0.00    +0.000 NA
ATOM      6  C   UNL     1       1.327   8.507  21.330  0.00  0.00    +0.000 C 
ATOM      7  C   UNL     1       0.615   9.868  21.238  0.00  0.00    +0.000 C 
ATOM      8  C   UNL     1       0.397  10.567  19.860  0.00  0.00    +0.000 C 
ATOM      9  C   UNL     1       0.836   9.821  18.577  0.00  0.00    +0.000 C 
ENDROOT
BRANCH   1  17
ATOM     10  C   UNL     1       6.550   6.721  17.010  0.00  0.00    +0.000 A 
ATOM     11  C   UNL     1       7.106   5.606  16.428  0.00  0.00    +0.000 A 
ATOM     12  C   UNL     1       6.346   4.440  16.414  0.00  0.00    +0.000 A 
ATOM     13  C   UNL     1       5.073   4.403  16.965  0.00  0.00    +0.000 A 
ATOM     14  N   UNL     1       4.413   3.229  16.983  0.00  0.00    +0.000 NA
ATOM     15  C   UNL     1       3.209   3.191  17.586  0.00  0.00    +0.000 A 
ATOM     16  C   UNL     1       2.617   4.291  18.157  0.00  0.00    +0.000 A 
ATOM     17  C   UNL     1       3.292   5.514  18.074  0.00  0.00    +0.000 A 
ATOM     18  C   UNL     1       4.565   5.606  17.499  0.00  0.00    +0.000 A 
ATOM     19  N   UNL     1       5.302   6.747  17.511  0.00  0.00    +0.000 NA
BRANCH  10  21
ATOM     20  C   UNL     1       8.208   7.839  18.198  0.00  0.00    +0.000 C 
ATOM     21  O   UNL     1       7.326   7.858  17.075  0.00  0.00    +0.000 OA
ENDBRANCH  10  21
ENDBRANCH   1  17
BRANCH   8  22
ATOM     22  N   UNL     1       0.946  11.942  19.927  0.00  0.00    +0.000 NA
ATOM     23  H   UNL     1       1.519  12.116  19.101  0.00  0.00    +0.000 HD
BRANCH  22  24
ATOM     24  C   UNL     1      -0.091  12.972  20.012  0.00  0.00    +0.000 C 
BRANCH  24  25
ATOM     25  C   UNL     1      -1.388  12.407  19.543  0.00  0.00    +0.000 C 
ATOM     26  C   UNL     1      -2.586  12.812  19.996  0.00  0.00    +0.000 C 
BRANCH  26  27
ATOM     27  C   UNL     1      -3.852  12.257  19.520  0.00  0.00    +0.000 A 
ATOM     28  C   UNL     1      -5.036  12.400  20.251  0.00  0.00    +0.000 A 
ATOM     29  C   UNL     1      -6.226  11.849  19.782  0.00  0.00    +0.000 A 
ATOM     30  C   UNL     1      -6.250  11.168  18.571  0.00  0.00    +0.000 A 
ATOM     31  C   UNL     1      -5.084  11.050  17.816  0.00  0.00    +0.000 A 
ATOM     32  C   UNL     1      -3.888  11.598  18.285  0.00  0.00    +0.000 A 
ENDBRANCH  26  27
ENDBRANCH  24  25
ENDBRANCH  22  24
ENDBRANCH   8  22
TORSDOF 6
ENDMDL
MODEL 6
REMARK VINA RESULT:      -8.4      3.347      4.602
REMARK  Name = 
REMARK  7 active torsions:
REMARK  status: ('A' for Active; 'I' for Inactive)
REMARK    1  A    between atoms: C_1  and  O_2
REMARK    2  A    between atoms: O_2  and  C_3
REMARK    3  A    between atoms: C_10  and  N_11
REMARK    4  A    between atoms: C_18  and  N_19
REMARK    5  A    between atoms: N_19  and  C_20
REMARK    6  A    between atoms: C_20  and  C_21
REMARK    7  A    between atoms: C_22  and  C_23
REMARK                            x       y       z     vdW  Elec       q    Type
REMARK                         _______ _______ _______ _____ _____    ______ ____
ROOT
ATOM      1  N   UNL     1       2.280   6.721  18.906  0.00  0.00    +0.000 N 
ATOM      2  C   UNL     1       2.019   6.870  20.248  0.00  0.00    +0.000 A 
ATOM      3  C   UNL     1       1.663   8.180  20.442  0.00  0.00    +0.000 A 
ATOM      4  C   UNL     1       1.652   8.744  19.171  0.00  0.00    +0.000 A 
ATOM      5  N   UNL     1       2.108   7.902  18.241  0.00  0.00    +0.000 NA
ATOM      6  C   UNL     1       1.189  10.109  18.862  0.00  0.00    +0.000 C 
ATOM      7  C   UNL     1       0.756  10.930  20.089  0.00  0.00    +0.000 C 
ATOM      8  C   UNL     1       0.774  10.304  21.518  0.00  0.00    +0.000 C 
ATOM      9  C   UNL     1       1.320   8.866  21.687  0.00  0.00    +0.000 C 
ENDROOT
BRANCH   1  17
ATOM     10  C   UNL     1       5.977   6.573  16.880  0.00  0.00    +0.000 A 
ATOM     11  C   UNL     1       6.350   5.468  16.150  0.00  0.00    +0.000 A 
ATOM     12  C   UNL     1       5.480   4.381  16.137  0.00  0.00    +0.000 A 
ATOM     13  C   UNL     1       4.280   4.410  16.833  0.00  0.00    +0.000 A 
ATOM     14  N   UNL     1       3.512   3.304  16.839  0.00  0.00    +0.000 NA
ATOM     15  C   UNL     1       2.386   3.320  17.577  0.00  0.00    +0.000 A 
ATOM     16  C   UNL     1       1.975   4.415  18.300  0.00  0.00    +0.000 A 
ATOM     17  C   UNL     1       2.756   5.574  18.232  0.00  0.00    +0.000 A 
ATOM     18  C   UNL     1       3.958   5.602  17.516  0.00  0.00    +0.000 A 
ATOM     19  N   UNL     1       4.802   6.666  17.529  0.00  0.00    +0.000 NA
BRANCH  10  21
ATOM     20  C   UNL     1       7.831   7.450  17.976  0.00  0.00    +0.000 C 
ATOM     21  O   UNL     1       6.865   7.624  16.940  0.00  0.00    +0.000 OA
ENDBRANCH  10  21
ENDBRANCH   1  17
BRANCH   8  22
ATOM     22  N   UNL     1      -0.562  10.474  22.134  0.00  0.00    +0.000 NA
ATOM     23  H   UNL     1      -0.630   9.881  22.961  0.00  0.00    +0.000 HD
BRANCH  22  24
ATOM     24  C   UNL     1      -0.848  11.858  22.518  0.00  0.00    +0.000 C 
BRANCH  24  25
ATOM     25  C   UNL     1      -2.293  11.986  22.861  0.00  0.00    +0.000 C 
ATOM     26  C   UNL     1      -3.190  12.623  22.088  0.00  0.00    +0.000 C 
BRANCH  26  27
ATOM     27  C   UNL     1      -4.607  12.733  22.431  0.00  0.00    +0.000 A 
ATOM     28  C   UNL     1      -5.032  12.868  23.757  0.00  0.00    +0.000 A 
ATOM     29  C   UNL     1      -6.389  12.955  24.058  0.00  0.00    +0.000 A 
ATOM     30  C   UNL     1      -7.333  12.929  23.038  0.00  0.00    +0.000 A 
ATOM     31  C   UNL     1      -6.920  12.831  21.711  0.00  0.00    +0.000 A 
ATOM     32  C   UNL     1      -5.560  12.739  21.405  0.00  0.00    +0.000 A 
ENDBRANCH  26  27
ENDBRANCH  24  25
ENDBRANCH  22  24
ENDBRANCH   8  22
TORSDOF 6
ENDMDL
MODEL 7
REMARK VINA RESULT:      -8.4      2.538      3.522
REMARK  Name = 
REMARK  7 active torsions:
REMARK  status: ('A' for Active; 'I' for Inactive)
REMARK    1  A    between atoms: C_1  and  O_2
REMARK    2  A    between atoms: O_2  and  C_3
REMARK    3  A    between atoms: C_10  and  N_11
REMARK    4  A    between atoms: C_18  and  N_19
REMARK    5  A    between atoms: N_19  and  C_20
REMARK    6  A    between atoms: C_20  and  C_21
REMARK    7  A    between atoms: C_22  and  C_23
REMARK                            x       y       z     vdW  Elec       q    Type
REMARK                         _______ _______ _______ _____ _____    ______ ____
ROOT
ATOM      1  N   UNL     1       2.551   6.730  18.611  0.00  0.00    +0.000 N 
ATOM      2  C   UNL     1       2.245   7.873  17.911  0.00  0.00    +0.000 A 
ATOM      3  C   UNL     1       1.643   8.732  18.795  0.00  0.00    +0.000 A 
ATOM      4  C   UNL     1       1.688   8.079  20.022  0.00  0.00    +0.000 A 
ATOM      5  N   UNL     1       2.153   6.832  19.913  0.00  0.00    +0.000 NA
ATOM      6  C   UNL     1       1.282   8.676  21.307  0.00  0.00    +0.000 C 
ATOM      7  C   UNL     1       0.724  10.106  21.199  0.00  0.00    +0.000 C 
ATOM      8  C   UNL     1       0.663  10.840  19.823  0.00  0.00    +0.000 C 
ATOM      9  C   UNL     1       1.096  10.066  18.555  0.00  0.00    +0.000 C 
ENDROOT
BRANCH   1  17
ATOM     10  C   UNL     1       6.363   6.500  16.817  0.00  0.00    +0.000 A 
ATOM     11  C   UNL     1       6.822   5.330  16.259  0.00  0.00    +0.000 A 
ATOM     12  C   UNL     1       6.000   4.210  16.342  0.00  0.00    +0.000 A 
ATOM     13  C   UNL     1       4.761   4.271  16.965  0.00  0.00    +0.000 A 
ATOM     14  N   UNL     1       4.040   3.138  17.075  0.00  0.00    +0.000 NA
ATOM     15  C   UNL     1       2.873   3.195  17.745  0.00  0.00    +0.000 A 
ATOM     16  C   UNL     1       2.376   4.352  18.297  0.00  0.00    +0.000 A 
ATOM     17  C   UNL     1       3.112   5.529  18.118  0.00  0.00    +0.000 A 
ATOM     18  C   UNL     1       4.352   5.523  17.469  0.00  0.00    +0.000 A 
ATOM     19  N   UNL     1       5.149   6.619  17.387  0.00  0.00    +0.000 NA
BRANCH  10  21
ATOM     20  C   UNL     1       7.935   7.738  18.002  0.00  0.00    +0.000 C 
ATOM     21  O   UNL     1       7.203   7.592  16.786  0.00  0.00    +0.000 OA
ENDBRANCH  10  21
ENDBRANCH   1  17
BRANCH   8  22
ATOM     22  N   UNL     1       1.348  12.148  19.946  0.00  0.00    +0.000 NA
ATOM     23  H   UNL     1       2.058  12.226  19.218  0.00  0.00    +0.000 HD
BRANCH  22  24
ATOM     24  C   UNL     1       0.435  13.288  19.844  0.00  0.00    +0.000 C 
BRANCH  24  25
ATOM     25  C   UNL     1      -0.795  12.871  19.114  0.00  0.00    +0.000 C 
ATOM     26  C   UNL     1      -1.933  12.496  19.722  0.00  0.00    +0.000 C 
BRANCH  26  27
ATOM     27  C   UNL     1      -3.138  12.099  18.994  0.00  0.00    +0.000 A 
ATOM     28  C   UNL     1      -3.065  11.475  17.744  0.00  0.00    +0.000 A 
ATOM     29  C   UNL     1      -4.228  11.120  17.063  0.00  0.00    +0.000 A 
ATOM     30  C   UNL     1      -5.471  11.367  17.632  0.00  0.00    +0.000 A 
ATOM     31  C   UNL     1      -5.555  11.956  18.892  0.00  0.00    +0.000 A 
ATOM     32  C   UNL     1      -4.392  12.316  19.576  0.00  0.00    +0.000 A 
ENDBRANCH  26  27
ENDBRANCH  24  25
ENDBRANCH  22  24
ENDBRANCH   8  22
TORSDOF 6
ENDMDL
MODEL 8
REMARK VINA RESULT:      -8.4      2.487      3.927
REMARK  Name = 
REMARK  7 active torsions:
REMARK  status: ('A' for Active; 'I' for Inactive)
REMARK    1  A    between atoms: C_1  and  O_2
REMARK    2  A    between atoms: O_2  and  C_3
REMARK    3  A    between atoms: C_10  and  N_11
REMARK    4  A    between atoms: C_18  and  N_19
REMARK    5  A    between atoms: N_19  and  C_20
REMARK    6  A    between atoms: C_20  and  C_21
REMARK    7  A    between atoms: C_22  and  C_23
REMARK                            x       y       z     vdW  Elec       q    Type
REMARK                         _______ _______ _______ _____ _____    ______ ____
ROOT
ATOM      1  N   UNL     1       2.603   6.731  18.638  0.00  0.00    +0.000 N 
ATOM      2  C   UNL     1       2.240   7.911  18.034  0.00  0.00    +0.000 A 
ATOM      3  C   UNL     1       1.610   8.670  18.986  0.00  0.00    +0.000 A 
ATOM      4  C   UNL     1       1.697   7.925  20.158  0.00  0.00    +0.000 A 
ATOM      5  N   UNL     1       2.214   6.713  19.947  0.00  0.00    +0.000 NA
ATOM      6  C   UNL     1       1.279   8.400  21.489  0.00  0.00    +0.000 C 
ATOM      7  C   UNL     1       0.658   9.809  21.498  0.00  0.00    +0.000 C 
ATOM      8  C   UNL     1       0.551  10.645  20.186  0.00  0.00    +0.000 C 
ATOM      9  C   UNL     1       1.003   9.994  18.857  0.00  0.00    +0.000 C 
ENDROOT
BRANCH   1  17
ATOM     10  C   UNL     1       6.482   6.763  16.982  0.00  0.00    +0.000 A 
ATOM     11  C   UNL     1       6.990   5.666  16.325  0.00  0.00    +0.000 A 
ATOM     12  C   UNL     1       6.192   4.527  16.261  0.00  0.00    +0.000 A 
ATOM     13  C   UNL     1       4.930   4.499  16.838  0.00  0.00    +0.000 A 
ATOM     14  N   UNL     1       4.232   3.346  16.804  0.00  0.00    +0.000 NA
ATOM     15  C   UNL     1       3.040   3.311  17.430  0.00  0.00    +0.000 A 
ATOM     16  C   UNL     1       2.496   4.395  18.077  0.00  0.00    +0.000 A 
ATOM     17  C   UNL     1       3.210   5.599  18.048  0.00  0.00    +0.000 A 
ATOM     18  C   UNL     1       4.473   5.684  17.451  0.00  0.00    +0.000 A 
ATOM     19  N   UNL     1       5.246   6.798  17.512  0.00  0.00    +0.000 NA
BRANCH  10  21
ATOM     20  C   UNL     1       8.147   7.792  18.239  0.00  0.00    +0.000 C 
ATOM     21  O   UNL     1       7.296   7.869  17.095  0.00  0.00    +0.000 OA
ENDBRANCH  10  21
ENDBRANCH   1  17
BRANCH   8  22
ATOM     22  N   UNL     1       1.179  11.968  20.407  0.00  0.00    +0.000 NA
ATOM     23  H   UNL     1       1.952  12.087  19.752  0.00  0.00    +0.000 HD
BRANCH  22  24
ATOM     24  C   UNL     1       0.245  13.084  20.248  0.00  0.00    +0.000 C 
BRANCH  24  25
ATOM     25  C   UNL     1      -0.824  12.984  21.282  0.00  0.00    +0.000 C 
ATOM     26  C   UNL     1      -2.137  13.057  21.007  0.00  0.00    +0.000 C 
BRANCH  26  27
ATOM     27  C   UNL     1      -3.176  12.947  22.030  0.00  0.00    +0.000 A 
ATOM     28  C   UNL     1      -2.867  12.629  23.357  0.00  0.00    +0.000 A 
ATOM     29  C   UNL     1      -3.877  12.515  24.309  0.00  0.00    +0.000 A 
ATOM     30  C   UNL     1      -5.201  12.737  23.952  0.00  0.00    +0.000 A 
ATOM     31  C   UNL     1      -5.518  13.089  22.641  0.00  0.00    +0.000 A 
ATOM     32  C   UNL     1      -4.508  13.201  21.682  0.00  0.00    +0.000 A 
ENDBRANCH  26  27
ENDBRANCH  24  25
ENDBRANCH  22  24
ENDBRANCH   8  22
TORSDOF 6
ENDMDL
MODEL 9
REMARK VINA RESULT:      -8.3      2.113      2.791
REMARK  Name = 
REMARK  7 active torsions:
REMARK  status: ('A' for Active; 'I' for Inactive)
REMARK    1  A    between atoms: C_1  and  O_2
REMARK    2  A    between atoms: O_2  and  C_3
REMARK    3  A    between atoms: C_10  and  N_11
REMARK    4  A    between atoms: C_18  and  N_19
REMARK    5  A    between atoms: N_19  and  C_20
REMARK    6  A    between atoms: C_20  and  C_21
REMARK    7  A    between atoms: C_22  and  C_23
REMARK                            x       y       z     vdW  Elec       q    Type
REMARK                         _______ _______ _______ _____ _____    ______ ____
ROOT
ATOM      1  N   UNL     1       2.618   6.795  18.601  0.00  0.00    +0.000 N 
ATOM      2  C   UNL     1       2.360   7.976  17.946  0.00  0.00    +0.000 A 
ATOM      3  C   UNL     1       1.741   8.804  18.847  0.00  0.00    +0.000 A 
ATOM      4  C   UNL     1       1.728   8.093  20.043  0.00  0.00    +0.000 A 
ATOM      5  N   UNL     1       2.174   6.844  19.891  0.00  0.00    +0.000 NA
ATOM      6  C   UNL     1       1.284   8.638  21.339  0.00  0.00    +0.000 C 
ATOM      7  C   UNL     1       0.758  10.082  21.278  0.00  0.00    +0.000 C 
ATOM      8  C   UNL     1       0.762  10.881  19.938  0.00  0.00    +0.000 C 
ATOM      9  C   UNL     1       1.228  10.159  18.651  0.00  0.00    +0.000 C 
ENDROOT
BRANCH   1  17
ATOM     10  C   UNL     1       6.434   6.603  16.812  0.00  0.00    +0.000 A 
ATOM     11  C   UNL     1       6.890   5.449  16.219  0.00  0.00    +0.000 A 
ATOM     12  C   UNL     1       6.062   4.331  16.265  0.00  0.00    +0.000 A 
ATOM     13  C   UNL     1       4.822   4.378  16.886  0.00  0.00    +0.000 A 
ATOM     14  N   UNL     1       4.095   3.246  16.958  0.00  0.00    +0.000 NA
ATOM     15  C   UNL     1       2.926   3.288  17.627  0.00  0.00    +0.000 A 
ATOM     16  C   UNL     1       2.433   4.429  18.212  0.00  0.00    +0.000 A 
ATOM     17  C   UNL     1       3.175   5.608  18.073  0.00  0.00    +0.000 A 
ATOM     18  C   UNL     1       4.417   5.616  17.427  0.00  0.00    +0.000 A 
ATOM     19  N   UNL     1       5.219   6.710  17.381  0.00  0.00    +0.000 NA
BRANCH  10  21
ATOM     20  C   UNL     1       7.933   7.855  18.075  0.00  0.00    +0.000 C 
ATOM     21  O   UNL     1       7.279   7.692  16.817  0.00  0.00    +0.000 OA
ENDBRANCH  10  21
ENDBRANCH   1  17
BRANCH   8  22
ATOM     22  N   UNL     1       1.466  12.167  20.148  0.00  0.00    +0.000 NA
ATOM     23  H   UNL     1       2.341  11.995  20.644  0.00  0.00    +0.000 HD
BRANCH  22  24
ATOM     24  C   UNL     1       1.759  12.875  18.900  0.00  0.00    +0.000 C 
BRANCH  24  25
ATOM     25  C   UNL     1       2.947  13.753  19.098  0.00  0.00    +0.000 C 
ATOM     26  C   UNL     1       3.722  14.197  18.095  0.00  0.00    +0.000 C 
BRANCH  26  27
ATOM     27  C   UNL     1       4.879  15.068  18.302  0.00  0.00    +0.000 A 
ATOM     28  C   UNL     1       6.152  14.716  17.842  0.00  0.00    +0.000 A 
ATOM     29  C   UNL     1       7.241  15.556  18.065  0.00  0.00    +0.000 A 
ATOM     30  C   UNL     1       7.065  16.763  18.731  0.00  0.00    +0.000 A 
ATOM     31  C   UNL     1       5.795  17.140  19.163  0.00  0.00    +0.000 A 
ATOM     32  C   UNL     1       4.702  16.299  18.944  0.00  0.00    +0.000 A 
ENDBRANCH  26  27
ENDBRANCH  24  25
ENDBRANCH  22  24
ENDBRANCH   8  22
TORSDOF 6
ENDMDL
