MODEL 1
REMARK VINA RESULT:      -8.7      0.000      0.000
REMARK  Name = 
REMARK  16 active torsions:
REMARK  status: ('A' for Active; 'I' for Inactive)
REMARK    1  A    between atoms: C_1  and  C_2
REMARK    2  A    between atoms: C_2  and  C_3
REMARK    3  A    between atoms: C_3  and  C_4
REMARK    4  A    between atoms: C_4  and  C_5
REMARK    5  A    between atoms: C_5  and  C_6
REMARK    6  A    between atoms: C_5  and  C_31
REMARK    7  A    between atoms: C_6  and  C_7
REMARK    8  A    between atoms: C_10  and  O_11
REMARK    9  A    between atoms: O_11  and  C_12
REMARK   10  A    between atoms: C_12  and  C_13
REMARK   11  A    between atoms: C_13  and  C_14
REMARK   12  A    between atoms: C_20  and  O_21
REMARK   13  A    between atoms: O_21  and  C_22
REMARK   14  A    between atoms: C_22  and  C_23
REMARK   15  A    between atoms: C_23  and  C_24
REMARK   16  A    between atoms: C_31  and  O_33
REMARK                            x       y       z     vdW  Elec       q    Type
REMARK                         _______ _______ _______ _____ _____    ______ ____
ROOT
ATOM      1  C   UNL     1       4.138   5.856  17.704  0.00  0.00    +0.000 A 
ATOM      2  C   UNL     1       4.143   7.147  17.203  0.00  0.00    +0.000 A 
ATOM      3  C   UNL     1       3.232   8.084  17.661  0.00  0.00    +0.000 A 
ATOM      4  C   UNL     1       2.370   7.819  18.736  0.00  0.00    +0.000 A 
ATOM      5  C   UNL     1       2.531   6.596  19.409  0.00  0.00    +0.000 A 
ATOM      6  C   UNL     1       3.351   5.597  18.830  0.00  0.00    +0.000 A 
ENDROOT
BRANCH   1   7
ATOM      7  C   UNL     1       4.917   4.766  17.014  0.00  0.00    +0.000 C 
BRANCH   7   8
ATOM      8  C   UNL     1       6.289   5.198  16.449  0.00  0.00    +0.000 C 
BRANCH   8   9
ATOM      9  C   UNL     1       7.343   5.279  17.545  0.00  0.00    +0.000 C 
ATOM     10  O   UNL     1       7.668   6.340  18.067  0.00  0.00    +0.000 OA
BRANCH   9  11
ATOM     11  O   UNL     1       7.916   4.120  17.905  0.00  0.00    +0.000 OA
ATOM     12  H   UNL     1       7.408   3.561  18.527  0.00  0.00    +0.000 HD
ENDBRANCH   9  11
ENDBRANCH   8   9
BRANCH   8  13
ATOM     13  C   UNL     1       6.851   4.442  15.227  0.00  0.00    +0.000 C 
BRANCH  13  14
ATOM     14  C   UNL     1       5.882   4.208  14.062  0.00  0.00    +0.000 C 
BRANCH  14  16
ATOM     15  C   UNL     1       5.629   2.975  11.909  0.00  0.00    +0.000 C 
ATOM     16  C   UNL     1       6.542   3.883  12.726  0.00  0.00    +0.000 C 
ENDBRANCH  14  16
ENDBRANCH  13  14
ENDBRANCH   8  13
ENDBRANCH   7   8
ENDBRANCH   1   7
BRANCH   4  17
ATOM     17  O   UNL     1       1.395   8.723  19.129  0.00  0.00    +0.000 OA
BRANCH  17  18
ATOM     18  C   UNL     1       1.312   9.865  18.257  0.00  0.00    +0.000 C 
BRANCH  18  19
ATOM     19  C   UNL     1       0.516  11.054  18.789  0.00  0.00    +0.000 C 
BRANCH  19  20
ATOM     20  C   UNL     1      -0.943  10.870  18.396  0.00  0.00    +0.000 A 
ATOM     21  C   UNL     1      -1.319   9.892  17.463  0.00  0.00    +0.000 A 
ATOM     22  C   UNL     1      -2.645   9.785  17.034  0.00  0.00    +0.000 A 
ATOM     23  C   UNL     1      -3.613  10.657  17.529  0.00  0.00    +0.000 A 
ATOM     24  C   UNL     1      -3.255  11.640  18.448  0.00  0.00    +0.000 A 
ATOM     25  C   UNL     1      -1.927  11.748  18.877  0.00  0.00    +0.000 A 
ENDBRANCH  19  20
ENDBRANCH  18  19
ENDBRANCH  17  18
ENDBRANCH   4  17
BRANCH   5  26
ATOM     26  O   UNL     1       1.911   6.409  20.630  0.00  0.00    +0.000 OA
BRANCH  26  27
ATOM     27  C   UNL     1       1.971   5.042  21.082  0.00  0.00    +0.000 C 
BRANCH  27  28
ATOM     28  C   UNL     1       0.911   4.171  20.425  0.00  0.00    +0.000 C 
BRANCH  28  29
ATOM     29  C   UNL     1       1.352   2.699  20.202  0.00  0.00    +0.000 C 
ATOM     30  C   UNL     1       1.104   2.200  18.764  0.00  0.00    +0.000 C 
ATOM     31  C   UNL     1       2.309   2.256  17.830  0.00  0.00    +0.000 C 
ATOM     32  C   UNL     1       3.519   1.592  18.464  0.00  0.00    +0.000 C 
ATOM     33  C   UNL     1       3.907   2.335  19.731  0.00  0.00    +0.000 C 
ATOM     34  C   UNL     1       2.766   2.389  20.747  0.00  0.00    +0.000 C 
ENDBRANCH  28  29
ENDBRANCH  27  28
ENDBRANCH  26  27
ENDBRANCH   5  26
TORSDOF 15
ENDMDL
MODEL 2
REMARK VINA RESULT:      -8.5      1.392      2.571
REMARK  Name = 
REMARK  16 active torsions:
REMARK  status: ('A' for Active; 'I' for Inactive)
REMARK    1  A    between atoms: C_1  and  C_2
REMARK    2  A    between atoms: C_2  and  C_3
REMARK    3  A    between atoms: C_3  and  C_4
REMARK    4  A    between atoms: C_4  and  C_5
REMARK    5  A    between atoms: C_5  and  C_6
REMARK    6  A    between atoms: C_5  and  C_31
REMARK    7  A    between atoms: C_6  and  C_7
REMARK    8  A    between atoms: C_10  and  O_11
REMARK    9  A    between atoms: O_11  and  C_12
REMARK   10  A    between atoms: C_12  and  C_13
REMARK   11  A    between atoms: C_13  and  C_14
REMARK   12  A    between atoms: C_20  and  O_21
REMARK   13  A    between atoms: O_21  and  C_22
REMARK   14  A    between atoms: C_22  and  C_23
REMARK   15  A    between atoms: C_23  and  C_24
REMARK   16  A    between atoms: C_31  and  O_33
REMARK                            x       y       z     vdW  Elec       q    Type
REMARK                         _______ _______ _______ _____ _____    ______ ____
ROOT
ATOM      1  C   UNL     1       3.945   5.988  17.572  0.00  0.00    +0.000 A 
ATOM      2  C   UNL     1       3.989   7.307  17.150  0.00  0.00    +0.000 A 
ATOM      3  C   UNL     1       3.126   8.247  17.686  0.00  0.00    +0.000 A 
ATOM      4  C   UNL     1       2.278   7.948  18.763  0.00  0.00    +0.000 A 
ATOM      5  C   UNL     1       2.407   6.681  19.357  0.00  0.00    +0.000 A 
ATOM      6  C   UNL     1       3.174   5.690  18.699  0.00  0.00    +0.000 A 
ENDROOT
BRANCH   1   7
ATOM      7  C   UNL     1       4.667   4.915  16.798  0.00  0.00    +0.000 C 
BRANCH   7   8
ATOM      8  C   UNL     1       6.160   5.198  16.520  0.00  0.00    +0.000 C 
BRANCH   8   9
ATOM      9  C   UNL     1       7.049   4.629  17.618  0.00  0.00    +0.000 C 
ATOM     10  O   UNL     1       6.745   4.686  18.805  0.00  0.00    +0.000 OA
BRANCH   9  11
ATOM     11  O   UNL     1       8.201   4.067  17.219  0.00  0.00    +0.000 OA
ATOM     12  H   UNL     1       8.556   3.356  17.789  0.00  0.00    +0.000 HD
ENDBRANCH   9  11
ENDBRANCH   8   9
BRANCH   8  13
ATOM     13  C   UNL     1       6.732   4.835  15.134  0.00  0.00    +0.000 C 
BRANCH  13  14
ATOM     14  C   UNL     1       5.844   3.968  14.233  0.00  0.00    +0.000 C 
BRANCH  14  16
ATOM     15  C   UNL     1       5.260   3.203  11.933  0.00  0.00    +0.000 C 
ATOM     16  C   UNL     1       6.373   3.746  12.821  0.00  0.00    +0.000 C 
ENDBRANCH  14  16
ENDBRANCH  13  14
ENDBRANCH   8  13
ENDBRANCH   7   8
ENDBRANCH   1   7
BRANCH   4  17
ATOM     17  O   UNL     1       1.347   8.862  19.235  0.00  0.00    +0.000 OA
BRANCH  17  18
ATOM     18  C   UNL     1       0.977   9.839  18.245  0.00  0.00    +0.000 C 
BRANCH  18  19
ATOM     19  C   UNL     1       0.289  11.095  18.772  0.00  0.00    +0.000 C 
BRANCH  19  20
ATOM     20  C   UNL     1       1.359  12.117  19.126  0.00  0.00    +0.000 A 
ATOM     21  C   UNL     1       1.477  12.611  20.434  0.00  0.00    +0.000 A 
ATOM     22  C   UNL     1       2.399  13.618  20.738  0.00  0.00    +0.000 A 
ATOM     23  C   UNL     1       3.212  14.147  19.738  0.00  0.00    +0.000 A 
ATOM     24  C   UNL     1       3.099  13.676  18.432  0.00  0.00    +0.000 A 
ATOM     25  C   UNL     1       2.177  12.668  18.127  0.00  0.00    +0.000 A 
ENDBRANCH  19  20
ENDBRANCH  18  19
ENDBRANCH  17  18
ENDBRANCH   4  17
BRANCH   5  26
ATOM     26  O   UNL     1       1.808   6.443  20.580  0.00  0.00    +0.000 OA
BRANCH  26  27
ATOM     27  C   UNL     1       1.977   5.083  21.027  0.00  0.00    +0.000 C 
BRANCH  27  28
ATOM     28  C   UNL     1       0.941   4.145  20.426  0.00  0.00    +0.000 C 
BRANCH  28  29
ATOM     29  C   UNL     1       1.449   2.693  20.219  0.00  0.00    +0.000 C 
ATOM     30  C   UNL     1       1.149   2.138  18.811  0.00  0.00    +0.000 C 
ATOM     31  C   UNL     1       2.297   2.230  17.809  0.00  0.00    +0.000 C 
ATOM     32  C   UNL     1       3.574   1.650  18.392  0.00  0.00    +0.000 C 
ATOM     33  C   UNL     1       3.990   2.451  19.614  0.00  0.00    +0.000 C 
ATOM     34  C   UNL     1       2.906   2.474  20.691  0.00  0.00    +0.000 C 
ENDBRANCH  28  29
ENDBRANCH  27  28
ENDBRANCH  26  27
ENDBRANCH   5  26
TORSDOF 15
ENDMDL
MODEL 3
REMARK VINA RESULT:      -8.4      1.142      1.960
REMARK  Name = 
REMARK  16 active torsions:
REMARK  status: ('A' for Active; 'I' for Inactive)
REMARK    1  A    between atoms: C_1  and  C_2
REMARK    2  A    between atoms: C_2  and  C_3
REMARK    3  A    between atoms: C_3  and  C_4
REMARK    4  A    between atoms: C_4  and  C_5
REMARK    5  A    between atoms: C_5  and  C_6
REMARK    6  A    between atoms: C_5  and  C_31
REMARK    7  A    between atoms: C_6  and  C_7
REMARK    8  A    between atoms: C_10  and  O_11
REMARK    9  A    between atoms: O_11  and  C_12
REMARK   10  A    between atoms: C_12  and  C_13
REMARK   11  A    between atoms: C_13  and  C_14
REMARK   12  A    between atoms: C_20  and  O_21
REMARK   13  A    between atoms: O_21  and  C_22
REMARK   14  A    between atoms: C_22  and  C_23
REMARK   15  A    between atoms: C_23  and  C_24
REMARK   16  A    between atoms: C_31  and  O_33
REMARK                            x       y       z     vdW  Elec       q    Type
REMARK                         _______ _______ _______ _____ _____    ______ ____
ROOT
ATOM      1  C   UNL     1       4.003   5.939  17.485  0.00  0.00    +0.000 A 
ATOM      2  C   UNL     1       4.063   7.259  17.069  0.00  0.00    +0.000 A 
ATOM      3  C   UNL     1       3.204   8.205  17.601  0.00  0.00    +0.000 A 
ATOM      4  C   UNL     1       2.345   7.910  18.671  0.00  0.00    +0.000 A 
ATOM      5  C   UNL     1       2.456   6.640  19.260  0.00  0.00    +0.000 A 
ATOM      6  C   UNL     1       3.220   5.644  18.605  0.00  0.00    +0.000 A 
ENDROOT
BRANCH   1   7
ATOM      7  C   UNL     1       4.721   4.862  16.713  0.00  0.00    +0.000 C 
BRANCH   7   8
ATOM      8  C   UNL     1       6.200   5.164  16.386  0.00  0.00    +0.000 C 
BRANCH   8   9
ATOM      9  C   UNL     1       7.139   4.515  17.395  0.00  0.00    +0.000 C 
ATOM     10  O   UNL     1       8.282   4.177  17.105  0.00  0.00    +0.000 OA
BRANCH   9  11
ATOM     11  O   UNL     1       6.644   4.318  18.626  0.00  0.00    +0.000 OA
ATOM     12  H   UNL     1       6.325   3.415  18.825  0.00  0.00    +0.000 HD
ENDBRANCH   9  11
ENDBRANCH   8   9
BRANCH   8  13
ATOM     13  C   UNL     1       6.703   4.905  14.951  0.00  0.00    +0.000 C 
BRANCH  13  14
ATOM     14  C   UNL     1       5.985   3.803  14.163  0.00  0.00    +0.000 C 
BRANCH  14  16
ATOM     15  C   UNL     1       5.146   3.236  11.884  0.00  0.00    +0.000 C 
ATOM     16  C   UNL     1       6.349   3.721  12.684  0.00  0.00    +0.000 C 
ENDBRANCH  14  16
ENDBRANCH  13  14
ENDBRANCH   8  13
ENDBRANCH   7   8
ENDBRANCH   1   7
BRANCH   4  17
ATOM     17  O   UNL     1       1.418   8.831  19.138  0.00  0.00    +0.000 OA
BRANCH  17  18
ATOM     18  C   UNL     1       0.933   9.705  18.102  0.00  0.00    +0.000 C 
BRANCH  18  19
ATOM     19  C   UNL     1      -0.379  10.425  18.398  0.00  0.00    +0.000 C 
BRANCH  19  20
ATOM     20  C   UNL     1      -0.056  11.805  18.952  0.00  0.00    +0.000 A 
ATOM     21  C   UNL     1      -0.578  12.962  18.352  0.00  0.00    +0.000 A 
ATOM     22  C   UNL     1      -0.207  14.231  18.804  0.00  0.00    +0.000 A 
ATOM     23  C   UNL     1       0.694  14.363  19.859  0.00  0.00    +0.000 A 
ATOM     24  C   UNL     1       1.230  13.226  20.458  0.00  0.00    +0.000 A 
ATOM     25  C   UNL     1       0.859  11.954  20.006  0.00  0.00    +0.000 A 
ENDBRANCH  19  20
ENDBRANCH  18  19
ENDBRANCH  17  18
ENDBRANCH   4  17
BRANCH   5  26
ATOM     26  O   UNL     1       1.844   6.402  20.477  0.00  0.00    +0.000 OA
BRANCH  26  27
ATOM     27  C   UNL     1       2.046   5.055  20.948  0.00  0.00    +0.000 C 
BRANCH  27  28
ATOM     28  C   UNL     1       0.899   4.132  20.563  0.00  0.00    +0.000 C 
BRANCH  28  29
ATOM     29  C   UNL     1       1.339   2.679  20.240  0.00  0.00    +0.000 C 
ATOM     30  C   UNL     1       1.071   2.273  18.777  0.00  0.00    +0.000 C 
ATOM     31  C   UNL     1       2.264   2.391  17.832  0.00  0.00    +0.000 C 
ATOM     32  C   UNL     1       3.483   1.691  18.406  0.00  0.00    +0.000 C 
ATOM     33  C   UNL     1       3.887   2.351  19.712  0.00  0.00    +0.000 C 
ATOM     34  C   UNL     1       2.761   2.337  20.745  0.00  0.00    +0.000 C 
ENDBRANCH  28  29
ENDBRANCH  27  28
ENDBRANCH  26  27
ENDBRANCH   5  26
TORSDOF 15
ENDMDL
MODEL 4
REMARK VINA RESULT:      -8.4      1.516      2.631
REMARK  Name = 
REMARK  16 active torsions:
REMARK  status: ('A' for Active; 'I' for Inactive)
REMARK    1  A    between atoms: C_1  and  C_2
REMARK    2  A    between atoms: C_2  and  C_3
REMARK    3  A    between atoms: C_3  and  C_4
REMARK    4  A    between atoms: C_4  and  C_5
REMARK    5  A    between atoms: C_5  and  C_6
REMARK    6  A    between atoms: C_5  and  C_31
REMARK    7  A    between atoms: C_6  and  C_7
REMARK    8  A    between atoms: C_10  and  O_11
REMARK    9  A    between atoms: O_11  and  C_12
REMARK   10  A    between atoms: C_12  and  C_13
REMARK   11  A    between atoms: C_13  and  C_14
REMARK   12  A    between atoms: C_20  and  O_21
REMARK   13  A    between atoms: O_21  and  C_22
REMARK   14  A    between atoms: C_22  and  C_23
REMARK   15  A    between atoms: C_23  and  C_24
REMARK   16  A    between atoms: C_31  and  O_33
REMARK                            x       y       z     vdW  Elec       q    Type
REMARK                         _______ _______ _______ _____ _____    ______ ____
ROOT
ATOM      1  C   UNL     1       3.869   6.790  17.591  0.00  0.00    +0.000 A 
ATOM      2  C   UNL     1       3.603   8.115  17.292  0.00  0.00    +0.000 A 
ATOM      3  C   UNL     1       2.598   8.800  17.953  0.00  0.00    +0.000 A 
ATOM      4  C   UNL     1       1.907   8.238  19.037  0.00  0.00    +0.000 A 
ATOM      5  C   UNL     1       2.340   6.986  19.504  0.00  0.00    +0.000 A 
ATOM      6  C   UNL     1       3.255   6.241  18.721  0.00  0.00    +0.000 A 
ENDROOT
BRANCH   1   7
ATOM      7  C   UNL     1       4.749   5.964  16.688  0.00  0.00    +0.000 C 
BRANCH   7   8
ATOM      8  C   UNL     1       5.928   5.255  17.390  0.00  0.00    +0.000 C 
BRANCH   8   9
ATOM      9  C   UNL     1       6.675   4.335  16.434  0.00  0.00    +0.000 C 
ATOM     10  O   UNL     1       7.867   4.479  16.182  0.00  0.00    +0.000 OA
BRANCH   9  11
ATOM     11  O   UNL     1       5.955   3.356  15.866  0.00  0.00    +0.000 OA
ATOM     12  H   UNL     1       6.182   2.442  16.130  0.00  0.00    +0.000 HD
ENDBRANCH   9  11
ENDBRANCH   8   9
BRANCH   8  13
ATOM     13  C   UNL     1       6.929   6.113  18.191  0.00  0.00    +0.000 C 
BRANCH  13  14
ATOM     14  C   UNL     1       7.355   7.441  17.555  0.00  0.00    +0.000 C 
BRANCH  14  16
ATOM     15  C   UNL     1       8.340   9.703  17.918  0.00  0.00    +0.000 C 
ATOM     16  C   UNL     1       8.382   8.242  18.349  0.00  0.00    +0.000 C 
ENDBRANCH  14  16
ENDBRANCH  13  14
ENDBRANCH   8  13
ENDBRANCH   7   8
ENDBRANCH   1   7
BRANCH   4  17
ATOM     17  O   UNL     1       0.836   8.887  19.635  0.00  0.00    +0.000 OA
BRANCH  17  18
ATOM     18  C   UNL     1       0.235   9.874  18.776  0.00  0.00    +0.000 C 
BRANCH  18  19
ATOM     19  C   UNL     1      -1.047  10.518  19.296  0.00  0.00    +0.000 C 
BRANCH  19  20
ATOM     20  C   UNL     1      -2.057  10.565  18.159  0.00  0.00    +0.000 A 
ATOM     21  C   UNL     1      -1.837   9.850  16.971  0.00  0.00    +0.000 A 
ATOM     22  C   UNL     1      -2.718   9.968  15.892  0.00  0.00    +0.000 A 
ATOM     23  C   UNL     1      -3.829  10.803  15.983  0.00  0.00    +0.000 A 
ATOM     24  C   UNL     1      -4.056  11.527  17.151  0.00  0.00    +0.000 A 
ATOM     25  C   UNL     1      -3.175  11.411  18.231  0.00  0.00    +0.000 A 
ENDBRANCH  19  20
ENDBRANCH  18  19
ENDBRANCH  17  18
ENDBRANCH   4  17
BRANCH   5  26
ATOM     26  O   UNL     1       1.888   6.526  20.726  0.00  0.00    +0.000 OA
BRANCH  26  27
ATOM     27  C   UNL     1       1.306   5.209  20.645  0.00  0.00    +0.000 C 
BRANCH  27  28
ATOM     28  C   UNL     1       2.126   4.171  21.397  0.00  0.00    +0.000 C 
BRANCH  28  29
ATOM     29  C   UNL     1       2.211   2.795  20.682  0.00  0.00    +0.000 C 
ATOM     30  C   UNL     1       1.152   2.618  19.574  0.00  0.00    +0.000 C 
ATOM     31  C   UNL     1       1.629   2.909  18.154  0.00  0.00    +0.000 C 
ATOM     32  C   UNL     1       2.909   2.152  17.847  0.00  0.00    +0.000 C 
ATOM     33  C   UNL     1       4.013   2.608  18.785  0.00  0.00    +0.000 C 
ATOM     34  C   UNL     1       3.647   2.409  20.256  0.00  0.00    +0.000 C 
ENDBRANCH  28  29
ENDBRANCH  27  28
ENDBRANCH  26  27
ENDBRANCH   5  26
TORSDOF 15
ENDMDL
MODEL 5
REMARK VINA RESULT:      -8.0      2.344      3.738
REMARK  Name = 
REMARK  16 active torsions:
REMARK  status: ('A' for Active; 'I' for Inactive)
REMARK    1  A    between atoms: C_1  and  C_2
REMARK    2  A    between atoms: C_2  and  C_3
REMARK    3  A    between atoms: C_3  and  C_4
REMARK    4  A    between atoms: C_4  and  C_5
REMARK    5  A    between atoms: C_5  and  C_6
REMARK    6  A    between atoms: C_5  and  C_31
REMARK    7  A    between atoms: C_6  and  C_7
REMARK    8  A    between atoms: C_10  and  O_11
REMARK    9  A    between atoms: O_11  and  C_12
REMARK   10  A    between atoms: C_12  and  C_13
REMARK   11  A    between atoms: C_13  and  C_14
REMARK   12  A    between atoms: C_20  and  O_21
REMARK   13  A    between atoms: O_21  and  C_22
REMARK   14  A    between atoms: C_22  and  C_23
REMARK   15  A    between atoms: C_23  and  C_24
REMARK   16  A    between atoms: C_31  and  O_33
REMARK                            x       y       z     vdW  Elec       q    Type
REMARK                         _______ _______ _______ _____ _____    ______ ____
ROOT
ATOM      1  C   UNL     1       5.573   4.530  15.237  0.00  0.00    +0.000 A 
ATOM      2  C   UNL     1       5.369   5.814  14.760  0.00  0.00    +0.000 A 
ATOM      3  C   UNL     1       4.921   6.816  15.604  0.00  0.00    +0.000 A 
ATOM      4  C   UNL     1       4.793   6.619  16.987  0.00  0.00    +0.000 A 
ATOM      5  C   UNL     1       5.234   5.392  17.512  0.00  0.00    +0.000 A 
ATOM      6  C   UNL     1       5.535   4.334  16.620  0.00  0.00    +0.000 A 
ENDROOT
BRANCH   1   7
ATOM      7  C   UNL     1       5.774   3.383  14.279  0.00  0.00    +0.000 C 
BRANCH   7   8
ATOM      8  C   UNL     1       5.701   3.758  12.782  0.00  0.00    +0.000 C 
BRANCH   8   9
ATOM      9  C   UNL     1       7.091   3.883  12.171  0.00  0.00    +0.000 C 
ATOM     10  O   UNL     1       7.741   4.922  12.225  0.00  0.00    +0.000 OA
BRANCH   9  11
ATOM     11  O   UNL     1       7.568   2.793  11.552  0.00  0.00    +0.000 OA
ATOM     12  H   UNL     1       7.795   2.896  10.607  0.00  0.00    +0.000 HD
ENDBRANCH   9  11
ENDBRANCH   8   9
BRANCH   8  13
ATOM     13  C   UNL     1       4.789   2.924  11.859  0.00  0.00    +0.000 C 
BRANCH  13  14
ATOM     14  C   UNL     1       3.526   3.618  11.337  0.00  0.00    +0.000 C 
BRANCH  14  16
ATOM     15  C   UNL     1       2.701   4.582   9.190  0.00  0.00    +0.000 C 
ATOM     16  C   UNL     1       3.168   3.309   9.887  0.00  0.00    +0.000 C 
ENDBRANCH  14  16
ENDBRANCH  13  14
ENDBRANCH   8  13
ENDBRANCH   7   8
ENDBRANCH   1   7
BRANCH   4  17
ATOM     17  O   UNL     1       4.253   7.592  17.816  0.00  0.00    +0.000 OA
BRANCH  17  18
ATOM     18  C   UNL     1       2.824   7.706  17.683  0.00  0.00    +0.000 C 
BRANCH  18  19
ATOM     19  C   UNL     1       2.260   9.122  17.739  0.00  0.00    +0.000 C 
BRANCH  19  20
ATOM     20  C   UNL     1       1.418   9.255  19.000  0.00  0.00    +0.000 A 
ATOM     21  C   UNL     1       1.621   8.399  20.094  0.00  0.00    +0.000 A 
ATOM     22  C   UNL     1       0.787   8.461  21.214  0.00  0.00    +0.000 A 
ATOM     23  C   UNL     1      -0.264   9.375  21.255  0.00  0.00    +0.000 A 
ATOM     24  C   UNL     1      -0.486  10.223  20.173  0.00  0.00    +0.000 A 
ATOM     25  C   UNL     1       0.348  10.162  19.051  0.00  0.00    +0.000 A 
ENDBRANCH  19  20
ENDBRANCH  18  19
ENDBRANCH  17  18
ENDBRANCH   4  17
BRANCH   5  26
ATOM     26  O   UNL     1       5.391   5.258  18.878  0.00  0.00    +0.000 OA
BRANCH  26  27
ATOM     27  C   UNL     1       4.386   4.414  19.474  0.00  0.00    +0.000 C 
BRANCH  27  28
ATOM     28  C   UNL     1       3.268   5.218  20.121  0.00  0.00    +0.000 C 
BRANCH  28  29
ATOM     29  C   UNL     1       1.845   4.805  19.660  0.00  0.00    +0.000 C 
ATOM     30  C   UNL     1       1.788   4.361  18.184  0.00  0.00    +0.000 C 
ATOM     31  C   UNL     1       1.840   2.854  17.948  0.00  0.00    +0.000 C 
ATOM     32  C   UNL     1       0.810   2.135  18.802  0.00  0.00    +0.000 C 
ATOM     33  C   UNL     1       1.114   2.362  20.273  0.00  0.00    +0.000 C 
ATOM     34  C   UNL     1       1.132   3.845  20.641  0.00  0.00    +0.000 C 
ENDBRANCH  28  29
ENDBRANCH  27  28
ENDBRANCH  26  27
ENDBRANCH   5  26
TORSDOF 15
ENDMDL
MODEL 6
REMARK VINA RESULT:      -8.0      1.661      2.753
REMARK  Name = 
REMARK  16 active torsions:
REMARK  status: ('A' for Active; 'I' for Inactive)
REMARK    1  A    between atoms: C_1  and  C_2
REMARK    2  A    between atoms: C_2  and  C_3
REMARK    3  A    between atoms: C_3  and  C_4
REMARK    4  A    between atoms: C_4  and  C_5
REMARK    5  A    between atoms: C_5  and  C_6
REMARK    6  A    between atoms: C_5  and  C_31
REMARK    7  A    between atoms: C_6  and  C_7
REMARK    8  A    between atoms: C_10  and  O_11
REMARK    9  A    between atoms: O_11  and  C_12
REMARK   10  A    between atoms: C_12  and  C_13
REMARK   11  A    between atoms: C_13  and  C_14
REMARK   12  A    between atoms: C_20  and  O_21
REMARK   13  A    between atoms: O_21  and  C_22
REMARK   14  A    between atoms: C_22  and  C_23
REMARK   15  A    between atoms: C_23  and  C_24
REMARK   16  A    between atoms: C_31  and  O_33
REMARK                            x       y       z     vdW  Elec       q    Type
REMARK                         _______ _______ _______ _____ _____    ______ ____
ROOT
ATOM      1  C   UNL     1       4.333   5.853  17.774  0.00  0.00    +0.000 A 
ATOM      2  C   UNL     1       4.330   7.096  17.164  0.00  0.00    +0.000 A 
ATOM      3  C   UNL     1       3.346   8.024  17.459  0.00  0.00    +0.000 A 
ATOM      4  C   UNL     1       2.403   7.809  18.476  0.00  0.00    +0.000 A 
ATOM      5  C   UNL     1       2.553   6.656  19.265  0.00  0.00    +0.000 A 
ATOM      6  C   UNL     1       3.460   5.652  18.848  0.00  0.00    +0.000 A 
ENDROOT
BRANCH   1   7
ATOM      7  C   UNL     1       5.213   4.747  17.251  0.00  0.00    +0.000 C 
BRANCH   7   8
ATOM      8  C   UNL     1       5.738   4.952  15.813  0.00  0.00    +0.000 C 
BRANCH   8   9
ATOM      9  C   UNL     1       7.261   4.950  15.768  0.00  0.00    +0.000 C 
ATOM     10  O   UNL     1       7.940   4.314  16.569  0.00  0.00    +0.000 OA
BRANCH   9  11
ATOM     11  O   UNL     1       7.829   5.695  14.808  0.00  0.00    +0.000 OA
ATOM     12  H   UNL     1       8.092   5.223  13.993  0.00  0.00    +0.000 HD
ENDBRANCH   9  11
ENDBRANCH   8   9
BRANCH   8  13
ATOM     13  C   UNL     1       5.174   4.057  14.690  0.00  0.00    +0.000 C 
BRANCH  13  14
ATOM     14  C   UNL     1       6.108   3.771  13.509  0.00  0.00    +0.000 C 
BRANCH  14  16
ATOM     15  C   UNL     1       5.871   2.162  11.618  0.00  0.00    +0.000 C 
ATOM     16  C   UNL     1       5.410   3.501  12.180  0.00  0.00    +0.000 C 
ENDBRANCH  14  16
ENDBRANCH  13  14
ENDBRANCH   8  13
ENDBRANCH   7   8
ENDBRANCH   1   7
BRANCH   4  17
ATOM     17  O   UNL     1       1.361   8.695  18.704  0.00  0.00    +0.000 OA
BRANCH  17  18
ATOM     18  C   UNL     1       1.666  10.035  18.273  0.00  0.00    +0.000 C 
BRANCH  18  19
ATOM     19  C   UNL     1       0.801  11.141  18.871  0.00  0.00    +0.000 C 
BRANCH  19  20
ATOM     20  C   UNL     1       1.679  12.359  19.117  0.00  0.00    +0.000 A 
ATOM     21  C   UNL     1       2.505  12.867  18.102  0.00  0.00    +0.000 A 
ATOM     22  C   UNL     1       3.380  13.927  18.356  0.00  0.00    +0.000 A 
ATOM     23  C   UNL     1       3.444  14.492  19.628  0.00  0.00    +0.000 A 
ATOM     24  C   UNL     1       2.639  13.992  20.649  0.00  0.00    +0.000 A 
ATOM     25  C   UNL     1       1.764  12.930  20.396  0.00  0.00    +0.000 A 
ENDBRANCH  19  20
ENDBRANCH  18  19
ENDBRANCH  17  18
ENDBRANCH   4  17
BRANCH   5  26
ATOM     26  O   UNL     1       1.835   6.543  20.441  0.00  0.00    +0.000 OA
BRANCH  26  27
ATOM     27  C   UNL     1       1.867   5.210  20.987  0.00  0.00    +0.000 C 
BRANCH  27  28
ATOM     28  C   UNL     1       0.818   4.304  20.359  0.00  0.00    +0.000 C 
BRANCH  28  29
ATOM     29  C   UNL     1       1.264   2.824  20.219  0.00  0.00    +0.000 C 
ATOM     30  C   UNL     1       1.067   2.261  18.796  0.00  0.00    +0.000 C 
ATOM     31  C   UNL     1       2.306   2.274  17.906  0.00  0.00    +0.000 C 
ATOM     32  C   UNL     1       3.490   1.639  18.614  0.00  0.00    +0.000 C 
ATOM     33  C   UNL     1       3.833   2.437  19.859  0.00  0.00    +0.000 C 
ATOM     34  C   UNL     1       2.656   2.537  20.829  0.00  0.00    +0.000 C 
ENDBRANCH  28  29
ENDBRANCH  27  28
ENDBRANCH  26  27
ENDBRANCH   5  26
TORSDOF 15
ENDMDL
MODEL 7
REMARK VINA RESULT:      -7.7      3.802      6.454
REMARK  Name = 
REMARK  16 active torsions:
REMARK  status: ('A' for Active; 'I' for Inactive)
REMARK    1  A    between atoms: C_1  and  C_2
REMARK    2  A    between atoms: C_2  and  C_3
REMARK    3  A    between atoms: C_3  and  C_4
REMARK    4  A    between atoms: C_4  and  C_5
REMARK    5  A    between atoms: C_5  and  C_6
REMARK    6  A    between atoms: C_5  and  C_31
REMARK    7  A    between atoms: C_6  and  C_7
REMARK    8  A    between atoms: C_10  and  O_11
REMARK    9  A    between atoms: O_11  and  C_12
REMARK   10  A    between atoms: C_12  and  C_13
REMARK   11  A    between atoms: C_13  and  C_14
REMARK   12  A    between atoms: C_20  and  O_21
REMARK   13  A    between atoms: O_21  and  C_22
REMARK   14  A    between atoms: C_22  and  C_23
REMARK   15  A    between atoms: C_23  and  C_24
REMARK   16  A    between atoms: C_31  and  O_33
REMARK                            x       y       z     vdW  Elec       q    Type
REMARK                         _______ _______ _______ _____ _____    ______ ____
ROOT
ATOM      1  C   UNL     1       6.023   4.230  15.197  0.00  0.00    +0.000 A 
ATOM      2  C   UNL     1       7.268   4.675  15.609  0.00  0.00    +0.000 A 
ATOM      3  C   UNL     1       7.388   5.815  16.385  0.00  0.00    +0.000 A 
ATOM      4  C   UNL     1       6.267   6.482  16.902  0.00  0.00    +0.000 A 
ATOM      5  C   UNL     1       5.008   5.893  16.693  0.00  0.00    +0.000 A 
ATOM      6  C   UNL     1       4.896   4.825  15.770  0.00  0.00    +0.000 A 
ENDROOT
BRANCH   1   7
ATOM      7  C   UNL     1       5.904   3.176  14.125  0.00  0.00    +0.000 C 
BRANCH   7   8
ATOM      8  C   UNL     1       5.754   3.719  12.686  0.00  0.00    +0.000 C 
BRANCH   8   9
ATOM      9  C   UNL     1       7.103   3.833  11.989  0.00  0.00    +0.000 C 
ATOM     10  O   UNL     1       7.575   2.920  11.318  0.00  0.00    +0.000 OA
BRANCH   9  11
ATOM     11  O   UNL     1       7.764   4.988  12.158  0.00  0.00    +0.000 OA
ATOM     12  H   UNL     1       7.217   5.774  12.358  0.00  0.00    +0.000 HD
ENDBRANCH   9  11
ENDBRANCH   8   9
BRANCH   8  13
ATOM     13  C   UNL     1       4.729   3.045  11.750  0.00  0.00    +0.000 C 
BRANCH  13  14
ATOM     14  C   UNL     1       3.664   3.957  11.132  0.00  0.00    +0.000 C 
BRANCH  14  16
ATOM     15  C   UNL     1       2.517   4.709   9.048  0.00  0.00    +0.000 C 
ATOM     16  C   UNL     1       3.153   3.522   9.763  0.00  0.00    +0.000 C 
ENDBRANCH  14  16
ENDBRANCH  13  14
ENDBRANCH   8  13
ENDBRANCH   7   8
ENDBRANCH   1   7
BRANCH   4  17
ATOM     17  O   UNL     1       6.385   7.676  17.598  0.00  0.00    +0.000 OA
BRANCH  17  18
ATOM     18  C   UNL     1       7.669   8.302  17.413  0.00  0.00    +0.000 C 
BRANCH  18  19
ATOM     19  C   UNL     1       8.529   8.442  18.665  0.00  0.00    +0.000 C 
BRANCH  19  20
ATOM     20  C   UNL     1       8.950   9.898  18.800  0.00  0.00    +0.000 A 
ATOM     21  C   UNL     1       9.387  10.410  20.031  0.00  0.00    +0.000 A 
ATOM     22  C   UNL     1       9.684  11.768  20.176  0.00  0.00    +0.000 A 
ATOM     23  C   UNL     1       9.545  12.635  19.094  0.00  0.00    +0.000 A 
ATOM     24  C   UNL     1       9.101  12.145  17.868  0.00  0.00    +0.000 A 
ATOM     25  C   UNL     1       8.803  10.786  17.722  0.00  0.00    +0.000 A 
ENDBRANCH  19  20
ENDBRANCH  18  19
ENDBRANCH  17  18
ENDBRANCH   4  17
BRANCH   5  26
ATOM     26  O   UNL     1       3.920   6.350  17.412  0.00  0.00    +0.000 OA
BRANCH  26  27
ATOM     27  C   UNL     1       3.413   5.369  18.338  0.00  0.00    +0.000 C 
BRANCH  27  28
ATOM     28  C   UNL     1       1.989   4.948  18.010  0.00  0.00    +0.000 C 
BRANCH  28  29
ATOM     29  C   UNL     1       1.447   3.800  18.904  0.00  0.00    +0.000 C 
ATOM     30  C   UNL     1       2.318   2.528  18.856  0.00  0.00    +0.000 C 
ATOM     31  C   UNL     1       3.319   2.373  19.998  0.00  0.00    +0.000 C 
ATOM     32  C   UNL     1       2.638   2.549  21.344  0.00  0.00    +0.000 C 
ATOM     33  C   UNL     1       2.063   3.951  21.449  0.00  0.00    +0.000 C 
ATOM     34  C   UNL     1       1.065   4.256  20.332  0.00  0.00    +0.000 C 
ENDBRANCH  28  29
ENDBRANCH  27  28
ENDBRANCH  26  27
ENDBRANCH   5  26
TORSDOF 15
ENDMDL
MODEL 8
REMARK VINA RESULT:      -7.6      1.719      2.484
REMARK  Name = 
REMARK  16 active torsions:
REMARK  status: ('A' for Active; 'I' for Inactive)
REMARK    1  A    between atoms: C_1  and  C_2
REMARK    2  A    between atoms: C_2  and  C_3
REMARK    3  A    between atoms: C_3  and  C_4
REMARK    4  A    between atoms: C_4  and  C_5
REMARK    5  A    between atoms: C_5  and  C_6
REMARK    6  A    between atoms: C_5  and  C_31
REMARK    7  A    between atoms: C_6  and  C_7
REMARK    8  A    between atoms: C_10  and  O_11
REMARK    9  A    between atoms: O_11  and  C_12
REMARK   10  A    between atoms: C_12  and  C_13
REMARK   11  A    between atoms: C_13  and  C_14
REMARK   12  A    between atoms: C_20  and  O_21
REMARK   13  A    between atoms: O_21  and  C_22
REMARK   14  A    between atoms: C_22  and  C_23
REMARK   15  A    between atoms: C_23  and  C_24
REMARK   16  A    between atoms: C_31  and  O_33
REMARK                            x       y       z     vdW  Elec       q    Type
REMARK                         _______ _______ _______ _____ _____    ______ ____
ROOT
ATOM      1  C   UNL     1       3.865   6.178  17.545  0.00  0.00    +0.000 A 
ATOM      2  C   UNL     1       3.843   7.521  17.207  0.00  0.00    +0.000 A 
ATOM      3  C   UNL     1       2.942   8.385  17.807  0.00  0.00    +0.000 A 
ATOM      4  C   UNL     1       2.119   7.978  18.868  0.00  0.00    +0.000 A 
ATOM      5  C   UNL     1       2.312   6.684  19.380  0.00  0.00    +0.000 A 
ATOM      6  C   UNL     1       3.119   5.773  18.656  0.00  0.00    +0.000 A 
ENDROOT
BRANCH   1   7
ATOM      7  C   UNL     1       4.628   5.190  16.700  0.00  0.00    +0.000 C 
BRANCH   7   8
ATOM      8  C   UNL     1       5.747   5.801  15.827  0.00  0.00    +0.000 C 
BRANCH   8   9
ATOM      9  C   UNL     1       7.106   5.694  16.507  0.00  0.00    +0.000 C 
ATOM     10  O   UNL     1       7.599   4.616  16.823  0.00  0.00    +0.000 OA
BRANCH   9  11
ATOM     11  O   UNL     1       7.738   6.851  16.757  0.00  0.00    +0.000 OA
ATOM     12  H   UNL     1       7.188   7.659  16.735  0.00  0.00    +0.000 HD
ENDBRANCH   9  11
ENDBRANCH   8   9
BRANCH   8  13
ATOM     13  C   UNL     1       5.855   5.357  14.354  0.00  0.00    +0.000 C 
BRANCH  13  14
ATOM     14  C   UNL     1       5.891   3.846  14.096  0.00  0.00    +0.000 C 
BRANCH  14  16
ATOM     15  C   UNL     1       4.758   3.374  11.925  0.00  0.00    +0.000 C 
ATOM     16  C   UNL     1       6.102   3.441  12.641  0.00  0.00    +0.000 C 
ENDBRANCH  14  16
ENDBRANCH  13  14
ENDBRANCH   8  13
ENDBRANCH   7   8
ENDBRANCH   1   7
BRANCH   4  17
ATOM     17  O   UNL     1       1.151   8.816  19.403  0.00  0.00    +0.000 OA
BRANCH  17  18
ATOM     18  C   UNL     1       1.208  10.149  18.861  0.00  0.00    +0.000 C 
BRANCH  18  19
ATOM     19  C   UNL     1       0.681  11.259  19.765  0.00  0.00    +0.000 C 
BRANCH  19  20
ATOM     20  C   UNL     1       1.158  12.595  19.213  0.00  0.00    +0.000 A 
ATOM     21  C   UNL     1       2.462  12.744  18.715  0.00  0.00    +0.000 A 
ATOM     22  C   UNL     1       2.929  13.993  18.295  0.00  0.00    +0.000 A 
ATOM     23  C   UNL     1       2.100  15.111  18.370  0.00  0.00    +0.000 A 
ATOM     24  C   UNL     1       0.807  14.982  18.871  0.00  0.00    +0.000 A 
ATOM     25  C   UNL     1       0.339  13.733  19.293  0.00  0.00    +0.000 A 
ENDBRANCH  19  20
ENDBRANCH  18  19
ENDBRANCH  17  18
ENDBRANCH   4  17
BRANCH   5  26
ATOM     26  O   UNL     1       1.735   6.341  20.588  0.00  0.00    +0.000 OA
BRANCH  26  27
ATOM     27  C   UNL     1       1.271   4.977  20.617  0.00  0.00    +0.000 C 
BRANCH  27  28
ATOM     28  C   UNL     1       2.190   4.073  21.426  0.00  0.00    +0.000 C 
BRANCH  28  29
ATOM     29  C   UNL     1       2.365   2.652  20.826  0.00  0.00    +0.000 C 
ATOM     30  C   UNL     1       1.363   2.340  19.695  0.00  0.00    +0.000 C 
ATOM     31  C   UNL     1       1.889   2.542  18.277  0.00  0.00    +0.000 C 
ATOM     32  C   UNL     1       3.213   1.824  18.081  0.00  0.00    +0.000 C 
ATOM     33  C   UNL     1       4.254   2.402  19.024  0.00  0.00    +0.000 C 
ATOM     34  C   UNL     1       3.833   2.300  20.490  0.00  0.00    +0.000 C 
ENDBRANCH  28  29
ENDBRANCH  27  28
ENDBRANCH  26  27
ENDBRANCH   5  26
TORSDOF 15
ENDMDL
MODEL 9
REMARK VINA RESULT:      -7.6      1.590      2.254
REMARK  Name = 
REMARK  16 active torsions:
REMARK  status: ('A' for Active; 'I' for Inactive)
REMARK    1  A    between atoms: C_1  and  C_2
REMARK    2  A    between atoms: C_2  and  C_3
REMARK    3  A    between atoms: C_3  and  C_4
REMARK    4  A    between atoms: C_4  and  C_5
REMARK    5  A    between atoms: C_5  and  C_6
REMARK    6  A    between atoms: C_5  and  C_31
REMARK    7  A    between atoms: C_6  and  C_7
REMARK    8  A    between atoms: C_10  and  O_11
REMARK    9  A    between atoms: O_11  and  C_12
REMARK   10  A    between atoms: C_12  and  C_13
REMARK   11  A    between atoms: C_13  and  C_14
REMARK   12  A    between atoms: C_20  and  O_21
REMARK   13  A    between atoms: O_21  and  C_22
REMARK   14  A    between atoms: C_22  and  C_23
REMARK   15  A    between atoms: C_23  and  C_24
REMARK   16  A    between atoms: C_31  and  O_33
REMARK                            x       y       z     vdW  Elec       q    Type
REMARK                         _______ _______ _______ _____ _____    ______ ____
ROOT
ATOM      1  C   UNL     1       4.013   6.176  17.462  0.00  0.00    +0.000 A 
ATOM      2  C   UNL     1       4.020   7.499  17.054  0.00  0.00    +0.000 A 
ATOM      3  C   UNL     1       3.110   8.403  17.577  0.00  0.00    +0.000 A 
ATOM      4  C   UNL     1       2.247   8.062  18.630  0.00  0.00    +0.000 A 
ATOM      5  C   UNL     1       2.406   6.794  19.214  0.00  0.00    +0.000 A 
ATOM      6  C   UNL     1       3.225   5.838  18.566  0.00  0.00    +0.000 A 
ENDROOT
BRANCH   1   7
ATOM      7  C   UNL     1       4.791   5.137  16.696  0.00  0.00    +0.000 C 
BRANCH   7   8
ATOM      8  C   UNL     1       6.284   5.468  16.474  0.00  0.00    +0.000 C 
BRANCH   8   9
ATOM      9  C   UNL     1       7.011   5.681  17.796  0.00  0.00    +0.000 C 
ATOM     10  O   UNL     1       7.540   6.748  18.090  0.00  0.00    +0.000 OA
BRANCH   9  11
ATOM     11  O   UNL     1       7.055   4.629  18.627  0.00  0.00    +0.000 OA
ATOM     12  H   UNL     1       7.667   4.702  19.386  0.00  0.00    +0.000 HD
ENDBRANCH   9  11
ENDBRANCH   8   9
BRANCH   8  13
ATOM     13  C   UNL     1       7.113   4.545  15.557  0.00  0.00    +0.000 C 
BRANCH  13  14
ATOM     14  C   UNL     1       6.325   3.658  14.586  0.00  0.00    +0.000 C 
BRANCH  14  16
ATOM     15  C   UNL     1       5.466   3.193  12.291  0.00  0.00    +0.000 C 
ATOM     16  C   UNL     1       6.344   4.114  13.131  0.00  0.00    +0.000 C 
ENDBRANCH  14  16
ENDBRANCH  13  14
ENDBRANCH   8  13
ENDBRANCH   7   8
ENDBRANCH   1   7
BRANCH   4  17
ATOM     17  O   UNL     1       1.272   8.937  19.087  0.00  0.00    +0.000 OA
BRANCH  17  18
ATOM     18  C   UNL     1       1.479  10.286  18.630  0.00  0.00    +0.000 C 
BRANCH  18  19
ATOM     19  C   UNL     1       0.768  11.376  19.427  0.00  0.00    +0.000 C 
BRANCH  19  20
ATOM     20  C   UNL     1       0.324  10.786  20.758  0.00  0.00    +0.000 A 
ATOM     21  C   UNL     1      -0.882  11.185  21.355  0.00  0.00    +0.000 A 
ATOM     22  C   UNL     1      -1.244  10.713  22.620  0.00  0.00    +0.000 A 
ATOM     23  C   UNL     1      -0.404   9.839  23.307  0.00  0.00    +0.000 A 
ATOM     24  C   UNL     1       0.802   9.443  22.734  0.00  0.00    +0.000 A 
ATOM     25  C   UNL     1       1.165   9.915  21.468  0.00  0.00    +0.000 A 
ENDBRANCH  19  20
ENDBRANCH  18  19
ENDBRANCH  17  18
ENDBRANCH   4  17
BRANCH   5  26
ATOM     26  O   UNL     1       1.785   6.521  20.418  0.00  0.00    +0.000 OA
BRANCH  26  27
ATOM     27  C   UNL     1       2.049   5.185  20.891  0.00  0.00    +0.000 C 
BRANCH  27  28
ATOM     28  C   UNL     1       0.945   4.210  20.508  0.00  0.00    +0.000 C 
BRANCH  28  29
ATOM     29  C   UNL     1       1.439   2.757  20.275  0.00  0.00    +0.000 C 
ATOM     30  C   UNL     1       1.142   2.233  18.855  0.00  0.00    +0.000 C 
ATOM     31  C   UNL     1       2.296   2.332  17.862  0.00  0.00    +0.000 C 
ATOM     32  C   UNL     1       3.563   1.727  18.441  0.00  0.00    +0.000 C 
ATOM     33  C   UNL     1       3.981   2.499  19.681  0.00  0.00    +0.000 C 
ATOM     34  C   UNL     1       2.890   2.514  20.752  0.00  0.00    +0.000 C 
ENDBRANCH  28  29
ENDBRANCH  27  28
ENDBRANCH  26  27
ENDBRANCH   5  26
TORSDOF 15
ENDMDL
