MODEL 1
REMARK VINA RESULT:      -7.2      0.000      0.000
REMARK  Name = 
REMARK  4 active torsions:
REMARK  status: ('A' for Active; 'I' for Inactive)
REMARK    1  A    between atoms: N_1  and  C_2
REMARK    2  A    between atoms: N_10  and  C_11
REMARK    3  A    between atoms: C_14  and  O_15
REMARK    4  A    between atoms: C_16  and  O_17
REMARK                            x       y       z     vdW  Elec       q    Type
REMARK                         _______ _______ _______ _____ _____    ______ ____
ROOT
ATOM      1  C   UNL     1       7.059   5.630  17.037  0.00  0.00    +0.000 A 
ATOM      2  N   UNL     1       7.703   6.036  18.154  0.00  0.00    +0.000 NA
ATOM      3  C   UNL     1       7.226   5.625  19.351  0.00  0.00    +0.000 A 
ATOM      4  N   UNL     1       6.156   4.839  19.609  0.00  0.00    +0.000 NA
ATOM      5  C   UNL     1       5.544   4.482  18.468  0.00  0.00    +0.000 A 
ATOM      6  C   UNL     1       5.905   4.838  17.180  0.00  0.00    +0.000 A 
ATOM      7  N   UNL     1       5.029   4.308  16.259  0.00  0.00    +0.000 NA
ATOM      8  C   UNL     1       4.171   3.615  16.972  0.00  0.00    +0.000 A 
ATOM      9  N   UNL     1       4.450   3.670  18.315  0.00  0.00    +0.000 N 
ENDROOT
BRANCH   9  10
ATOM     10  C   UNL     1       3.772   2.964  19.391  0.00  0.00    +0.000 C 
ATOM     11  C   UNL     1       2.954   1.794  18.892  0.00  0.00    +0.000 C 
ATOM     12  C   UNL     1       1.641   2.062  18.915  0.00  0.00    +0.000 C 
ATOM     13  C   UNL     1       1.371   3.441  19.423  0.00  0.00    +0.000 C 
ATOM     14  C   UNL     1       2.701   3.802  20.126  0.00  0.00    +0.000 C 
BRANCH  13  15
ATOM     15  O   UNL     1       0.273   3.397  20.314  0.00  0.00    +0.000 OA
ATOM     16  H   UNL     1      -0.220   4.231  20.188  0.00  0.00    +0.000 HD
ENDBRANCH  13  15
BRANCH  14  17
ATOM     17  O   UNL     1       2.612   3.419  21.520  0.00  0.00    +0.000 OA
ATOM     18  H   UNL     1       3.195   4.013  22.031  0.00  0.00    +0.000 HD
ENDBRANCH  14  17
ENDBRANCH   9  10
BRANCH   1  19
ATOM     19  N   UNL     1       7.571   6.003  15.801  0.00  0.00    +0.000 N 
ATOM     20  H   UNL     1       6.875   6.387  15.178  0.00  0.00    +0.000 HD
ATOM     21  H   UNL     1       8.261   5.364  15.424  0.00  0.00    +0.000 HD
ENDBRANCH   1  19
TORSDOF 4
ENDMDL
MODEL 2
REMARK VINA RESULT:      -7.1      1.291      2.355
REMARK  Name = 
REMARK  4 active torsions:
REMARK  status: ('A' for Active; 'I' for Inactive)
REMARK    1  A    between atoms: N_1  and  C_2
REMARK    2  A    between atoms: N_10  and  C_11
REMARK    3  A    between atoms: C_14  and  O_15
REMARK    4  A    between atoms: C_16  and  O_17
REMARK                            x       y       z     vdW  Elec       q    Type
REMARK                         _______ _______ _______ _____ _____    ______ ____
ROOT
ATOM      1  C   UNL     1       7.295   6.199  17.657  0.00  0.00    +0.000 A 
ATOM      2  N   UNL     1       7.409   6.130  16.312  0.00  0.00    +0.000 NA
ATOM      3  C   UNL     1       6.564   5.314  15.640  0.00  0.00    +0.000 A 
ATOM      4  N   UNL     1       5.586   4.523  16.133  0.00  0.00    +0.000 NA
ATOM      5  C   UNL     1       5.530   4.614  17.472  0.00  0.00    +0.000 A 
ATOM      6  C   UNL     1       6.335   5.388  18.290  0.00  0.00    +0.000 A 
ATOM      7  N   UNL     1       6.007   5.209  19.616  0.00  0.00    +0.000 NA
ATOM      8  C   UNL     1       4.999   4.367  19.601  0.00  0.00    +0.000 A 
ATOM      9  N   UNL     1       4.656   3.992  18.326  0.00  0.00    +0.000 N 
ENDROOT
BRANCH   9  10
ATOM     10  C   UNL     1       3.545   3.145  17.920  0.00  0.00    +0.000 C 
ATOM     11  C   UNL     1       2.451   3.919  17.222  0.00  0.00    +0.000 C 
ATOM     12  C   UNL     1       1.380   4.087  18.011  0.00  0.00    +0.000 C 
ATOM     13  C   UNL     1       1.586   3.462  19.353  0.00  0.00    +0.000 C 
ATOM     14  C   UNL     1       2.772   2.503  19.095  0.00  0.00    +0.000 C 
BRANCH  13  15
ATOM     15  O   UNL     1       0.403   2.784  19.732  0.00  0.00    +0.000 OA
ATOM     16  H   UNL     1       0.094   3.207  20.556  0.00  0.00    +0.000 HD
ENDBRANCH  13  15
BRANCH  14  17
ATOM     17  O   UNL     1       2.251   1.204  18.723  0.00  0.00    +0.000 OA
ATOM     18  H   UNL     1       2.985   0.686  18.340  0.00  0.00    +0.000 HD
ENDBRANCH  14  17
ENDBRANCH   9  10
BRANCH   1  19
ATOM     19  N   UNL     1       8.122   7.072  18.351  0.00  0.00    +0.000 N 
ATOM     20  H   UNL     1       7.751   7.350  19.248  0.00  0.00    +0.000 HD
ATOM     21  H   UNL     1       8.569   7.774  17.772  0.00  0.00    +0.000 HD
ENDBRANCH   1  19
TORSDOF 4
ENDMDL
MODEL 3
REMARK VINA RESULT:      -6.9      1.152      1.155
REMARK  Name = 
REMARK  4 active torsions:
REMARK  status: ('A' for Active; 'I' for Inactive)
REMARK    1  A    between atoms: N_1  and  C_2
REMARK    2  A    between atoms: N_10  and  C_11
REMARK    3  A    between atoms: C_14  and  O_15
REMARK    4  A    between atoms: C_16  and  O_17
REMARK                            x       y       z     vdW  Elec       q    Type
REMARK                         _______ _______ _______ _____ _____    ______ ____
ROOT
ATOM      1  C   UNL     1       7.230   6.797  17.795  0.00  0.00    +0.000 A 
ATOM      2  N   UNL     1       8.034   6.492  18.838  0.00  0.00    +0.000 NA
ATOM      3  C   UNL     1       7.631   5.523  19.693  0.00  0.00    +0.000 A 
ATOM      4  N   UNL     1       6.497   4.789  19.661  0.00  0.00    +0.000 NA
ATOM      5  C   UNL     1       5.728   5.146  18.620  0.00  0.00    +0.000 A 
ATOM      6  C   UNL     1       6.000   6.125  17.679  0.00  0.00    +0.000 A 
ATOM      7  N   UNL     1       4.970   6.234  16.771  0.00  0.00    +0.000 NA
ATOM      8  C   UNL     1       4.104   5.316  17.134  0.00  0.00    +0.000 A 
ATOM      9  N   UNL     1       4.525   4.614  18.237  0.00  0.00    +0.000 N 
ENDROOT
BRANCH   9  10
ATOM     10  C   UNL     1       3.871   3.477  18.866  0.00  0.00    +0.000 C 
ATOM     11  C   UNL     1       2.888   2.791  17.945  0.00  0.00    +0.000 C 
ATOM     12  C   UNL     1       1.620   3.065  18.279  0.00  0.00    +0.000 C 
ATOM     13  C   UNL     1       1.550   3.976  19.462  0.00  0.00    +0.000 C 
ATOM     14  C   UNL     1       2.968   3.847  20.066  0.00  0.00    +0.000 C 
BRANCH  13  15
ATOM     15  O   UNL     1       0.537   3.517  20.338  0.00  0.00    +0.000 OA
ATOM     16  H   UNL     1       0.772   3.841  21.228  0.00  0.00    +0.000 HD
ENDBRANCH  13  15
BRANCH  14  17
ATOM     17  O   UNL     1       2.962   2.787  21.053  0.00  0.00    +0.000 OA
ATOM     18  H   UNL     1       2.098   2.808  21.509  0.00  0.00    +0.000 HD
ENDBRANCH  14  17
ENDBRANCH   9  10
BRANCH   1  19
ATOM     19  N   UNL     1       7.658   7.753  16.883  0.00  0.00    +0.000 N 
ATOM     20  H   UNL     1       7.622   8.696  17.243  0.00  0.00    +0.000 HD
ATOM     21  H   UNL     1       7.358   7.585  15.929  0.00  0.00    +0.000 HD
ENDBRANCH   1  19
TORSDOF 4
ENDMDL
MODEL 4
REMARK VINA RESULT:      -6.8      3.252      5.636
REMARK  Name = 
REMARK  4 active torsions:
REMARK  status: ('A' for Active; 'I' for Inactive)
REMARK    1  A    between atoms: N_1  and  C_2
REMARK    2  A    between atoms: N_10  and  C_11
REMARK    3  A    between atoms: C_14  and  O_15
REMARK    4  A    between atoms: C_16  and  O_17
REMARK                            x       y       z     vdW  Elec       q    Type
REMARK                         _______ _______ _______ _____ _____    ______ ____
ROOT
ATOM      1  C   UNL     1       2.164   3.685  20.170  0.00  0.00    +0.000 A 
ATOM      2  N   UNL     1       2.679   2.512  20.603  0.00  0.00    +0.000 NA
ATOM      3  C   UNL     1       3.986   2.260  20.361  0.00  0.00    +0.000 A 
ATOM      4  N   UNL     1       4.890   3.035  19.722  0.00  0.00    +0.000 NA
ATOM      5  C   UNL     1       4.323   4.176  19.297  0.00  0.00    +0.000 A 
ATOM      6  C   UNL     1       3.002   4.560  19.455  0.00  0.00    +0.000 A 
ATOM      7  N   UNL     1       2.772   5.783  18.866  0.00  0.00    +0.000 NA
ATOM      8  C   UNL     1       3.939   6.151  18.388  0.00  0.00    +0.000 A 
ATOM      9  N   UNL     1       4.918   5.222  18.641  0.00  0.00    +0.000 N 
ENDROOT
BRANCH   9  10
ATOM     10  C   UNL     1       6.336   5.325  18.337  0.00  0.00    +0.000 C 
ATOM     11  C   UNL     1       6.748   6.728  17.956  0.00  0.00    +0.000 C 
ATOM     12  C   UNL     1       6.970   6.839  16.639  0.00  0.00    +0.000 C 
ATOM     13  C   UNL     1       6.741   5.542  15.933  0.00  0.00    +0.000 C 
ATOM     14  C   UNL     1       6.781   4.520  17.094  0.00  0.00    +0.000 C 
BRANCH  13  15
ATOM     15  O   UNL     1       7.777   5.342  14.989  0.00  0.00    +0.000 OA
ATOM     16  H   UNL     1       7.368   5.434  14.107  0.00  0.00    +0.000 HD
ENDBRANCH  13  15
BRANCH  14  17
ATOM     17  O   UNL     1       8.139   4.039  17.248  0.00  0.00    +0.000 OA
ATOM     18  H   UNL     1       8.095   3.112  17.549  0.00  0.00    +0.000 HD
ENDBRANCH  14  17
ENDBRANCH   9  10
BRANCH   1  19
ATOM     19  N   UNL     1       0.838   3.976  20.458  0.00  0.00    +0.000 N 
ATOM     20  H   UNL     1       0.654   4.076  21.446  0.00  0.00    +0.000 HD
ATOM     21  H   UNL     1       0.166   3.475  19.888  0.00  0.00    +0.000 HD
ENDBRANCH   1  19
TORSDOF 4
ENDMDL
MODEL 5
REMARK VINA RESULT:      -6.8      3.505      5.663
REMARK  Name = 
REMARK  4 active torsions:
REMARK  status: ('A' for Active; 'I' for Inactive)
REMARK    1  A    between atoms: N_1  and  C_2
REMARK    2  A    between atoms: N_10  and  C_11
REMARK    3  A    between atoms: C_14  and  O_15
REMARK    4  A    between atoms: C_16  and  O_17
REMARK                            x       y       z     vdW  Elec       q    Type
REMARK                         _______ _______ _______ _____ _____    ______ ____
ROOT
ATOM      1  C   UNL     1       2.584   3.957  20.618  0.00  0.00    +0.000 A 
ATOM      2  N   UNL     1       1.741   5.007  20.738  0.00  0.00    +0.000 NA
ATOM      3  C   UNL     1       2.039   6.145  20.069  0.00  0.00    +0.000 A 
ATOM      4  N   UNL     1       3.097   6.400  19.269  0.00  0.00    +0.000 NA
ATOM      5  C   UNL     1       3.911   5.333  19.201  0.00  0.00    +0.000 A 
ATOM      6  C   UNL     1       3.746   4.117  19.841  0.00  0.00    +0.000 A 
ATOM      7  N   UNL     1       4.793   3.267  19.560  0.00  0.00    +0.000 NA
ATOM      8  C   UNL     1       5.563   3.944  18.739  0.00  0.00    +0.000 A 
ATOM      9  N   UNL     1       5.063   5.194  18.471  0.00  0.00    +0.000 N 
ENDROOT
BRANCH   9  10
ATOM     10  C   UNL     1       5.597   6.183  17.549  0.00  0.00    +0.000 C 
ATOM     11  C   UNL     1       4.823   6.244  16.252  0.00  0.00    +0.000 C 
ATOM     12  C   UNL     1       5.499   5.674  15.244  0.00  0.00    +0.000 C 
ATOM     13  C   UNL     1       6.818   5.141  15.701  0.00  0.00    +0.000 C 
ATOM     14  C   UNL     1       7.026   5.877  17.045  0.00  0.00    +0.000 C 
BRANCH  13  15
ATOM     15  O   UNL     1       7.804   5.464  14.739  0.00  0.00    +0.000 OA
ATOM     16  H   UNL     1       7.956   4.654  14.215  0.00  0.00    +0.000 HD
ENDBRANCH  13  15
BRANCH  14  17
ATOM     17  O   UNL     1       7.761   7.101  16.800  0.00  0.00    +0.000 OA
ATOM     18  H   UNL     1       7.850   7.572  17.650  0.00  0.00    +0.000 HD
ENDBRANCH  14  17
ENDBRANCH   9  10
BRANCH   1  19
ATOM     19  N   UNL     1       2.261   2.768  21.259  0.00  0.00    +0.000 N 
ATOM     20  H   UNL     1       2.048   2.015  20.623  0.00  0.00    +0.000 HD
ATOM     21  H   UNL     1       1.688   2.882  22.088  0.00  0.00    +0.000 HD
ENDBRANCH   1  19
TORSDOF 4
ENDMDL
MODEL 6
REMARK VINA RESULT:      -6.7      3.373      5.608
REMARK  Name = 
REMARK  4 active torsions:
REMARK  status: ('A' for Active; 'I' for Inactive)
REMARK    1  A    between atoms: N_1  and  C_2
REMARK    2  A    between atoms: N_10  and  C_11
REMARK    3  A    between atoms: C_14  and  O_15
REMARK    4  A    between atoms: C_16  and  O_17
REMARK                            x       y       z     vdW  Elec       q    Type
REMARK                         _______ _______ _______ _____ _____    ______ ____
ROOT
ATOM      1  C   UNL     1       2.175   3.558  20.091  0.00  0.00    +0.000 A 
ATOM      2  N   UNL     1       2.794   2.571  20.777  0.00  0.00    +0.000 NA
ATOM      3  C   UNL     1       4.090   2.309  20.491  0.00  0.00    +0.000 A 
ATOM      4  N   UNL     1       4.891   2.910  19.583  0.00  0.00    +0.000 NA
ATOM      5  C   UNL     1       4.223   3.866  18.918  0.00  0.00    +0.000 A 
ATOM      6  C   UNL     1       2.898   4.231  19.089  0.00  0.00    +0.000 A 
ATOM      7  N   UNL     1       2.546   5.234  18.213  0.00  0.00    +0.000 NA
ATOM      8  C   UNL     1       3.647   5.497  17.545  0.00  0.00    +0.000 A 
ATOM      9  N   UNL     1       4.698   4.711  17.948  0.00  0.00    +0.000 N 
ENDROOT
BRANCH   9  10
ATOM     10  C   UNL     1       6.078   4.777  17.496  0.00  0.00    +0.000 C 
ATOM     11  C   UNL     1       7.048   5.035  18.626  0.00  0.00    +0.000 C 
ATOM     12  C   UNL     1       7.508   6.294  18.608  0.00  0.00    +0.000 C 
ATOM     13  C   UNL     1       6.922   7.075  17.476  0.00  0.00    +0.000 C 
ATOM     14  C   UNL     1       6.381   5.961  16.549  0.00  0.00    +0.000 C 
BRANCH  13  15
ATOM     15  O   UNL     1       7.942   7.846  16.871  0.00  0.00    +0.000 OA
ATOM     16  H   UNL     1       7.974   7.576  15.932  0.00  0.00    +0.000 HD
ENDBRANCH  13  15
BRANCH  14  17
ATOM     17  O   UNL     1       7.410   5.608  15.592  0.00  0.00    +0.000 OA
ATOM     18  H   UNL     1       7.634   6.411  15.084  0.00  0.00    +0.000 HD
ENDBRANCH  14  17
ENDBRANCH   9  10
BRANCH   1  19
ATOM     19  N   UNL     1       0.861   3.869  20.413  0.00  0.00    +0.000 N 
ATOM     20  H   UNL     1       0.395   4.422  19.708  0.00  0.00    +0.000 HD
ATOM     21  H   UNL     1       0.713   4.102  21.389  0.00  0.00    +0.000 HD
ENDBRANCH   1  19
TORSDOF 4
ENDMDL
MODEL 7
REMARK VINA RESULT:      -6.7      3.344      5.587
REMARK  Name = 
REMARK  4 active torsions:
REMARK  status: ('A' for Active; 'I' for Inactive)
REMARK    1  A    between atoms: N_1  and  C_2
REMARK    2  A    between atoms: N_10  and  C_11
REMARK    3  A    between atoms: C_14  and  O_15
REMARK    4  A    between atoms: C_16  and  O_17
REMARK                            x       y       z     vdW  Elec       q    Type
REMARK                         _______ _______ _______ _____ _____    ______ ____
ROOT
ATOM      1  C   UNL     1       1.281   3.533  19.651  0.00  0.00    +0.000 A 
ATOM      2  N   UNL     1       1.083   4.562  20.505  0.00  0.00    +0.000 NA
ATOM      3  C   UNL     1       1.993   5.563  20.521  0.00  0.00    +0.000 A 
ATOM      4  N   UNL     1       3.118   5.692  19.784  0.00  0.00    +0.000 NA
ATOM      5  C   UNL     1       3.277   4.636  18.969  0.00  0.00    +0.000 A 
ATOM      6  C   UNL     1       2.442   3.536  18.857  0.00  0.00    +0.000 A 
ATOM      7  N   UNL     1       2.935   2.637  17.938  0.00  0.00    +0.000 NA
ATOM      8  C   UNL     1       4.031   3.195  17.477  0.00  0.00    +0.000 A 
ATOM      9  N   UNL     1       4.272   4.418  18.053  0.00  0.00    +0.000 N 
ENDROOT
BRANCH   9  10
ATOM     10  C   UNL     1       5.338   5.354  17.732  0.00  0.00    +0.000 C 
ATOM     11  C   UNL     1       4.903   6.410  16.741  0.00  0.00    +0.000 C 
ATOM     12  C   UNL     1       5.414   6.186  15.522  0.00  0.00    +0.000 C 
ATOM     13  C   UNL     1       6.261   4.955  15.500  0.00  0.00    +0.000 C 
ATOM     14  C   UNL     1       6.544   4.719  17.002  0.00  0.00    +0.000 C 
BRANCH  13  15
ATOM     15  O   UNL     1       7.434   5.215  14.754  0.00  0.00    +0.000 OA
ATOM     16  H   UNL     1       7.559   6.184  14.763  0.00  0.00    +0.000 HD
ENDBRANCH  13  15
BRANCH  14  17
ATOM     17  O   UNL     1       7.776   5.393  17.357  0.00  0.00    +0.000 OA
ATOM     18  H   UNL     1       7.939   5.237  18.307  0.00  0.00    +0.000 HD
ENDBRANCH  14  17
ENDBRANCH   9  10
BRANCH   1  19
ATOM     19  N   UNL     1       0.327   2.526  19.589  0.00  0.00    +0.000 N 
ATOM     20  H   UNL     1      -0.620   2.866  19.675  0.00  0.00    +0.000 HD
ATOM     21  H   UNL     1       0.584   1.675  20.077  0.00  0.00    +0.000 HD
ENDBRANCH   1  19
TORSDOF 4
ENDMDL
MODEL 8
REMARK VINA RESULT:      -6.7      1.230      1.335
REMARK  Name = 
REMARK  4 active torsions:
REMARK  status: ('A' for Active; 'I' for Inactive)
REMARK    1  A    between atoms: N_1  and  C_2
REMARK    2  A    between atoms: N_10  and  C_11
REMARK    3  A    between atoms: C_14  and  O_15
REMARK    4  A    between atoms: C_16  and  O_17
REMARK                            x       y       z     vdW  Elec       q    Type
REMARK                         _______ _______ _______ _____ _____    ______ ____
ROOT
ATOM      1  C   UNL     1       6.753   4.431  15.828  0.00  0.00    +0.000 A 
ATOM      2  N   UNL     1       7.872   4.573  16.573  0.00  0.00    +0.000 NA
ATOM      3  C   UNL     1       7.744   4.595  17.920  0.00  0.00    +0.000 A 
ATOM      4  N   UNL     1       6.619   4.495  18.662  0.00  0.00    +0.000 NA
ATOM      5  C   UNL     1       5.538   4.375  17.873  0.00  0.00    +0.000 A 
ATOM      6  C   UNL     1       5.514   4.356  16.488  0.00  0.00    +0.000 A 
ATOM      7  N   UNL     1       4.223   4.247  16.021  0.00  0.00    +0.000 NA
ATOM      8  C   UNL     1       3.480   4.169  17.101  0.00  0.00    +0.000 A 
ATOM      9  N   UNL     1       4.230   4.220  18.250  0.00  0.00    +0.000 N 
ENDROOT
BRANCH   9  10
ATOM     10  C   UNL     1       3.762   4.079  19.620  0.00  0.00    +0.000 C 
ATOM     11  C   UNL     1       3.498   2.639  19.997  0.00  0.00    +0.000 C 
ATOM     12  C   UNL     1       2.185   2.374  20.053  0.00  0.00    +0.000 C 
ATOM     13  C   UNL     1       1.368   3.580  19.720  0.00  0.00    +0.000 C 
ATOM     14  C   UNL     1       2.387   4.730  19.893  0.00  0.00    +0.000 C 
BRANCH  13  15
ATOM     15  O   UNL     1       0.283   3.665  20.624  0.00  0.00    +0.000 OA
ATOM     16  H   UNL     1       0.445   4.454  21.177  0.00  0.00    +0.000 HD
ENDBRANCH  13  15
BRANCH  14  17
ATOM     17  O   UNL     1       2.309   5.223  21.253  0.00  0.00    +0.000 OA
ATOM     18  H   UNL     1       1.379   5.459  21.433  0.00  0.00    +0.000 HD
ENDBRANCH  14  17
ENDBRANCH   9  10
BRANCH   1  19
ATOM     19  N   UNL     1       6.879   4.355  14.447  0.00  0.00    +0.000 N 
ATOM     20  H   UNL     1       7.705   4.816  14.094  0.00  0.00    +0.000 HD
ATOM     21  H   UNL     1       6.008   4.465  13.941  0.00  0.00    +0.000 HD
ENDBRANCH   1  19
TORSDOF 4
ENDMDL
MODEL 9
REMARK VINA RESULT:      -6.7      1.372      1.528
REMARK  Name = 
REMARK  4 active torsions:
REMARK  status: ('A' for Active; 'I' for Inactive)
REMARK    1  A    between atoms: N_1  and  C_2
REMARK    2  A    between atoms: N_10  and  C_11
REMARK    3  A    between atoms: C_14  and  O_15
REMARK    4  A    between atoms: C_16  and  O_17
REMARK                            x       y       z     vdW  Elec       q    Type
REMARK                         _______ _______ _______ _____ _____    ______ ____
ROOT
ATOM      1  C   UNL     1       7.088   6.750  17.784  0.00  0.00    +0.000 A 
ATOM      2  N   UNL     1       7.988   6.405  18.732  0.00  0.00    +0.000 NA
ATOM      3  C   UNL     1       7.602   5.534  19.692  0.00  0.00    +0.000 A 
ATOM      4  N   UNL     1       6.402   4.935  19.855  0.00  0.00    +0.000 NA
ATOM      5  C   UNL     1       5.542   5.328  18.900  0.00  0.00    +0.000 A 
ATOM      6  C   UNL     1       5.788   6.220  17.871  0.00  0.00    +0.000 A 
ATOM      7  N   UNL     1       4.663   6.403  17.098  0.00  0.00    +0.000 NA
ATOM      8  C   UNL     1       3.759   5.611  17.629  0.00  0.00    +0.000 A 
ATOM      9  N   UNL     1       4.247   4.920  18.711  0.00  0.00    +0.000 N 
ENDROOT
BRANCH   9  10
ATOM     10  C   UNL     1       3.565   3.900  19.491  0.00  0.00    +0.000 C 
ATOM     11  C   UNL     1       4.043   2.504  19.165  0.00  0.00    +0.000 C 
ATOM     12  C   UNL     1       3.145   1.830  18.431  0.00  0.00    +0.000 C 
ATOM     13  C   UNL     1       1.936   2.662  18.148  0.00  0.00    +0.000 C 
ATOM     14  C   UNL     1       2.050   3.786  19.204  0.00  0.00    +0.000 C 
BRANCH  13  15
ATOM     15  O   UNL     1       0.778   1.865  18.317  0.00  0.00    +0.000 OA
ATOM     16  H   UNL     1       0.110   2.212  17.695  0.00  0.00    +0.000 HD
ENDBRANCH  13  15
BRANCH  14  17
ATOM     17  O   UNL     1       1.327   3.386  20.393  0.00  0.00    +0.000 OA
ATOM     18  H   UNL     1       0.373   3.497  20.215  0.00  0.00    +0.000 HD
ENDBRANCH  14  17
ENDBRANCH   9  10
BRANCH   1  19
ATOM     19  N   UNL     1       7.490   7.603  16.764  0.00  0.00    +0.000 N 
ATOM     20  H   UNL     1       7.930   7.125  15.992  0.00  0.00    +0.000 HD
ATOM     21  H   UNL     1       7.887   8.479  17.084  0.00  0.00    +0.000 HD
ENDBRANCH   1  19
TORSDOF 4
ENDMDL
