MODEL 1
REMARK VINA RESULT:      -6.9      0.000      0.000
REMARK  Name = 
REMARK  12 active torsions:
REMARK  status: ('A' for Active; 'I' for Inactive)
REMARK    1  A    between atoms: C_1  and  C_2
REMARK    2  A    between atoms: C_2  and  C_3
REMARK    3  A    between atoms: C_4  and  C_5
REMARK    4  A    between atoms: C_5  and  C_6
REMARK    5  A    between atoms: C_10  and  C_11
REMARK    6  A    between atoms: C_16  and  O_17
REMARK    7  A    between atoms: C_19  and  O_20
REMARK    8  A    between atoms: C_21  and  C_22
REMARK    9  A    between atoms: C_22  and  C_23
REMARK   10  A    between atoms: C_24  and  C_25
REMARK   11  A    between atoms: C_24  and  C_26
REMARK   12  A    between atoms: C_29  and  O_30
REMARK                            x       y       z     vdW  Elec       q    Type
REMARK                         _______ _______ _______ _____ _____    ______ ____
ROOT
ATOM      1  C   UNL     1       0.239  11.623  18.409  0.00  0.00    +0.000 C 
ATOM      2  C   UNL     1       1.361  10.760  17.837  0.00  0.00    +0.000 C 
ATOM      3  C   UNL     1       1.543   9.520  18.662  0.00  0.00    +0.000 C 
ATOM      4  O   UNL     1       2.080   8.503  18.213  0.00  0.00    +0.000 OA
ATOM      5  C   UNL     1       1.078   9.551  20.057  0.00  0.00    +0.000 A 
ATOM      6  C   UNL     1       1.105   8.394  20.845  0.00  0.00    +0.000 A 
ATOM      7  C   UNL     1       0.610   8.423  22.143  0.00  0.00    +0.000 A 
ATOM      8  C   UNL     1       0.105   9.618  22.660  0.00  0.00    +0.000 A 
ATOM      9  C   UNL     1       0.065  10.802  21.899  0.00  0.00    +0.000 A 
ATOM     10  C   UNL     1       0.558  10.748  20.579  0.00  0.00    +0.000 A 
ATOM     11  O   UNL     1       0.473  11.889  19.811  0.00  0.00    +0.000 OA
ENDROOT
BRANCH   1  16
ATOM     12  C   UNL     1      -3.626  11.524  18.537  0.00  0.00    +0.000 A 
ATOM     13  C   UNL     1      -3.889  10.366  17.796  0.00  0.00    +0.000 A 
ATOM     14  C   UNL     1      -2.846   9.629  17.250  0.00  0.00    +0.000 A 
ATOM     15  C   UNL     1      -1.525  10.035  17.447  0.00  0.00    +0.000 A 
ATOM     16  C   UNL     1      -1.213  11.190  18.185  0.00  0.00    +0.000 A 
ATOM     17  C   UNL     1      -2.293  11.941  18.696  0.00  0.00    +0.000 A 
BRANCH  17  18
ATOM     18  O   UNL     1      -2.096  13.119  19.368  0.00  0.00    +0.000 OA
ATOM     19  H   UNL     1      -2.323  13.859  18.778  0.00  0.00    +0.000 HD
ENDBRANCH  17  18
BRANCH  12  20
ATOM     20  C   UNL     1      -4.784  12.281  19.148  0.00  0.00    +0.000 C 
BRANCH  20  24
ATOM     21  C   UNL     1      -7.914  10.676  20.844  0.00  0.00    +0.000 C 
ATOM     22  C   UNL     1      -7.053  11.675  20.124  0.00  0.00    +0.000 C 
ATOM     23  C   UNL     1      -7.674  12.994  19.763  0.00  0.00    +0.000 C 
ATOM     24  C   UNL     1      -5.770  11.377  19.835  0.00  0.00    +0.000 C 
ENDBRANCH  20  24
ENDBRANCH  12  20
ENDBRANCH   1  16
BRANCH   6  25
ATOM     25  O   UNL     1       1.557   7.183  20.393  0.00  0.00    +0.000 OA
ATOM     26  H   UNL     1       2.539   7.227  20.323  0.00  0.00    +0.000 HD
ENDBRANCH   6  25
BRANCH   8  27
ATOM     27  O   UNL     1      -0.418   9.631  23.924  0.00  0.00    +0.000 OA
ATOM     28  H   UNL     1      -1.274   9.169  23.918  0.00  0.00    +0.000 HD
ENDBRANCH   8  27
BRANCH   9  29
ATOM     29  C   UNL     1      -0.620  12.036  22.463  0.00  0.00    +0.000 C 
BRANCH  29  30
ATOM     30  C   UNL     1      -2.120  11.975  22.583  0.00  0.00    +0.000 C 
ATOM     31  C   UNL     1      -2.947  12.973  22.964  0.00  0.00    +0.000 C 
ATOM     32  C   UNL     1      -2.516  14.340  23.434  0.00  0.00    +0.000 C 
ATOM     33  C   UNL     1      -4.442  12.783  22.885  0.00  0.00    +0.000 C 
ENDBRANCH  29  30
ENDBRANCH   9  29
TORSDOF 8
ENDMDL
MODEL 2
REMARK VINA RESULT:      -6.9      2.516      7.473
REMARK  Name = 
REMARK  12 active torsions:
REMARK  status: ('A' for Active; 'I' for Inactive)
REMARK    1  A    between atoms: C_1  and  C_2
REMARK    2  A    between atoms: C_2  and  C_3
REMARK    3  A    between atoms: C_4  and  C_5
REMARK    4  A    between atoms: C_5  and  C_6
REMARK    5  A    between atoms: C_10  and  C_11
REMARK    6  A    between atoms: C_16  and  O_17
REMARK    7  A    between atoms: C_19  and  O_20
REMARK    8  A    between atoms: C_21  and  C_22
REMARK    9  A    between atoms: C_22  and  C_23
REMARK   10  A    between atoms: C_24  and  C_25
REMARK   11  A    between atoms: C_24  and  C_26
REMARK   12  A    between atoms: C_29  and  O_30
REMARK                            x       y       z     vdW  Elec       q    Type
REMARK                         _______ _______ _______ _____ _____    ______ ____
ROOT
ATOM      1  C   UNL     1      -3.981  14.255  21.223  0.00  0.00    +0.000 C 
ATOM      2  C   UNL     1      -4.901  14.813  22.307  0.00  0.00    +0.000 C 
ATOM      3  C   UNL     1      -6.000  13.839  22.616  0.00  0.00    +0.000 C 
ATOM      4  O   UNL     1      -6.616  13.859  23.686  0.00  0.00    +0.000 OA
ATOM      5  C   UNL     1      -6.350  12.851  21.585  0.00  0.00    +0.000 A 
ATOM      6  C   UNL     1      -7.278  11.837  21.852  0.00  0.00    +0.000 A 
ATOM      7  C   UNL     1      -7.558  10.876  20.887  0.00  0.00    +0.000 A 
ATOM      8  C   UNL     1      -6.922  10.942  19.646  0.00  0.00    +0.000 A 
ATOM      9  C   UNL     1      -5.987  11.949  19.340  0.00  0.00    +0.000 A 
ATOM     10  C   UNL     1      -5.705  12.905  20.337  0.00  0.00    +0.000 A 
ATOM     11  O   UNL     1      -4.750  13.861  20.063  0.00  0.00    +0.000 OA
ENDROOT
BRANCH   1  16
ATOM     12  C   UNL     1      -1.210  11.569  20.967  0.00  0.00    +0.000 A 
ATOM     13  C   UNL     1      -1.163  11.106  22.287  0.00  0.00    +0.000 A 
ATOM     14  C   UNL     1      -1.997  11.652  23.253  0.00  0.00    +0.000 A 
ATOM     15  C   UNL     1      -2.898  12.661  22.910  0.00  0.00    +0.000 A 
ATOM     16  C   UNL     1      -2.982  13.157  21.596  0.00  0.00    +0.000 A 
ATOM     17  C   UNL     1      -2.096  12.611  20.643  0.00  0.00    +0.000 A 
BRANCH  17  18
ATOM     18  O   UNL     1      -2.051  13.076  19.355  0.00  0.00    +0.000 OA
ATOM     19  H   UNL     1      -1.160  12.921  18.996  0.00  0.00    +0.000 HD
ENDBRANCH  17  18
BRANCH  12  20
ATOM     20  C   UNL     1      -0.313  10.927  19.932  0.00  0.00    +0.000 C 
BRANCH  20  24
ATOM     21  C   UNL     1       2.709  12.608  18.117  0.00  0.00    +0.000 C 
ATOM     22  C   UNL     1       1.714  11.562  18.533  0.00  0.00    +0.000 C 
ATOM     23  C   UNL     1       1.874  10.184  17.955  0.00  0.00    +0.000 C 
ATOM     24  C   UNL     1       0.732  11.870  19.404  0.00  0.00    +0.000 C 
ENDBRANCH  20  24
ENDBRANCH  12  20
ENDBRANCH   1  16
BRANCH   6  25
ATOM     25  O   UNL     1      -7.916  11.695  23.056  0.00  0.00    +0.000 OA
ATOM     26  H   UNL     1      -8.094  10.736  23.199  0.00  0.00    +0.000 HD
ENDBRANCH   6  25
BRANCH   8  27
ATOM     27  O   UNL     1      -7.171   9.971  18.716  0.00  0.00    +0.000 OA
ATOM     28  H   UNL     1      -6.552  10.076  17.974  0.00  0.00    +0.000 HD
ENDBRANCH   8  27
BRANCH   9  29
ATOM     29  C   UNL     1      -5.223  11.892  18.027  0.00  0.00    +0.000 C 
BRANCH  29  30
ATOM     30  C   UNL     1      -4.011  10.999  17.992  0.00  0.00    +0.000 C 
ATOM     31  C   UNL     1      -3.297  10.639  16.904  0.00  0.00    +0.000 C 
ATOM     32  C   UNL     1      -3.629  10.996  15.477  0.00  0.00    +0.000 C 
ATOM     33  C   UNL     1      -2.017   9.855  17.069  0.00  0.00    +0.000 C 
ENDBRANCH  29  30
ENDBRANCH   9  29
TORSDOF 8
ENDMDL
MODEL 3
REMARK VINA RESULT:      -6.7      0.983      1.323
REMARK  Name = 
REMARK  12 active torsions:
REMARK  status: ('A' for Active; 'I' for Inactive)
REMARK    1  A    between atoms: C_1  and  C_2
REMARK    2  A    between atoms: C_2  and  C_3
REMARK    3  A    between atoms: C_4  and  C_5
REMARK    4  A    between atoms: C_5  and  C_6
REMARK    5  A    between atoms: C_10  and  C_11
REMARK    6  A    between atoms: C_16  and  O_17
REMARK    7  A    between atoms: C_19  and  O_20
REMARK    8  A    between atoms: C_21  and  C_22
REMARK    9  A    between atoms: C_22  and  C_23
REMARK   10  A    between atoms: C_24  and  C_25
REMARK   11  A    between atoms: C_24  and  C_26
REMARK   12  A    between atoms: C_29  and  O_30
REMARK                            x       y       z     vdW  Elec       q    Type
REMARK                         _______ _______ _______ _____ _____    ______ ____
ROOT
ATOM      1  C   UNL     1      -0.000  12.001  18.566  0.00  0.00    +0.000 C 
ATOM      2  C   UNL     1       1.190  11.291  17.925  0.00  0.00    +0.000 C 
ATOM      3  C   UNL     1       1.497  10.016  18.654  0.00  0.00    +0.000 C 
ATOM      4  O   UNL     1       2.121   9.089  18.128  0.00  0.00    +0.000 OA
ATOM      5  C   UNL     1       1.049   9.900  20.050  0.00  0.00    +0.000 A 
ATOM      6  C   UNL     1       1.192   8.695  20.749  0.00  0.00    +0.000 A 
ATOM      7  C   UNL     1       0.713   8.582  22.048  0.00  0.00    +0.000 A 
ATOM      8  C   UNL     1       0.105   9.683  22.656  0.00  0.00    +0.000 A 
ATOM      9  C   UNL     1      -0.054  10.911  21.986  0.00  0.00    +0.000 A 
ATOM     10  C   UNL     1       0.426  11.001  20.663  0.00  0.00    +0.000 A 
ATOM     11  O   UNL     1       0.225  12.183  19.983  0.00  0.00    +0.000 OA
ENDROOT
BRANCH   1  16
ATOM     12  C   UNL     1      -3.848  11.607  18.598  0.00  0.00    +0.000 A 
ATOM     13  C   UNL     1      -4.002  10.412  17.885  0.00  0.00    +0.000 A 
ATOM     14  C   UNL     1      -2.891   9.744  17.387  0.00  0.00    +0.000 A 
ATOM     15  C   UNL     1      -1.610  10.255  17.606  0.00  0.00    +0.000 A 
ATOM     16  C   UNL     1      -1.408  11.451  18.318  0.00  0.00    +0.000 A 
ATOM     17  C   UNL     1      -2.556  12.130  18.779  0.00  0.00    +0.000 A 
BRANCH  17  18
ATOM     18  O   UNL     1      -2.468  13.337  19.421  0.00  0.00    +0.000 OA
ATOM     19  H   UNL     1      -2.786  14.035  18.823  0.00  0.00    +0.000 HD
ENDBRANCH  17  18
BRANCH  12  20
ATOM     20  C   UNL     1      -5.077  12.289  19.158  0.00  0.00    +0.000 C 
BRANCH  20  24
ATOM     21  C   UNL     1      -7.583  14.300  16.938  0.00  0.00    +0.000 C 
ATOM     22  C   UNL     1      -6.655  13.961  18.070  0.00  0.00    +0.000 C 
ATOM     23  C   UNL     1      -6.499  14.976  19.167  0.00  0.00    +0.000 C 
ATOM     24  C   UNL     1      -6.009  12.778  18.084  0.00  0.00    +0.000 C 
ENDBRANCH  20  24
ENDBRANCH  12  20
ENDBRANCH   1  16
BRANCH   6  25
ATOM     25  O   UNL     1       1.750   7.569  20.206  0.00  0.00    +0.000 OA
ATOM     26  H   UNL     1       1.238   7.329  19.399  0.00  0.00    +0.000 HD
ENDBRANCH   6  25
BRANCH   8  27
ATOM     27  O   UNL     1      -0.402   9.553  23.920  0.00  0.00    +0.000 OA
ATOM     28  H   UNL     1      -1.226  10.064  23.985  0.00  0.00    +0.000 HD
ENDBRANCH   8  27
BRANCH   9  29
ATOM     29  C   UNL     1      -0.845  12.030  22.644  0.00  0.00    +0.000 C 
BRANCH  29  30
ATOM     30  C   UNL     1      -2.340  11.985  22.475  0.00  0.00    +0.000 C 
ATOM     31  C   UNL     1      -3.246  12.829  23.015  0.00  0.00    +0.000 C 
ATOM     32  C   UNL     1      -2.939  13.949  23.979  0.00  0.00    +0.000 C 
ATOM     33  C   UNL     1      -4.699  12.727  22.620  0.00  0.00    +0.000 C 
ENDBRANCH  29  30
ENDBRANCH   9  29
TORSDOF 8
ENDMDL
MODEL 4
REMARK VINA RESULT:      -6.4      5.447      9.397
REMARK  Name = 
REMARK  12 active torsions:
REMARK  status: ('A' for Active; 'I' for Inactive)
REMARK    1  A    between atoms: C_1  and  C_2
REMARK    2  A    between atoms: C_2  and  C_3
REMARK    3  A    between atoms: C_4  and  C_5
REMARK    4  A    between atoms: C_5  and  C_6
REMARK    5  A    between atoms: C_10  and  C_11
REMARK    6  A    between atoms: C_16  and  O_17
REMARK    7  A    between atoms: C_19  and  O_20
REMARK    8  A    between atoms: C_21  and  C_22
REMARK    9  A    between atoms: C_22  and  C_23
REMARK   10  A    between atoms: C_24  and  C_25
REMARK   11  A    between atoms: C_24  and  C_26
REMARK   12  A    between atoms: C_29  and  O_30
REMARK                            x       y       z     vdW  Elec       q    Type
REMARK                         _______ _______ _______ _____ _____    ______ ____
ROOT
ATOM      1  C   UNL     1       2.913   4.567  18.209  0.00  0.00    +0.000 C 
ATOM      2  C   UNL     1       3.383   3.719  19.389  0.00  0.00    +0.000 C 
ATOM      3  C   UNL     1       4.796   4.066  19.756  0.00  0.00    +0.000 C 
ATOM      4  O   UNL     1       5.262   3.833  20.876  0.00  0.00    +0.000 OA
ATOM      5  C   UNL     1       5.640   4.684  18.723  0.00  0.00    +0.000 A 
ATOM      6  C   UNL     1       6.926   5.145  19.033  0.00  0.00    +0.000 A 
ATOM      7  C   UNL     1       7.692   5.777  18.061  0.00  0.00    +0.000 A 
ATOM      8  C   UNL     1       7.177   5.933  16.772  0.00  0.00    +0.000 A 
ATOM      9  C   UNL     1       5.891   5.479  16.423  0.00  0.00    +0.000 A 
ATOM     10  C   UNL     1       5.123   4.853  17.427  0.00  0.00    +0.000 A 
ATOM     11  O   UNL     1       3.843   4.455  17.107  0.00  0.00    +0.000 OA
ENDROOT
BRANCH   1  16
ATOM     12  C   UNL     1       1.752   7.825  19.940  0.00  0.00    +0.000 A 
ATOM     13  C   UNL     1       1.853   8.740  18.885  0.00  0.00    +0.000 A 
ATOM     14  C   UNL     1       2.299   8.326  17.637  0.00  0.00    +0.000 A 
ATOM     15  C   UNL     1       2.639   6.989  17.423  0.00  0.00    +0.000 A 
ATOM     16  C   UNL     1       2.551   6.035  18.452  0.00  0.00    +0.000 A 
ATOM     17  C   UNL     1       2.132   6.490  19.721  0.00  0.00    +0.000 A 
BRANCH  17  18
ATOM     18  O   UNL     1       2.082   5.653  20.804  0.00  0.00    +0.000 OA
ATOM     19  H   UNL     1       2.597   6.047  21.530  0.00  0.00    +0.000 HD
ENDBRANCH  17  18
BRANCH  12  20
ATOM     20  C   UNL     1       1.227   8.303  21.276  0.00  0.00    +0.000 C 
BRANCH  20  24
ATOM     21  C   UNL     1      -0.566  11.705  21.954  0.00  0.00    +0.000 C 
ATOM     22  C   UNL     1      -0.067  10.303  22.165  0.00  0.00    +0.000 C 
ATOM     23  C   UNL     1      -0.449   9.617  23.445  0.00  0.00    +0.000 C 
ATOM     24  C   UNL     1       0.683   9.704  21.219  0.00  0.00    +0.000 C 
ENDBRANCH  20  24
ENDBRANCH  12  20
ENDBRANCH   1  16
BRANCH   6  25
ATOM     25  O   UNL     1       7.481   5.053  20.281  0.00  0.00    +0.000 OA
ATOM     26  H   UNL     1       7.445   4.111  20.566  0.00  0.00    +0.000 HD
ENDBRANCH   6  25
BRANCH   8  27
ATOM     27  O   UNL     1       7.919   6.592  15.831  0.00  0.00    +0.000 OA
ATOM     28  H   UNL     1       8.293   5.945  15.211  0.00  0.00    +0.000 HD
ENDBRANCH   8  27
BRANCH   9  29
ATOM     29  C   UNL     1       5.328   5.797  15.047  0.00  0.00    +0.000 C 
BRANCH  29  30
ATOM     30  C   UNL     1       5.286   4.661  14.060  0.00  0.00    +0.000 C 
ATOM     31  C   UNL     1       6.254   4.303  13.189  0.00  0.00    +0.000 C 
ATOM     32  C   UNL     1       7.554   5.035  12.970  0.00  0.00    +0.000 C 
ATOM     33  C   UNL     1       6.103   3.042  12.373  0.00  0.00    +0.000 C 
ENDBRANCH  29  30
ENDBRANCH   9  29
TORSDOF 8
ENDMDL
MODEL 5
REMARK VINA RESULT:      -6.3      1.183      1.702
REMARK  Name = 
REMARK  12 active torsions:
REMARK  status: ('A' for Active; 'I' for Inactive)
REMARK    1  A    between atoms: C_1  and  C_2
REMARK    2  A    between atoms: C_2  and  C_3
REMARK    3  A    between atoms: C_4  and  C_5
REMARK    4  A    between atoms: C_5  and  C_6
REMARK    5  A    between atoms: C_10  and  C_11
REMARK    6  A    between atoms: C_16  and  O_17
REMARK    7  A    between atoms: C_19  and  O_20
REMARK    8  A    between atoms: C_21  and  C_22
REMARK    9  A    between atoms: C_22  and  C_23
REMARK   10  A    between atoms: C_24  and  C_25
REMARK   11  A    between atoms: C_24  and  C_26
REMARK   12  A    between atoms: C_29  and  O_30
REMARK                            x       y       z     vdW  Elec       q    Type
REMARK                         _______ _______ _______ _____ _____    ______ ____
ROOT
ATOM      1  C   UNL     1      -0.492  12.365  18.604  0.00  0.00    +0.000 C 
ATOM      2  C   UNL     1       0.847  11.964  17.988  0.00  0.00    +0.000 C 
ATOM      3  C   UNL     1       1.335  10.676  18.585  0.00  0.00    +0.000 C 
ATOM      4  O   UNL     1       2.150   9.950  18.008  0.00  0.00    +0.000 OA
ATOM      5  C   UNL     1       0.827  10.301  19.912  0.00  0.00    +0.000 A 
ATOM      6  C   UNL     1       1.144   9.056  20.473  0.00  0.00    +0.000 A 
ATOM      7  C   UNL     1       0.611   8.691  21.704  0.00  0.00    +0.000 A 
ATOM      8  C   UNL     1      -0.225   9.580  22.383  0.00  0.00    +0.000 A 
ATOM      9  C   UNL     1      -0.563  10.839  21.853  0.00  0.00    +0.000 A 
ATOM     10  C   UNL     1      -0.024  11.185  20.596  0.00  0.00    +0.000 A 
ATOM     11  O   UNL     1      -0.394  12.394  20.047  0.00  0.00    +0.000 OA
ENDROOT
BRANCH   1  16
ATOM     12  C   UNL     1      -4.188  11.266  18.308  0.00  0.00    +0.000 A 
ATOM     13  C   UNL     1      -4.082  10.211  17.394  0.00  0.00    +0.000 A 
ATOM     14  C   UNL     1      -2.846   9.861  16.866  0.00  0.00    +0.000 A 
ATOM     15  C   UNL     1      -1.698  10.553  17.255  0.00  0.00    +0.000 A 
ATOM     16  C   UNL     1      -1.756  11.618  18.172  0.00  0.00    +0.000 A 
ATOM     17  C   UNL     1      -3.029  11.978  18.663  0.00  0.00    +0.000 A 
BRANCH  17  18
ATOM     18  O   UNL     1      -3.199  13.045  19.504  0.00  0.00    +0.000 OA
ATOM     19  H   UNL     1      -2.838  12.817  20.379  0.00  0.00    +0.000 HD
ENDBRANCH  17  18
BRANCH  12  20
ATOM     20  C   UNL     1      -5.545  11.597  18.892  0.00  0.00    +0.000 C 
BRANCH  20  24
ATOM     21  C   UNL     1      -7.690  14.309  17.077  0.00  0.00    +0.000 C 
ATOM     22  C   UNL     1      -6.798  13.663  18.099  0.00  0.00    +0.000 C 
ATOM     23  C   UNL     1      -6.384  14.492  19.282  0.00  0.00    +0.000 C 
ATOM     24  C   UNL     1      -6.408  12.382  17.943  0.00  0.00    +0.000 C 
ENDBRANCH  20  24
ENDBRANCH  12  20
ENDBRANCH   1  16
BRANCH   6  25
ATOM     25  O   UNL     1       1.931   8.126  19.850  0.00  0.00    +0.000 OA
ATOM     26  H   UNL     1       2.196   7.450  20.517  0.00  0.00    +0.000 HD
ENDBRANCH   6  25
BRANCH   8  27
ATOM     27  O   UNL     1      -0.779   9.198  23.574  0.00  0.00    +0.000 OA
ATOM     28  H   UNL     1      -1.616   9.675  23.703  0.00  0.00    +0.000 HD
ENDBRANCH   8  27
BRANCH   9  29
ATOM     29  C   UNL     1      -1.585  11.707  22.568  0.00  0.00    +0.000 C 
BRANCH  29  30
ATOM     30  C   UNL     1      -1.073  12.985  23.177  0.00  0.00    +0.000 C 
ATOM     31  C   UNL     1      -1.760  14.134  23.358  0.00  0.00    +0.000 C 
ATOM     32  C   UNL     1      -3.174  14.393  22.899  0.00  0.00    +0.000 C 
ATOM     33  C   UNL     1      -1.134  15.274  24.124  0.00  0.00    +0.000 C 
ENDBRANCH  29  30
ENDBRANCH   9  29
TORSDOF 8
ENDMDL
MODEL 6
REMARK VINA RESULT:      -6.3      0.867      1.314
REMARK  Name = 
REMARK  12 active torsions:
REMARK  status: ('A' for Active; 'I' for Inactive)
REMARK    1  A    between atoms: C_1  and  C_2
REMARK    2  A    between atoms: C_2  and  C_3
REMARK    3  A    between atoms: C_4  and  C_5
REMARK    4  A    between atoms: C_5  and  C_6
REMARK    5  A    between atoms: C_10  and  C_11
REMARK    6  A    between atoms: C_16  and  O_17
REMARK    7  A    between atoms: C_19  and  O_20
REMARK    8  A    between atoms: C_21  and  C_22
REMARK    9  A    between atoms: C_22  and  C_23
REMARK   10  A    between atoms: C_24  and  C_25
REMARK   11  A    between atoms: C_24  and  C_26
REMARK   12  A    between atoms: C_29  and  O_30
REMARK                            x       y       z     vdW  Elec       q    Type
REMARK                         _______ _______ _______ _____ _____    ______ ____
ROOT
ATOM      1  C   UNL     1       0.050  11.912  18.488  0.00  0.00    +0.000 C 
ATOM      2  C   UNL     1       1.256  11.163  17.927  0.00  0.00    +0.000 C 
ATOM      3  C   UNL     1       1.517   9.917  18.721  0.00  0.00    +0.000 C 
ATOM      4  O   UNL     1       2.150   8.961  18.260  0.00  0.00    +0.000 OA
ATOM      5  C   UNL     1       1.010   9.865  20.101  0.00  0.00    +0.000 A 
ATOM      6  C   UNL     1       1.110   8.689  20.855  0.00  0.00    +0.000 A 
ATOM      7  C   UNL     1       0.577   8.637  22.138  0.00  0.00    +0.000 A 
ATOM      8  C   UNL     1      -0.041   9.770  22.672  0.00  0.00    +0.000 A 
ATOM      9  C   UNL     1      -0.157  10.969  21.946  0.00  0.00    +0.000 A 
ATOM     10  C   UNL     1       0.377  10.998  20.641  0.00  0.00    +0.000 A 
ATOM     11  O   UNL     1       0.220  12.152  19.904  0.00  0.00    +0.000 OA
ENDROOT
BRANCH   1  16
ATOM     12  C   UNL     1      -3.798  11.517  18.452  0.00  0.00    +0.000 A 
ATOM     13  C   UNL     1      -3.940  10.339  17.709  0.00  0.00    +0.000 A 
ATOM     14  C   UNL     1      -2.821   9.683  17.213  0.00  0.00    +0.000 A 
ATOM     15  C   UNL     1      -1.545  10.189  17.463  0.00  0.00    +0.000 A 
ATOM     16  C   UNL     1      -1.354  11.368  18.206  0.00  0.00    +0.000 A 
ATOM     17  C   UNL     1      -2.509  12.036  18.665  0.00  0.00    +0.000 A 
BRANCH  17  18
ATOM     18  O   UNL     1      -2.431  13.228  19.336  0.00  0.00    +0.000 OA
ATOM     19  H   UNL     1      -1.502  13.514  19.363  0.00  0.00    +0.000 HD
ENDBRANCH  17  18
BRANCH  12  20
ATOM     20  C   UNL     1      -5.036  12.186  19.009  0.00  0.00    +0.000 C 
BRANCH  20  24
ATOM     21  C   UNL     1      -7.911  10.253  20.810  0.00  0.00    +0.000 C 
ATOM     22  C   UNL     1      -6.932  11.344  20.479  0.00  0.00    +0.000 C 
ATOM     23  C   UNL     1      -6.938  12.568  21.349  0.00  0.00    +0.000 C 
ATOM     24  C   UNL     1      -6.084  11.198  19.441  0.00  0.00    +0.000 C 
ENDBRANCH  20  24
ENDBRANCH  12  20
ENDBRANCH   1  16
BRANCH   6  25
ATOM     25  O   UNL     1       1.675   7.535  20.383  0.00  0.00    +0.000 OA
ATOM     26  H   UNL     1       1.060   7.138  19.724  0.00  0.00    +0.000 HD
ENDBRANCH   6  25
BRANCH   8  27
ATOM     27  O   UNL     1      -0.600   9.699  23.919  0.00  0.00    +0.000 OA
ATOM     28  H   UNL     1      -0.916   8.793  24.075  0.00  0.00    +0.000 HD
ENDBRANCH   8  27
BRANCH   9  29
ATOM     29  C   UNL     1      -0.959  12.124  22.523  0.00  0.00    +0.000 C 
BRANCH  29  30
ATOM     30  C   UNL     1      -0.386  13.503  22.329  0.00  0.00    +0.000 C 
ATOM     31  C   UNL     1      -0.614  14.594  23.092  0.00  0.00    +0.000 C 
ATOM     32  C   UNL     1      -1.571  14.668  24.257  0.00  0.00    +0.000 C 
ATOM     33  C   UNL     1       0.162  15.864  22.841  0.00  0.00    +0.000 C 
ENDBRANCH  29  30
ENDBRANCH   9  29
TORSDOF 8
ENDMDL
MODEL 7
REMARK VINA RESULT:      -6.3      2.412      6.706
REMARK  Name = 
REMARK  12 active torsions:
REMARK  status: ('A' for Active; 'I' for Inactive)
REMARK    1  A    between atoms: C_1  and  C_2
REMARK    2  A    between atoms: C_2  and  C_3
REMARK    3  A    between atoms: C_4  and  C_5
REMARK    4  A    between atoms: C_5  and  C_6
REMARK    5  A    between atoms: C_10  and  C_11
REMARK    6  A    between atoms: C_16  and  O_17
REMARK    7  A    between atoms: C_19  and  O_20
REMARK    8  A    between atoms: C_21  and  C_22
REMARK    9  A    between atoms: C_22  and  C_23
REMARK   10  A    between atoms: C_24  and  C_25
REMARK   11  A    between atoms: C_24  and  C_26
REMARK   12  A    between atoms: C_29  and  O_30
REMARK                            x       y       z     vdW  Elec       q    Type
REMARK                         _______ _______ _______ _____ _____    ______ ____
ROOT
ATOM      1  C   UNL     1       0.510  12.972  19.157  0.00  0.00    +0.000 C 
ATOM      2  C   UNL     1       1.254  14.003  20.002  0.00  0.00    +0.000 C 
ATOM      3  C   UNL     1       0.638  14.107  21.367  0.00  0.00    +0.000 C 
ATOM      4  O   UNL     1       1.261  14.546  22.339  0.00  0.00    +0.000 OA
ATOM      5  C   UNL     1      -0.762  13.686  21.520  0.00  0.00    +0.000 A 
ATOM      6  C   UNL     1      -1.360  13.640  22.786  0.00  0.00    +0.000 A 
ATOM      7  C   UNL     1      -2.667  13.187  22.923  0.00  0.00    +0.000 A 
ATOM      8  C   UNL     1      -3.382  12.796  21.789  0.00  0.00    +0.000 A 
ATOM      9  C   UNL     1      -2.815  12.832  20.501  0.00  0.00    +0.000 A 
ATOM     10  C   UNL     1      -1.484  13.281  20.384  0.00  0.00    +0.000 A 
ATOM     11  O   UNL     1      -0.905  13.267  19.133  0.00  0.00    +0.000 OA
ENDROOT
BRANCH   1  16
ATOM     12  C   UNL     1       1.692   9.306  18.801  0.00  0.00    +0.000 A 
ATOM     13  C   UNL     1       1.128   8.730  19.945  0.00  0.00    +0.000 A 
ATOM     14  C   UNL     1       0.388   9.504  20.829  0.00  0.00    +0.000 A 
ATOM     15  C   UNL     1       0.193  10.863  20.575  0.00  0.00    +0.000 A 
ATOM     16  C   UNL     1       0.739  11.484  19.437  0.00  0.00    +0.000 A 
ATOM     17  C   UNL     1       1.518  10.683  18.576  0.00  0.00    +0.000 A 
BRANCH  17  18
ATOM     18  O   UNL     1       2.151  11.209  17.481  0.00  0.00    +0.000 OA
ATOM     19  H   UNL     1       3.059  10.864  17.446  0.00  0.00    +0.000 HD
ENDBRANCH  17  18
BRANCH  12  20
ATOM     20  C   UNL     1       2.461   8.426  17.840  0.00  0.00    +0.000 C 
BRANCH  20  24
ATOM     21  C   UNL     1       3.189   4.629  18.393  0.00  0.00    +0.000 C 
ATOM     22  C   UNL     1       3.378   6.057  17.965  0.00  0.00    +0.000 C 
ATOM     23  C   UNL     1       4.646   6.400  17.236  0.00  0.00    +0.000 C 
ATOM     24  C   UNL     1       2.425   6.973  18.229  0.00  0.00    +0.000 C 
ENDBRANCH  20  24
ENDBRANCH  12  20
ENDBRANCH   1  16
BRANCH   6  25
ATOM     25  O   UNL     1      -0.709  13.980  23.941  0.00  0.00    +0.000 OA
ATOM     26  H   UNL     1      -0.404  13.151  24.379  0.00  0.00    +0.000 HD
ENDBRANCH   6  25
BRANCH   8  27
ATOM     27  O   UNL     1      -4.653  12.312  21.935  0.00  0.00    +0.000 OA
ATOM     28  H   UNL     1      -4.750  11.939  22.827  0.00  0.00    +0.000 HD
ENDBRANCH   8  27
BRANCH   9  29
ATOM     29  C   UNL     1      -3.590  12.265  19.322  0.00  0.00    +0.000 C 
BRANCH  29  30
ATOM     30  C   UNL     1      -2.910  11.181  18.530  0.00  0.00    +0.000 C 
ATOM     31  C   UNL     1      -3.191  10.798  17.265  0.00  0.00    +0.000 C 
ATOM     32  C   UNL     1      -4.317  11.332  16.415  0.00  0.00    +0.000 C 
ATOM     33  C   UNL     1      -2.308   9.792  16.569  0.00  0.00    +0.000 C 
ENDBRANCH  29  30
ENDBRANCH   9  29
TORSDOF 8
ENDMDL
MODEL 8
REMARK VINA RESULT:      -6.2      8.264     11.564
REMARK  Name = 
REMARK  12 active torsions:
REMARK  status: ('A' for Active; 'I' for Inactive)
REMARK    1  A    between atoms: C_1  and  C_2
REMARK    2  A    between atoms: C_2  and  C_3
REMARK    3  A    between atoms: C_4  and  C_5
REMARK    4  A    between atoms: C_5  and  C_6
REMARK    5  A    between atoms: C_10  and  C_11
REMARK    6  A    between atoms: C_16  and  O_17
REMARK    7  A    between atoms: C_19  and  O_20
REMARK    8  A    between atoms: C_21  and  C_22
REMARK    9  A    between atoms: C_22  and  C_23
REMARK   10  A    between atoms: C_24  and  C_25
REMARK   11  A    between atoms: C_24  and  C_26
REMARK   12  A    between atoms: C_29  and  O_30
REMARK                            x       y       z     vdW  Elec       q    Type
REMARK                         _______ _______ _______ _____ _____    ______ ____
ROOT
ATOM      1  C   UNL     1       9.909  14.812  17.820  0.00  0.00    +0.000 C 
ATOM      2  C   UNL     1      10.887  15.833  18.398  0.00  0.00    +0.000 C 
ATOM      3  C   UNL     1      10.514  16.175  19.811  0.00  0.00    +0.000 C 
ATOM      4  O   UNL     1      11.329  16.643  20.612  0.00  0.00    +0.000 OA
ATOM      5  C   UNL     1       9.120  15.957  20.224  0.00  0.00    +0.000 A 
ATOM      6  C   UNL     1       8.733  16.138  21.558  0.00  0.00    +0.000 A 
ATOM      7  C   UNL     1       7.425  15.874  21.946  0.00  0.00    +0.000 A 
ATOM      8  C   UNL     1       6.498  15.446  20.993  0.00  0.00    +0.000 A 
ATOM      9  C   UNL     1       6.849  15.256  19.644  0.00  0.00    +0.000 A 
ATOM     10  C   UNL     1       8.185  15.515  19.273  0.00  0.00    +0.000 A 
ATOM     11  O   UNL     1       8.548  15.279  17.964  0.00  0.00    +0.000 OA
ENDROOT
BRANCH   1  16
ATOM     12  C   UNL     1       9.177  11.038  18.250  0.00  0.00    +0.000 A 
ATOM     13  C   UNL     1      10.208  10.661  19.118  0.00  0.00    +0.000 A 
ATOM     14  C   UNL     1      11.136  11.598  19.554  0.00  0.00    +0.000 A 
ATOM     15  C   UNL     1      11.039  12.926  19.136  0.00  0.00    +0.000 A 
ATOM     16  C   UNL     1      10.019  13.350  18.265  0.00  0.00    +0.000 A 
ATOM     17  C   UNL     1       9.112  12.371  17.808  0.00  0.00    +0.000 A 
BRANCH  17  18
ATOM     18  O   UNL     1       8.128  12.669  16.903  0.00  0.00    +0.000 OA
ATOM     19  H   UNL     1       7.751  13.538  17.124  0.00  0.00    +0.000 HD
ENDBRANCH  17  18
BRANCH  12  20
ATOM     20  C   UNL     1       8.162  10.000  17.824  0.00  0.00    +0.000 C 
BRANCH  20  24
ATOM     21  C   UNL     1       8.104   6.244  18.891  0.00  0.00    +0.000 C 
ATOM     22  C   UNL     1       7.777   7.506  18.145  0.00  0.00    +0.000 C 
ATOM     23  C   UNL     1       6.734   7.425  17.067  0.00  0.00    +0.000 C 
ATOM     24  C   UNL     1       8.403   8.658  18.460  0.00  0.00    +0.000 C 
ENDBRANCH  20  24
ENDBRANCH  12  20
ENDBRANCH   1  16
BRANCH   6  25
ATOM     25  O   UNL     1       9.595  16.526  22.549  0.00  0.00    +0.000 OA
ATOM     26  H   UNL     1       9.477  15.919  23.316  0.00  0.00    +0.000 HD
ENDBRANCH   6  25
BRANCH   8  27
ATOM     27  O   UNL     1       5.223  15.148  21.389  0.00  0.00    +0.000 OA
ATOM     28  H   UNL     1       5.102  14.184  21.373  0.00  0.00    +0.000 HD
ENDBRANCH   8  27
BRANCH   9  29
ATOM     29  C   UNL     1       5.838  14.657  18.680  0.00  0.00    +0.000 C 
BRANCH  29  30
ATOM     30  C   UNL     1       4.980  15.631  17.915  0.00  0.00    +0.000 C 
ATOM     31  C   UNL     1       3.633  15.631  17.823  0.00  0.00    +0.000 C 
ATOM     32  C   UNL     1       2.712  14.589  18.407  0.00  0.00    +0.000 C 
ATOM     33  C   UNL     1       2.926  16.773  17.134  0.00  0.00    +0.000 C 
ENDBRANCH  29  30
ENDBRANCH   9  29
TORSDOF 8
ENDMDL
MODEL 9
REMARK VINA RESULT:      -6.2      2.477      6.849
REMARK  Name = 
REMARK  12 active torsions:
REMARK  status: ('A' for Active; 'I' for Inactive)
REMARK    1  A    between atoms: C_1  and  C_2
REMARK    2  A    between atoms: C_2  and  C_3
REMARK    3  A    between atoms: C_4  and  C_5
REMARK    4  A    between atoms: C_5  and  C_6
REMARK    5  A    between atoms: C_10  and  C_11
REMARK    6  A    between atoms: C_16  and  O_17
REMARK    7  A    between atoms: C_19  and  O_20
REMARK    8  A    between atoms: C_21  and  C_22
REMARK    9  A    between atoms: C_22  and  C_23
REMARK   10  A    between atoms: C_24  and  C_25
REMARK   11  A    between atoms: C_24  and  C_26
REMARK   12  A    between atoms: C_29  and  O_30
REMARK                            x       y       z     vdW  Elec       q    Type
REMARK                         _______ _______ _______ _____ _____    ______ ____
ROOT
ATOM      1  C   UNL     1      -2.011  14.398  21.820  0.00  0.00    +0.000 C 
ATOM      2  C   UNL     1      -1.945  14.887  23.266  0.00  0.00    +0.000 C 
ATOM      3  C   UNL     1      -2.999  14.216  24.096  0.00  0.00    +0.000 C 
ATOM      4  O   UNL     1      -2.912  14.126  25.325  0.00  0.00    +0.000 OA
ATOM      5  C   UNL     1      -4.176  13.674  23.401  0.00  0.00    +0.000 A 
ATOM      6  C   UNL     1      -5.136  12.928  24.097  0.00  0.00    +0.000 A 
ATOM      7  C   UNL     1      -6.214  12.374  23.418  0.00  0.00    +0.000 A 
ATOM      8  C   UNL     1      -6.342  12.582  22.042  0.00  0.00    +0.000 A 
ATOM      9  C   UNL     1      -5.399  13.328  21.311  0.00  0.00    +0.000 A 
ATOM     10  C   UNL     1      -4.304  13.870  22.015  0.00  0.00    +0.000 A 
ATOM     11  O   UNL     1      -3.350  14.555  21.296  0.00  0.00    +0.000 OA
ENDROOT
BRANCH   1  16
ATOM     12  C   UNL     1      -0.838  11.291  19.837  0.00  0.00    +0.000 A 
ATOM     13  C   UNL     1      -0.500  10.420  20.879  0.00  0.00    +0.000 A 
ATOM     14  C   UNL     1      -0.633  10.822  22.202  0.00  0.00    +0.000 A 
ATOM     15  C   UNL     1      -1.116  12.097  22.501  0.00  0.00    +0.000 A 
ATOM     16  C   UNL     1      -1.469  13.005  21.486  0.00  0.00    +0.000 A 
ATOM     17  C   UNL     1      -1.289  12.585  20.152  0.00  0.00    +0.000 A 
BRANCH  17  18
ATOM     18  O   UNL     1      -1.537  13.421  19.095  0.00  0.00    +0.000 OA
ATOM     19  H   UNL     1      -2.489  13.620  19.068  0.00  0.00    +0.000 HD
ENDBRANCH  17  18
BRANCH  12  20
ATOM     20  C   UNL     1      -0.717  10.808  18.409  0.00  0.00    +0.000 C 
BRANCH  20  24
ATOM     21  C   UNL     1       2.442   8.570  17.894  0.00  0.00    +0.000 C 
ATOM     22  C   UNL     1       1.590   9.798  18.052  0.00  0.00    +0.000 C 
ATOM     23  C   UNL     1       2.271  11.133  17.956  0.00  0.00    +0.000 C 
ATOM     24  C   UNL     1       0.263   9.677  18.261  0.00  0.00    +0.000 C 
ENDBRANCH  20  24
ENDBRANCH  12  20
ENDBRANCH   1  16
BRANCH   6  25
ATOM     25  O   UNL     1      -5.058  12.660  25.437  0.00  0.00    +0.000 OA
ATOM     26  H   UNL     1      -4.932  13.512  25.916  0.00  0.00    +0.000 HD
ENDBRANCH   6  25
BRANCH   8  27
ATOM     27  O   UNL     1      -7.382  11.999  21.373  0.00  0.00    +0.000 OA
ATOM     28  H   UNL     1      -8.203  12.476  21.584  0.00  0.00    +0.000 HD
ENDBRANCH   8  27
BRANCH   9  29
ATOM     29  C   UNL     1      -5.513  13.406  19.797  0.00  0.00    +0.000 C 
BRANCH  29  30
ATOM     30  C   UNL     1      -4.720  12.396  19.011  0.00  0.00    +0.000 C 
ATOM     31  C   UNL     1      -5.197  11.308  18.368  0.00  0.00    +0.000 C 
ATOM     32  C   UNL     1      -6.630  10.837  18.383  0.00  0.00    +0.000 C 
ATOM     33  C   UNL     1      -4.278  10.483  17.501  0.00  0.00    +0.000 C 
ENDBRANCH  29  30
ENDBRANCH   9  29
TORSDOF 8
ENDMDL
