MODEL 1
REMARK VINA RESULT:      -6.1      0.000      0.000
REMARK  Name = 
REMARK  2 active torsions:
REMARK  status: ('A' for Active; 'I' for Inactive)
REMARK    1  A    between atoms: C_1  and  N_2
REMARK    2  A    between atoms: C_5  and  C_6
REMARK                            x       y       z     vdW  Elec       q    Type
REMARK                         _______ _______ _______ _____ _____    ______ ____
ROOT
ATOM      1  C   UNL     1       0.778   2.438  18.821  0.00  0.00    +0.000 C 
ATOM      2  N   UNL     1       1.982   3.265  18.911  0.00  0.00    +0.000 NA
ATOM      3  C   UNL     1       3.184   2.423  18.839  0.00  0.00    +0.000 C 
ATOM      4  C   UNL     1       4.451   3.262  18.997  0.00  0.00    +0.000 C 
ATOM      5  C   UNL     1       4.501   4.383  17.952  0.00  0.00    +0.000 C 
ATOM      6  C   UNL     1       3.201   5.197  17.967  0.00  0.00    +0.000 C 
ATOM      7  C   UNL     1       1.983   4.282  17.851  0.00  0.00    +0.000 C 
ENDROOT
BRANCH   5   8
ATOM      8  C   UNL     1       5.721   5.266  18.120  0.00  0.00    +0.000 A 
ATOM      9  C   UNL     1       5.990   6.317  17.243  0.00  0.00    +0.000 A 
ATOM     10  C   UNL     1       7.125   7.097  17.445  0.00  0.00    +0.000 A 
ATOM     11  C   UNL     1       7.965   6.809  18.511  0.00  0.00    +0.000 A 
ATOM     12  C   UNL     1       7.632   5.749  19.335  0.00  0.00    +0.000 A 
ATOM     13  N   UNL     1       6.536   4.977  19.164  0.00  0.00    +0.000 NA
ENDBRANCH   5   8
TORSDOF 1
ENDMDL
MODEL 2
REMARK VINA RESULT:      -6.1      0.611      1.498
REMARK  Name = 
REMARK  2 active torsions:
REMARK  status: ('A' for Active; 'I' for Inactive)
REMARK    1  A    between atoms: C_1  and  N_2
REMARK    2  A    between atoms: C_5  and  C_6
REMARK                            x       y       z     vdW  Elec       q    Type
REMARK                         _______ _______ _______ _____ _____    ______ ____
ROOT
ATOM      1  C   UNL     1       0.765   2.154  18.878  0.00  0.00    +0.000 C 
ATOM      2  N   UNL     1       2.015   2.862  18.598  0.00  0.00    +0.000 NA
ATOM      3  C   UNL     1       1.761   4.300  18.441  0.00  0.00    +0.000 C 
ATOM      4  C   UNL     1       3.044   5.048  18.084  0.00  0.00    +0.000 C 
ATOM      5  C   UNL     1       4.137   4.793  19.129  0.00  0.00    +0.000 C 
ATOM      6  C   UNL     1       4.328   3.289  19.358  0.00  0.00    +0.000 C 
ATOM      7  C   UNL     1       2.994   2.610  19.664  0.00  0.00    +0.000 C 
ENDROOT
BRANCH   5   8
ATOM      8  C   UNL     1       5.440   5.479  18.771  0.00  0.00    +0.000 A 
ATOM      9  C   UNL     1       5.550   6.301  17.650  0.00  0.00    +0.000 A 
ATOM     10  C   UNL     1       6.771   6.906  17.368  0.00  0.00    +0.000 A 
ATOM     11  C   UNL     1       7.852   6.675  18.207  0.00  0.00    +0.000 A 
ATOM     12  C   UNL     1       7.666   5.845  19.297  0.00  0.00    +0.000 A 
ATOM     13  N   UNL     1       6.491   5.246  19.596  0.00  0.00    +0.000 NA
ENDBRANCH   5   8
TORSDOF 1
ENDMDL
MODEL 3
REMARK VINA RESULT:      -6.0      3.568      4.658
REMARK  Name = 
REMARK  2 active torsions:
REMARK  status: ('A' for Active; 'I' for Inactive)
REMARK    1  A    between atoms: C_1  and  N_2
REMARK    2  A    between atoms: C_5  and  C_6
REMARK                            x       y       z     vdW  Elec       q    Type
REMARK                         _______ _______ _______ _____ _____    ______ ____
ROOT
ATOM      1  C   UNL     1       3.418   5.827  19.287  0.00  0.00    +0.000 C 
ATOM      2  N   UNL     1       3.921   5.537  17.944  0.00  0.00    +0.000 NA
ATOM      3  C   UNL     1       4.750   6.649  17.460  0.00  0.00    +0.000 C 
ATOM      4  C   UNL     1       5.232   6.394  16.033  0.00  0.00    +0.000 C 
ATOM      5  C   UNL     1       5.987   5.062  15.938  0.00  0.00    +0.000 C 
ATOM      6  C   UNL     1       5.152   3.922  16.535  0.00  0.00    +0.000 C 
ATOM      7  C   UNL     1       4.673   4.275  17.942  0.00  0.00    +0.000 C 
ENDROOT
BRANCH   5   8
ATOM      8  C   UNL     1       6.428   4.756  14.521  0.00  0.00    +0.000 A 
ATOM      9  C   UNL     1       5.760   3.817  13.734  0.00  0.00    +0.000 A 
ATOM     10  C   UNL     1       6.209   3.576  12.439  0.00  0.00    +0.000 A 
ATOM     11  C   UNL     1       7.312   4.270  11.962  0.00  0.00    +0.000 A 
ATOM     12  C   UNL     1       7.922   5.181  12.804  0.00  0.00    +0.000 A 
ATOM     13  N   UNL     1       7.508   5.438  14.065  0.00  0.00    +0.000 NA
ENDBRANCH   5   8
TORSDOF 1
ENDMDL
MODEL 4
REMARK VINA RESULT:      -6.0      1.909      5.096
REMARK  Name = 
REMARK  2 active torsions:
REMARK  status: ('A' for Active; 'I' for Inactive)
REMARK    1  A    between atoms: C_1  and  N_2
REMARK    2  A    between atoms: C_5  and  C_6
REMARK                            x       y       z     vdW  Elec       q    Type
REMARK                         _______ _______ _______ _____ _____    ______ ____
ROOT
ATOM      1  C   UNL     1       7.243   4.808  15.653  0.00  0.00    +0.000 C 
ATOM      2  N   UNL     1       6.295   4.327  16.658  0.00  0.00    +0.000 NA
ATOM      3  C   UNL     1       6.289   5.223  17.822  0.00  0.00    +0.000 C 
ATOM      4  C   UNL     1       5.352   4.702  18.911  0.00  0.00    +0.000 C 
ATOM      5  C   UNL     1       3.933   4.500  18.364  0.00  0.00    +0.000 C 
ATOM      6  C   UNL     1       3.960   3.643  17.093  0.00  0.00    +0.000 C 
ATOM      7  C   UNL     1       4.951   4.205  16.075  0.00  0.00    +0.000 C 
ENDROOT
BRANCH   5   8
ATOM      8  C   UNL     1       2.995   3.931  19.409  0.00  0.00    +0.000 A 
ATOM      9  C   UNL     1       1.636   4.250  19.424  0.00  0.00    +0.000 A 
ATOM     10  C   UNL     1       0.820   3.698  20.406  0.00  0.00    +0.000 A 
ATOM     11  C   UNL     1       1.376   2.846  21.350  0.00  0.00    +0.000 A 
ATOM     12  C   UNL     1       2.731   2.580  21.271  0.00  0.00    +0.000 A 
ATOM     13  N   UNL     1       3.547   3.101  20.328  0.00  0.00    +0.000 NA
ENDBRANCH   5   8
TORSDOF 1
ENDMDL
MODEL 5
REMARK VINA RESULT:      -5.9      1.953      5.146
REMARK  Name = 
REMARK  2 active torsions:
REMARK  status: ('A' for Active; 'I' for Inactive)
REMARK    1  A    between atoms: C_1  and  N_2
REMARK    2  A    between atoms: C_5  and  C_6
REMARK                            x       y       z     vdW  Elec       q    Type
REMARK                         _______ _______ _______ _____ _____    ______ ____
ROOT
ATOM      1  C   UNL     1       7.033   5.146  15.616  0.00  0.00    +0.000 C 
ATOM      2  N   UNL     1       5.965   4.969  16.600  0.00  0.00    +0.000 NA
ATOM      3  C   UNL     1       5.030   3.926  16.155  0.00  0.00    +0.000 C 
ATOM      4  C   UNL     1       3.871   3.772  17.139  0.00  0.00    +0.000 C 
ATOM      5  C   UNL     1       4.387   3.482  18.554  0.00  0.00    +0.000 C 
ATOM      6  C   UNL     1       5.434   4.521  18.973  0.00  0.00    +0.000 C 
ATOM      7  C   UNL     1       6.532   4.646  17.917  0.00  0.00    +0.000 C 
ENDROOT
BRANCH   5   8
ATOM      8  C   UNL     1       3.260   3.379  19.562  0.00  0.00    +0.000 A 
ATOM      9  C   UNL     1       2.052   4.053  19.380  0.00  0.00    +0.000 A 
ATOM     10  C   UNL     1       1.051   3.923  20.338  0.00  0.00    +0.000 A 
ATOM     11  C   UNL     1       1.278   3.130  21.454  0.00  0.00    +0.000 A 
ATOM     12  C   UNL     1       2.503   2.496  21.565  0.00  0.00    +0.000 A 
ATOM     13  N   UNL     1       3.492   2.603  20.649  0.00  0.00    +0.000 NA
ENDBRANCH   5   8
TORSDOF 1
ENDMDL
MODEL 6
REMARK VINA RESULT:      -5.9      1.468      1.468
REMARK  Name = 
REMARK  2 active torsions:
REMARK  status: ('A' for Active; 'I' for Inactive)
REMARK    1  A    between atoms: C_1  and  N_2
REMARK    2  A    between atoms: C_5  and  C_6
REMARK                            x       y       z     vdW  Elec       q    Type
REMARK                         _______ _______ _______ _____ _____    ______ ____
ROOT
ATOM      1  C   UNL     1       1.374   2.668  21.485  0.00  0.00    +0.000 C 
ATOM      2  N   UNL     1       2.542   3.414  21.015  0.00  0.00    +0.000 NA
ATOM      3  C   UNL     1       3.322   2.599  20.075  0.00  0.00    +0.000 C 
ATOM      4  C   UNL     1       4.581   3.337  19.622  0.00  0.00    +0.000 C 
ATOM      5  C   UNL     1       4.229   4.698  19.009  0.00  0.00    +0.000 C 
ATOM      6  C   UNL     1       3.333   5.504  19.958  0.00  0.00    +0.000 C 
ATOM      7  C   UNL     1       2.124   4.680  20.398  0.00  0.00    +0.000 C 
ENDROOT
BRANCH   5   8
ATOM      8  C   UNL     1       5.463   5.477  18.601  0.00  0.00    +0.000 A 
ATOM      9  C   UNL     1       5.435   6.396  17.552  0.00  0.00    +0.000 A 
ATOM     10  C   UNL     1       6.598   7.084  17.221  0.00  0.00    +0.000 A 
ATOM     11  C   UNL     1       7.760   6.838  17.938  0.00  0.00    +0.000 A 
ATOM     12  C   UNL     1       7.709   5.909  18.962  0.00  0.00    +0.000 A 
ATOM     13  N   UNL     1       6.594   5.228  19.307  0.00  0.00    +0.000 NA
ENDBRANCH   5   8
TORSDOF 1
ENDMDL
MODEL 7
REMARK VINA RESULT:      -5.8      0.968      1.987
REMARK  Name = 
REMARK  2 active torsions:
REMARK  status: ('A' for Active; 'I' for Inactive)
REMARK    1  A    between atoms: C_1  and  N_2
REMARK    2  A    between atoms: C_5  and  C_6
REMARK                            x       y       z     vdW  Elec       q    Type
REMARK                         _______ _______ _______ _____ _____    ______ ____
ROOT
ATOM      1  C   UNL     1       0.833   2.206  18.733  0.00  0.00    +0.000 C 
ATOM      2  N   UNL     1       2.042   2.965  18.412  0.00  0.00    +0.000 NA
ATOM      3  C   UNL     1       1.750   4.405  18.396  0.00  0.00    +0.000 C 
ATOM      4  C   UNL     1       2.985   5.210  17.998  0.00  0.00    +0.000 C 
ATOM      5  C   UNL     1       4.167   4.899  18.926  0.00  0.00    +0.000 C 
ATOM      6  C   UNL     1       4.402   3.386  19.012  0.00  0.00    +0.000 C 
ATOM      7  C   UNL     1       3.111   2.651  19.370  0.00  0.00    +0.000 C 
ENDROOT
BRANCH   5   8
ATOM      8  C   UNL     1       5.422   5.643  18.520  0.00  0.00    +0.000 A 
ATOM      9  C   UNL     1       6.636   5.444  19.180  0.00  0.00    +0.000 A 
ATOM     10  C   UNL     1       7.758   6.155  18.766  0.00  0.00    +0.000 A 
ATOM     11  C   UNL     1       7.645   7.046  17.708  0.00  0.00    +0.000 A 
ATOM     12  C   UNL     1       6.407   7.191  17.107  0.00  0.00    +0.000 A 
ATOM     13  N   UNL     1       5.301   6.513  17.487  0.00  0.00    +0.000 NA
ENDBRANCH   5   8
TORSDOF 1
ENDMDL
MODEL 8
REMARK VINA RESULT:      -5.7      1.825      2.622
REMARK  Name = 
REMARK  2 active torsions:
REMARK  status: ('A' for Active; 'I' for Inactive)
REMARK    1  A    between atoms: C_1  and  N_2
REMARK    2  A    between atoms: C_5  and  C_6
REMARK                            x       y       z     vdW  Elec       q    Type
REMARK                         _______ _______ _______ _____ _____    ______ ____
ROOT
ATOM      1  C   UNL     1       1.147   2.824  21.096  0.00  0.00    +0.000 C 
ATOM      2  N   UNL     1       2.077   2.996  19.980  0.00  0.00    +0.000 NA
ATOM      3  C   UNL     1       1.842   4.285  19.315  0.00  0.00    +0.000 C 
ATOM      4  C   UNL     1       2.760   4.454  18.106  0.00  0.00    +0.000 C 
ATOM      5  C   UNL     1       4.233   4.302  18.509  0.00  0.00    +0.000 C 
ATOM      6  C   UNL     1       4.449   2.998  19.287  0.00  0.00    +0.000 C 
ATOM      7  C   UNL     1       3.465   2.886  20.449  0.00  0.00    +0.000 C 
ENDROOT
BRANCH   5   8
ATOM      8  C   UNL     1       5.164   4.410  17.318  0.00  0.00    +0.000 A 
ATOM      9  C   UNL     1       4.688   4.338  16.009  0.00  0.00    +0.000 A 
ATOM     10  C   UNL     1       5.589   4.444  14.953  0.00  0.00    +0.000 A 
ATOM     11  C   UNL     1       6.939   4.614  15.226  0.00  0.00    +0.000 A 
ATOM     12  C   UNL     1       7.333   4.672  16.551  0.00  0.00    +0.000 A 
ATOM     13  N   UNL     1       6.481   4.575  17.596  0.00  0.00    +0.000 NA
ENDBRANCH   5   8
TORSDOF 1
ENDMDL
MODEL 9
REMARK VINA RESULT:      -5.7      1.356      5.455
REMARK  Name = 
REMARK  2 active torsions:
REMARK  status: ('A' for Active; 'I' for Inactive)
REMARK    1  A    between atoms: C_1  and  N_2
REMARK    2  A    between atoms: C_5  and  C_6
REMARK                            x       y       z     vdW  Elec       q    Type
REMARK                         _______ _______ _______ _____ _____    ______ ____
ROOT
ATOM      1  C   UNL     1       7.511   7.117  17.266  0.00  0.00    +0.000 C 
ATOM      2  N   UNL     1       6.329   6.514  17.883  0.00  0.00    +0.000 NA
ATOM      3  C   UNL     1       5.157   6.688  17.015  0.00  0.00    +0.000 C 
ATOM      4  C   UNL     1       3.899   6.123  17.672  0.00  0.00    +0.000 C 
ATOM      5  C   UNL     1       4.092   4.648  18.049  0.00  0.00    +0.000 C 
ATOM      6  C   UNL     1       5.371   4.463  18.874  0.00  0.00    +0.000 C 
ATOM      7  C   UNL     1       6.571   5.094  18.170  0.00  0.00    +0.000 C 
ENDROOT
BRANCH   5   8
ATOM      8  C   UNL     1       2.879   4.076  18.753  0.00  0.00    +0.000 A 
ATOM      9  C   UNL     1       2.045   3.144  18.134  0.00  0.00    +0.000 A 
ATOM     10  C   UNL     1       0.944   2.651  18.828  0.00  0.00    +0.000 A 
ATOM     11  C   UNL     1       0.698   3.100  20.118  0.00  0.00    +0.000 A 
ATOM     12  C   UNL     1       1.569   4.028  20.662  0.00  0.00    +0.000 A 
ATOM     13  N   UNL     1       2.646   4.522  20.013  0.00  0.00    +0.000 NA
ENDBRANCH   5   8
TORSDOF 1
ENDMDL
