MODEL 1
REMARK VINA RESULT:      -7.6      0.000      0.000
REMARK  Name = 
REMARK  8 active torsions:
REMARK  status: ('A' for Active; 'I' for Inactive)
REMARK    1  A    between atoms: C_1  and  C_2
REMARK    2  A    between atoms: C_2  and  O_3
REMARK    3  A    between atoms: O_3  and  C_4
REMARK    4  A    between atoms: C_4  and  C_6
REMARK    5  A    between atoms: C_9  and  N_10
REMARK    6  A    between atoms: C_11  and  C_13
REMARK    7  A    between atoms: C_13  and  N_14
REMARK    8  A    between atoms: C_21  and  C_22
REMARK                            x       y       z     vdW  Elec       q    Type
REMARK                         _______ _______ _______ _____ _____    ______ ____
ROOT
ATOM      1  N   UNL     1       3.798   5.977  19.082  0.00  0.00    +0.000 N 
ATOM      2  C   UNL     1       2.489   5.627  19.393  0.00  0.00    +0.000 C 
ATOM      3  O   UNL     1       1.762   4.895  18.719  0.00  0.00    +0.000 OA
ATOM      4  H   UNL     1       4.349   6.374  19.839  0.00  0.00    +0.000 HD
ENDROOT
BRANCH   1   8
ATOM      5  C   UNL     1       5.932   5.038  15.553  0.00  0.00    +0.000 A 
ATOM      6  C   UNL     1       5.861   4.104  16.588  0.00  0.00    +0.000 A 
ATOM      7  C   UNL     1       5.145   4.394  17.752  0.00  0.00    +0.000 A 
ATOM      8  C   UNL     1       4.492   5.620  17.906  0.00  0.00    +0.000 A 
ATOM      9  C   UNL     1       4.524   6.538  16.851  0.00  0.00    +0.000 A 
ATOM     10  C   UNL     1       5.248   6.254  15.682  0.00  0.00    +0.000 A 
BRANCH   5  11
ATOM     11  C   UNL     1       6.801   4.711  14.393  0.00  0.00    +0.000 C 
ATOM     12  O   UNL     1       7.708   5.420  13.999  0.00  0.00    +0.000 OA
BRANCH  11  13
ATOM     13  O   UNL     1       6.343   3.585  13.785  0.00  0.00    +0.000 OA
BRANCH  13  15
ATOM     14  C   UNL     1       5.061   3.195  11.812  0.00  0.00    +0.000 C 
ATOM     15  C   UNL     1       6.423   3.592  12.354  0.00  0.00    +0.000 C 
ENDBRANCH  13  15
ENDBRANCH  11  13
ENDBRANCH   5  11
ENDBRANCH   1   8
BRANCH   2  16
ATOM     16  C   UNL     1       1.976   6.206  20.686  0.00  0.00    +0.000 C 
BRANCH  16  17
ATOM     17  N   UNL     1       1.506   7.557  20.478  0.00  0.00    +0.000 N 
ATOM     18  C   UNL     1       0.822   8.336  21.368  0.00  0.00    +0.000 A 
ATOM     19  C   UNL     1       0.689   9.567  20.767  0.00  0.00    +0.000 A 
ATOM     20  C   UNL     1       1.287   9.414  19.506  0.00  0.00    +0.000 A 
ATOM     21  N   UNL     1       1.778   8.183  19.315  0.00  0.00    +0.000 NA
ATOM     22  C   UNL     1       1.410  10.479  18.494  0.00  0.00    +0.000 C 
ATOM     23  C   UNL     1       0.838  11.836  18.929  0.00  0.00    +0.000 C 
ATOM     24  C   UNL     1       0.034  11.968  20.251  0.00  0.00    +0.000 C 
ATOM     25  C   UNL     1      -1.430  12.322  19.958  0.00  0.00    +0.000 C 
ATOM     26  C   UNL     1       0.120  10.825  21.288  0.00  0.00    +0.000 C 
ENDBRANCH  16  17
ENDBRANCH   2  16
TORSDOF 6
ENDMDL
MODEL 2
REMARK VINA RESULT:      -7.5      2.889      8.402
REMARK  Name = 
REMARK  8 active torsions:
REMARK  status: ('A' for Active; 'I' for Inactive)
REMARK    1  A    between atoms: C_1  and  C_2
REMARK    2  A    between atoms: C_2  and  O_3
REMARK    3  A    between atoms: O_3  and  C_4
REMARK    4  A    between atoms: C_4  and  C_6
REMARK    5  A    between atoms: C_9  and  N_10
REMARK    6  A    between atoms: C_11  and  C_13
REMARK    7  A    between atoms: C_13  and  N_14
REMARK    8  A    between atoms: C_21  and  C_22
REMARK                            x       y       z     vdW  Elec       q    Type
REMARK                         _______ _______ _______ _____ _____    ______ ____
ROOT
ATOM      1  N   UNL     1       2.684   6.519  20.050  0.00  0.00    +0.000 N 
ATOM      2  C   UNL     1       2.241   5.224  20.297  0.00  0.00    +0.000 C 
ATOM      3  O   UNL     1       1.075   4.892  20.511  0.00  0.00    +0.000 OA
ATOM      4  H   UNL     1       3.614   6.608  19.650  0.00  0.00    +0.000 HD
ENDROOT
BRANCH   1   8
ATOM      5  C   UNL     1       0.244   9.974  20.010  0.00  0.00    +0.000 A 
ATOM      6  C   UNL     1       0.369   9.228  21.183  0.00  0.00    +0.000 A 
ATOM      7  C   UNL     1       1.185   8.095  21.216  0.00  0.00    +0.000 A 
ATOM      8  C   UNL     1       1.887   7.683  20.080  0.00  0.00    +0.000 A 
ATOM      9  C   UNL     1       1.798   8.455  18.917  0.00  0.00    +0.000 A 
ATOM     10  C   UNL     1       0.974   9.591  18.877  0.00  0.00    +0.000 A 
BRANCH   5  11
ATOM     11  C   UNL     1      -0.725  11.100  20.013  0.00  0.00    +0.000 C 
ATOM     12  O   UNL     1      -1.264  11.533  21.015  0.00  0.00    +0.000 OA
BRANCH  11  13
ATOM     13  O   UNL     1      -1.000  11.468  18.734  0.00  0.00    +0.000 OA
BRANCH  13  15
ATOM     14  C   UNL     1      -2.644  10.043  17.756  0.00  0.00    +0.000 C 
ATOM     15  C   UNL     1      -2.384  11.408  18.369  0.00  0.00    +0.000 C 
ENDBRANCH  13  15
ENDBRANCH  11  13
ENDBRANCH   5  11
ENDBRANCH   1   8
BRANCH   2  16
ATOM     16  C   UNL     1       3.325   4.177  20.268  0.00  0.00    +0.000 C 
BRANCH  16  17
ATOM     17  N   UNL     1       4.103   4.295  19.055  0.00  0.00    +0.000 N 
ATOM     18  C   UNL     1       3.629   4.505  17.792  0.00  0.00    +0.000 A 
ATOM     19  C   UNL     1       4.739   4.653  16.992  0.00  0.00    +0.000 A 
ATOM     20  C   UNL     1       5.829   4.476  17.860  0.00  0.00    +0.000 A 
ATOM     21  N   UNL     1       5.449   4.242  19.122  0.00  0.00    +0.000 NA
ATOM     22  C   UNL     1       7.247   4.564  17.465  0.00  0.00    +0.000 C 
ATOM     23  C   UNL     1       7.473   4.901  15.984  0.00  0.00    +0.000 C 
ATOM     24  C   UNL     1       6.280   4.937  14.991  0.00  0.00    +0.000 C 
ATOM     25  C   UNL     1       6.409   3.816  13.951  0.00  0.00    +0.000 C 
ATOM     26  C   UNL     1       4.843   4.989  15.559  0.00  0.00    +0.000 C 
ENDBRANCH  16  17
ENDBRANCH   2  16
TORSDOF 6
ENDMDL
MODEL 3
REMARK VINA RESULT:      -7.3      2.884      8.427
REMARK  Name = 
REMARK  8 active torsions:
REMARK  status: ('A' for Active; 'I' for Inactive)
REMARK    1  A    between atoms: C_1  and  C_2
REMARK    2  A    between atoms: C_2  and  O_3
REMARK    3  A    between atoms: O_3  and  C_4
REMARK    4  A    between atoms: C_4  and  C_6
REMARK    5  A    between atoms: C_9  and  N_10
REMARK    6  A    between atoms: C_11  and  C_13
REMARK    7  A    between atoms: C_13  and  N_14
REMARK    8  A    between atoms: C_21  and  C_22
REMARK                            x       y       z     vdW  Elec       q    Type
REMARK                         _______ _______ _______ _____ _____    ______ ____
ROOT
ATOM      1  N   UNL     1       2.772   6.349  19.874  0.00  0.00    +0.000 N 
ATOM      2  C   UNL     1       2.317   5.083  20.222  0.00  0.00    +0.000 C 
ATOM      3  O   UNL     1       1.172   4.803  20.579  0.00  0.00    +0.000 OA
ATOM      4  H   UNL     1       3.653   6.388  19.369  0.00  0.00    +0.000 HD
ENDROOT
BRANCH   1   8
ATOM      5  C   UNL     1       0.473   9.899  19.950  0.00  0.00    +0.000 A 
ATOM      6  C   UNL     1       0.573   9.114  21.100  0.00  0.00    +0.000 A 
ATOM      7  C   UNL     1       1.343   7.948  21.094  0.00  0.00    +0.000 A 
ATOM      8  C   UNL     1       2.023   7.543  19.942  0.00  0.00    +0.000 A 
ATOM      9  C   UNL     1       1.960   8.353  18.803  0.00  0.00    +0.000 A 
ATOM     10  C   UNL     1       1.181   9.521  18.802  0.00  0.00    +0.000 A 
BRANCH   5  11
ATOM     11  C   UNL     1      -0.450  11.062  19.993  0.00  0.00    +0.000 C 
ATOM     12  O   UNL     1      -0.964  11.488  21.011  0.00  0.00    +0.000 OA
BRANCH  11  13
ATOM     13  O   UNL     1      -0.719  11.477  18.727  0.00  0.00    +0.000 OA
BRANCH  13  15
ATOM     14  C   UNL     1       0.754  13.337  18.488  0.00  0.00    +0.000 C 
ATOM     15  C   UNL     1      -0.698  12.897  18.535  0.00  0.00    +0.000 C 
ENDBRANCH  13  15
ENDBRANCH  11  13
ENDBRANCH   5  11
ENDBRANCH   1   8
BRANCH   2  16
ATOM     16  C   UNL     1       3.356   3.995  20.117  0.00  0.00    +0.000 C 
BRANCH  16  17
ATOM     17  N   UNL     1       4.120   4.148  18.900  0.00  0.00    +0.000 N 
ATOM     18  C   UNL     1       3.629   4.294  17.634  0.00  0.00    +0.000 A 
ATOM     19  C   UNL     1       4.723   4.512  16.828  0.00  0.00    +0.000 A 
ATOM     20  C   UNL     1       5.824   4.438  17.695  0.00  0.00    +0.000 A 
ATOM     21  N   UNL     1       5.466   4.202  18.963  0.00  0.00    +0.000 NA
ATOM     22  C   UNL     1       7.230   4.629  17.294  0.00  0.00    +0.000 C 
ATOM     23  C   UNL     1       7.427   4.952  15.806  0.00  0.00    +0.000 C 
ATOM     24  C   UNL     1       6.233   4.875  14.816  0.00  0.00    +0.000 C 
ATOM     25  C   UNL     1       6.447   3.746  13.799  0.00  0.00    +0.000 C 
ATOM     26  C   UNL     1       4.798   4.826  15.388  0.00  0.00    +0.000 C 
ENDBRANCH  16  17
ENDBRANCH   2  16
TORSDOF 6
ENDMDL
MODEL 4
REMARK VINA RESULT:      -7.1      0.863      1.254
REMARK  Name = 
REMARK  8 active torsions:
REMARK  status: ('A' for Active; 'I' for Inactive)
REMARK    1  A    between atoms: C_1  and  C_2
REMARK    2  A    between atoms: C_2  and  O_3
REMARK    3  A    between atoms: O_3  and  C_4
REMARK    4  A    between atoms: C_4  and  C_6
REMARK    5  A    between atoms: C_9  and  N_10
REMARK    6  A    between atoms: C_11  and  C_13
REMARK    7  A    between atoms: C_13  and  N_14
REMARK    8  A    between atoms: C_21  and  C_22
REMARK                            x       y       z     vdW  Elec       q    Type
REMARK                         _______ _______ _______ _____ _____    ______ ____
ROOT
ATOM      1  N   UNL     1       3.128   5.655  18.153  0.00  0.00    +0.000 N 
ATOM      2  C   UNL     1       3.371   5.684  19.521  0.00  0.00    +0.000 C 
ATOM      3  O   UNL     1       4.472   5.559  20.058  0.00  0.00    +0.000 OA
ATOM      4  H   UNL     1       2.228   6.015  17.848  0.00  0.00    +0.000 HD
ENDROOT
BRANCH   1   8
ATOM      5  C   UNL     1       5.918   4.792  15.093  0.00  0.00    +0.000 A 
ATOM      6  C   UNL     1       5.656   6.119  15.436  0.00  0.00    +0.000 A 
ATOM      7  C   UNL     1       4.750   6.418  16.457  0.00  0.00    +0.000 A 
ATOM      8  C   UNL     1       4.087   5.401  17.149  0.00  0.00    +0.000 A 
ATOM      9  C   UNL     1       4.384   4.070  16.837  0.00  0.00    +0.000 A 
ATOM     10  C   UNL     1       5.288   3.765  15.808  0.00  0.00    +0.000 A 
BRANCH   5  11
ATOM     11  C   UNL     1       6.806   4.548  13.927  0.00  0.00    +0.000 C 
ATOM     12  O   UNL     1       7.642   5.338  13.530  0.00  0.00    +0.000 OA
BRANCH  11  13
ATOM     13  O   UNL     1       6.447   3.387  13.317  0.00  0.00    +0.000 OA
BRANCH  13  15
ATOM     14  C   UNL     1       4.689   3.216  11.714  0.00  0.00    +0.000 C 
ATOM     15  C   UNL     1       6.168   3.498  11.916  0.00  0.00    +0.000 C 
ENDBRANCH  13  15
ENDBRANCH  11  13
ENDBRANCH   5  11
ENDBRANCH   1   8
BRANCH   2  16
ATOM     16  C   UNL     1       2.145   5.909  20.370  0.00  0.00    +0.000 C 
BRANCH  16  17
ATOM     17  N   UNL     1       1.698   7.278  20.250  0.00  0.00    +0.000 N 
ATOM     18  C   UNL     1       1.094   8.033  21.214  0.00  0.00    +0.000 A 
ATOM     19  C   UNL     1       0.954   9.292  20.676  0.00  0.00    +0.000 A 
ATOM     20  C   UNL     1       1.467   9.180  19.374  0.00  0.00    +0.000 A 
ATOM     21  N   UNL     1       1.912   7.948  19.099  0.00  0.00    +0.000 NA
ATOM     22  C   UNL     1       1.553  10.286  18.401  0.00  0.00    +0.000 C 
ATOM     23  C   UNL     1       1.046  11.635  18.930  0.00  0.00    +0.000 C 
ATOM     24  C   UNL     1       0.332  11.728  20.306  0.00  0.00    +0.000 C 
ATOM     25  C   UNL     1      -1.139  12.129  20.124  0.00  0.00    +0.000 C 
ATOM     26  C   UNL     1       0.454  10.539  21.285  0.00  0.00    +0.000 C 
ENDBRANCH  16  17
ENDBRANCH   2  16
TORSDOF 6
ENDMDL
MODEL 5
REMARK VINA RESULT:      -7.1      0.628      1.694
REMARK  Name = 
REMARK  8 active torsions:
REMARK  status: ('A' for Active; 'I' for Inactive)
REMARK    1  A    between atoms: C_1  and  C_2
REMARK    2  A    between atoms: C_2  and  O_3
REMARK    3  A    between atoms: O_3  and  C_4
REMARK    4  A    between atoms: C_4  and  C_6
REMARK    5  A    between atoms: C_9  and  N_10
REMARK    6  A    between atoms: C_11  and  C_13
REMARK    7  A    between atoms: C_13  and  N_14
REMARK    8  A    between atoms: C_21  and  C_22
REMARK                            x       y       z     vdW  Elec       q    Type
REMARK                         _______ _______ _______ _____ _____    ______ ____
ROOT
ATOM      1  N   UNL     1       3.902   6.046  19.102  0.00  0.00    +0.000 N 
ATOM      2  C   UNL     1       2.570   5.691  19.280  0.00  0.00    +0.000 C 
ATOM      3  O   UNL     1       1.889   5.033  18.493  0.00  0.00    +0.000 OA
ATOM      4  H   UNL     1       4.397   6.367  19.929  0.00  0.00    +0.000 HD
ENDROOT
BRANCH   1   8
ATOM      5  C   UNL     1       6.210   5.111  15.682  0.00  0.00    +0.000 A 
ATOM      6  C   UNL     1       5.337   6.200  15.652  0.00  0.00    +0.000 A 
ATOM      7  C   UNL     1       4.582   6.531  16.780  0.00  0.00    +0.000 A 
ATOM      8  C   UNL     1       4.680   5.781  17.954  0.00  0.00    +0.000 A 
ATOM      9  C   UNL     1       5.588   4.718  18.001  0.00  0.00    +0.000 A 
ATOM     10  C   UNL     1       6.344   4.377  16.868  0.00  0.00    +0.000 A 
BRANCH   5  11
ATOM     11  C   UNL     1       6.898   4.749  14.416  0.00  0.00    +0.000 C 
ATOM     12  O   UNL     1       7.823   5.379  13.938  0.00  0.00    +0.000 OA
BRANCH  11  13
ATOM     13  O   UNL     1       6.255   3.703  13.833  0.00  0.00    +0.000 OA
BRANCH  13  15
ATOM     14  C   UNL     1       5.083   3.138  11.834  0.00  0.00    +0.000 C 
ATOM     15  C   UNL     1       6.404   3.616  12.410  0.00  0.00    +0.000 C 
ENDBRANCH  13  15
ENDBRANCH  11  13
ENDBRANCH   5  11
ENDBRANCH   1   8
BRANCH   2  16
ATOM     16  C   UNL     1       1.965   6.165  20.578  0.00  0.00    +0.000 C 
BRANCH  16  17
ATOM     17  N   UNL     1       1.580   7.554  20.473  0.00  0.00    +0.000 N 
ATOM     18  C   UNL     1       1.631   8.339  19.357  0.00  0.00    +0.000 A 
ATOM     19  C   UNL     1       1.065   9.541  19.715  0.00  0.00    +0.000 A 
ATOM     20  C   UNL     1       0.743   9.392  21.073  0.00  0.00    +0.000 A 
ATOM     21  N   UNL     1       1.067   8.184  21.550  0.00  0.00    +0.000 NA
ATOM     22  C   UNL     1       0.089  10.419  21.904  0.00  0.00    +0.000 C 
ATOM     23  C   UNL     1      -0.257  11.715  21.156  0.00  0.00    +0.000 C 
ATOM     24  C   UNL     1       0.240  11.945  19.703  0.00  0.00    +0.000 C 
ATOM     25  C   UNL     1       1.245  13.105  19.654  0.00  0.00    +0.000 C 
ATOM     26  C   UNL     1       0.768  10.735  18.899  0.00  0.00    +0.000 C 
ENDBRANCH  16  17
ENDBRANCH   2  16
TORSDOF 6
ENDMDL
MODEL 6
REMARK VINA RESULT:      -7.1      5.841      8.200
REMARK  Name = 
REMARK  8 active torsions:
REMARK  status: ('A' for Active; 'I' for Inactive)
REMARK    1  A    between atoms: C_1  and  C_2
REMARK    2  A    between atoms: C_2  and  O_3
REMARK    3  A    between atoms: O_3  and  C_4
REMARK    4  A    between atoms: C_4  and  C_6
REMARK    5  A    between atoms: C_9  and  N_10
REMARK    6  A    between atoms: C_11  and  C_13
REMARK    7  A    between atoms: C_13  and  N_14
REMARK    8  A    between atoms: C_21  and  C_22
REMARK                            x       y       z     vdW  Elec       q    Type
REMARK                         _______ _______ _______ _____ _____    ______ ____
ROOT
ATOM      1  N   UNL     1       7.698   8.376  17.368  0.00  0.00    +0.000 N 
ATOM      2  C   UNL     1       7.728   7.081  17.872  0.00  0.00    +0.000 C 
ATOM      3  O   UNL     1       8.209   6.742  18.954  0.00  0.00    +0.000 OA
ATOM      4  H   UNL     1       7.060   8.543  16.594  0.00  0.00    +0.000 HD
ENDROOT
BRANCH   1   8
ATOM      5  C   UNL     1       9.564  11.700  19.201  0.00  0.00    +0.000 A 
ATOM      6  C   UNL     1       8.812  11.882  18.038  0.00  0.00    +0.000 A 
ATOM      7  C   UNL     1       8.176  10.796  17.432  0.00  0.00    +0.000 A 
ATOM      8  C   UNL     1       8.281   9.511  17.971  0.00  0.00    +0.000 A 
ATOM      9  C   UNL     1       8.996   9.335  19.161  0.00  0.00    +0.000 A 
ATOM     10  C   UNL     1       9.642  10.423  19.770  0.00  0.00    +0.000 A 
BRANCH   5  11
ATOM     11  C   UNL     1      10.304  12.875  19.729  0.00  0.00    +0.000 C 
ATOM     12  O   UNL     1      10.412  13.136  20.913  0.00  0.00    +0.000 OA
BRANCH  11  13
ATOM     13  O   UNL     1      10.715  13.656  18.696  0.00  0.00    +0.000 OA
BRANCH  13  15
ATOM     14  C   UNL     1      12.163  13.343  16.827  0.00  0.00    +0.000 C 
ATOM     15  C   UNL     1      12.094  13.509  18.335  0.00  0.00    +0.000 C 
ENDBRANCH  13  15
ENDBRANCH  11  13
ENDBRANCH   5  11
ENDBRANCH   1   8
BRANCH   2  16
ATOM     16  C   UNL     1       7.084   6.048  16.983  0.00  0.00    +0.000 C 
BRANCH  16  17
ATOM     17  N   UNL     1       5.915   5.492  17.626  0.00  0.00    +0.000 N 
ATOM     18  C   UNL     1       4.625   5.923  17.502  0.00  0.00    +0.000 A 
ATOM     19  C   UNL     1       3.857   5.025  18.208  0.00  0.00    +0.000 A 
ATOM     20  C   UNL     1       4.781   4.118  18.751  0.00  0.00    +0.000 A 
ATOM     21  N   UNL     1       6.044   4.403  18.412  0.00  0.00    +0.000 NA
ATOM     22  C   UNL     1       4.430   2.949  19.579  0.00  0.00    +0.000 C 
ATOM     23  C   UNL     1       2.923   2.761  19.804  0.00  0.00    +0.000 C 
ATOM     24  C   UNL     1       1.913   3.847  19.344  0.00  0.00    +0.000 C 
ATOM     25  C   UNL     1       1.223   4.489  20.555  0.00  0.00    +0.000 C 
ATOM     26  C   UNL     1       2.392   4.932  18.352  0.00  0.00    +0.000 C 
ENDBRANCH  16  17
ENDBRANCH   2  16
TORSDOF 6
ENDMDL
MODEL 7
REMARK VINA RESULT:      -7.0      2.832      8.443
REMARK  Name = 
REMARK  8 active torsions:
REMARK  status: ('A' for Active; 'I' for Inactive)
REMARK    1  A    between atoms: C_1  and  C_2
REMARK    2  A    between atoms: C_2  and  O_3
REMARK    3  A    between atoms: O_3  and  C_4
REMARK    4  A    between atoms: C_4  and  C_6
REMARK    5  A    between atoms: C_9  and  N_10
REMARK    6  A    between atoms: C_11  and  C_13
REMARK    7  A    between atoms: C_13  and  N_14
REMARK    8  A    between atoms: C_21  and  C_22
REMARK                            x       y       z     vdW  Elec       q    Type
REMARK                         _______ _______ _______ _____ _____    ______ ____
ROOT
ATOM      1  N   UNL     1       2.809   6.433  19.827  0.00  0.00    +0.000 N 
ATOM      2  C   UNL     1       2.370   5.156  20.157  0.00  0.00    +0.000 C 
ATOM      3  O   UNL     1       1.220   4.853  20.476  0.00  0.00    +0.000 OA
ATOM      4  H   UNL     1       3.705   6.492  19.350  0.00  0.00    +0.000 HD
ENDROOT
BRANCH   1   8
ATOM      5  C   UNL     1       0.552  10.000  20.094  0.00  0.00    +0.000 A 
ATOM      6  C   UNL     1       1.054   9.590  18.858  0.00  0.00    +0.000 A 
ATOM      7  C   UNL     1       1.786   8.405  18.752  0.00  0.00    +0.000 A 
ATOM      8  C   UNL     1       2.034   7.612  19.876  0.00  0.00    +0.000 A 
ATOM      9  C   UNL     1       1.493   7.998  21.106  0.00  0.00    +0.000 A 
ATOM     10  C   UNL     1       0.762   9.192  21.219  0.00  0.00    +0.000 A 
BRANCH   5  11
ATOM     11  C   UNL     1      -0.121  11.324  20.155  0.00  0.00    +0.000 C 
ATOM     12  O   UNL     1      -1.319  11.487  20.017  0.00  0.00    +0.000 OA
BRANCH  11  13
ATOM     13  O   UNL     1       0.814  12.305  20.258  0.00  0.00    +0.000 OA
BRANCH  13  15
ATOM     14  C   UNL     1       2.150  13.100  18.449  0.00  0.00    +0.000 C 
ATOM     15  C   UNL     1       0.826  13.247  19.179  0.00  0.00    +0.000 C 
ENDBRANCH  13  15
ENDBRANCH  11  13
ENDBRANCH   5  11
ENDBRANCH   1   8
BRANCH   2  16
ATOM     16  C   UNL     1       3.433   4.090  20.082  0.00  0.00    +0.000 C 
BRANCH  16  17
ATOM     17  N   UNL     1       4.181   4.215  18.851  0.00  0.00    +0.000 N 
ATOM     18  C   UNL     1       3.675   4.388  17.595  0.00  0.00    +0.000 A 
ATOM     19  C   UNL     1       4.762   4.562  16.770  0.00  0.00    +0.000 A 
ATOM     20  C   UNL     1       5.875   4.437  17.618  0.00  0.00    +0.000 A 
ATOM     21  N   UNL     1       5.529   4.211  18.891  0.00  0.00    +0.000 NA
ATOM     22  C   UNL     1       7.281   4.569  17.192  0.00  0.00    +0.000 C 
ATOM     23  C   UNL     1       7.464   4.889  15.702  0.00  0.00    +0.000 C 
ATOM     24  C   UNL     1       6.251   4.868  14.733  0.00  0.00    +0.000 C 
ATOM     25  C   UNL     1       6.398   3.735  13.708  0.00  0.00    +0.000 C 
ATOM     26  C   UNL     1       4.825   4.879  15.330  0.00  0.00    +0.000 C 
ENDBRANCH  16  17
ENDBRANCH   2  16
TORSDOF 6
ENDMDL
MODEL 8
REMARK VINA RESULT:      -7.0      2.903      8.669
REMARK  Name = 
REMARK  8 active torsions:
REMARK  status: ('A' for Active; 'I' for Inactive)
REMARK    1  A    between atoms: C_1  and  C_2
REMARK    2  A    between atoms: C_2  and  O_3
REMARK    3  A    between atoms: O_3  and  C_4
REMARK    4  A    between atoms: C_4  and  C_6
REMARK    5  A    between atoms: C_9  and  N_10
REMARK    6  A    between atoms: C_11  and  C_13
REMARK    7  A    between atoms: C_13  and  N_14
REMARK    8  A    between atoms: C_21  and  C_22
REMARK                            x       y       z     vdW  Elec       q    Type
REMARK                         _______ _______ _______ _____ _____    ______ ____
ROOT
ATOM      1  N   UNL     1       2.817   6.061  19.577  0.00  0.00    +0.000 N 
ATOM      2  C   UNL     1       2.367   4.846  20.083  0.00  0.00    +0.000 C 
ATOM      3  O   UNL     1       1.299   4.663  20.669  0.00  0.00    +0.000 OA
ATOM      4  H   UNL     1       3.584   6.015  18.911  0.00  0.00    +0.000 HD
ENDROOT
BRANCH   1   8
ATOM      5  C   UNL     1       0.803   9.769  19.867  0.00  0.00    +0.000 A 
ATOM      6  C   UNL     1       0.900   8.944  20.989  0.00  0.00    +0.000 A 
ATOM      7  C   UNL     1       1.577   7.725  20.912  0.00  0.00    +0.000 A 
ATOM      8  C   UNL     1       2.166   7.305  19.716  0.00  0.00    +0.000 A 
ATOM      9  C   UNL     1       2.109   8.151  18.604  0.00  0.00    +0.000 A 
ATOM     10  C   UNL     1       1.423   9.374  18.674  0.00  0.00    +0.000 A 
BRANCH   5  11
ATOM     11  C   UNL     1      -0.025  10.997  19.988  0.00  0.00    +0.000 C 
ATOM     12  O   UNL     1       0.159  12.010  19.339  0.00  0.00    +0.000 OA
BRANCH  11  13
ATOM     13  O   UNL     1      -0.912  10.849  21.007  0.00  0.00    +0.000 OA
BRANCH  13  15
ATOM     14  C   UNL     1      -1.107  12.396  22.812  0.00  0.00    +0.000 C 
ATOM     15  C   UNL     1      -1.579  12.051  21.410  0.00  0.00    +0.000 C 
ENDBRANCH  13  15
ENDBRANCH  11  13
ENDBRANCH   5  11
ENDBRANCH   1   8
BRANCH   2  16
ATOM     16  C   UNL     1       3.300   3.686  19.846  0.00  0.00    +0.000 C 
BRANCH  16  17
ATOM     17  N   UNL     1       4.083   3.909  18.652  0.00  0.00    +0.000 N 
ATOM     18  C   UNL     1       3.615   4.047  17.376  0.00  0.00    +0.000 A 
ATOM     19  C   UNL     1       4.712   4.347  16.602  0.00  0.00    +0.000 A 
ATOM     20  C   UNL     1       5.794   4.327  17.496  0.00  0.00    +0.000 A 
ATOM     21  N   UNL     1       5.421   4.046  18.750  0.00  0.00    +0.000 NA
ATOM     22  C   UNL     1       7.195   4.613  17.135  0.00  0.00    +0.000 C 
ATOM     23  C   UNL     1       7.408   4.974  15.657  0.00  0.00    +0.000 C 
ATOM     24  C   UNL     1       6.246   4.840  14.636  0.00  0.00    +0.000 C 
ATOM     25  C   UNL     1       6.556   3.745  13.607  0.00  0.00    +0.000 C 
ATOM     26  C   UNL     1       4.803   4.691  15.170  0.00  0.00    +0.000 C 
ENDBRANCH  16  17
ENDBRANCH   2  16
TORSDOF 6
ENDMDL
MODEL 9
REMARK VINA RESULT:      -6.9      2.632      9.327
REMARK  Name = 
REMARK  8 active torsions:
REMARK  status: ('A' for Active; 'I' for Inactive)
REMARK    1  A    between atoms: C_1  and  C_2
REMARK    2  A    between atoms: C_2  and  O_3
REMARK    3  A    between atoms: O_3  and  C_4
REMARK    4  A    between atoms: C_4  and  C_6
REMARK    5  A    between atoms: C_9  and  N_10
REMARK    6  A    between atoms: C_11  and  C_13
REMARK    7  A    between atoms: C_13  and  N_14
REMARK    8  A    between atoms: C_21  and  C_22
REMARK                            x       y       z     vdW  Elec       q    Type
REMARK                         _______ _______ _______ _____ _____    ______ ____
ROOT
ATOM      1  N   UNL     1       4.118   6.052  18.446  0.00  0.00    +0.000 N 
ATOM      2  C   UNL     1       5.332   6.245  17.796  0.00  0.00    +0.000 C 
ATOM      3  O   UNL     1       5.756   7.320  17.370  0.00  0.00    +0.000 OA
ATOM      4  H   UNL     1       4.014   5.178  18.954  0.00  0.00    +0.000 HD
ENDROOT
BRANCH   1   8
ATOM      5  C   UNL     1       1.210   9.024  19.222  0.00  0.00    +0.000 A 
ATOM      6  C   UNL     1       1.853   8.991  17.984  0.00  0.00    +0.000 A 
ATOM      7  C   UNL     1       2.802   8.005  17.707  0.00  0.00    +0.000 A 
ATOM      8  C   UNL     1       3.131   7.038  18.661  0.00  0.00    +0.000 A 
ATOM      9  C   UNL     1       2.455   7.042  19.885  0.00  0.00    +0.000 A 
ATOM     10  C   UNL     1       1.504   8.035  20.170  0.00  0.00    +0.000 A 
BRANCH   5  11
ATOM     11  C   UNL     1       0.295  10.163  19.490  0.00  0.00    +0.000 C 
ATOM     12  O   UNL     1       0.188  11.136  18.767  0.00  0.00    +0.000 OA
BRANCH  11  13
ATOM     13  O   UNL     1      -0.289  10.002  20.707  0.00  0.00    +0.000 OA
BRANCH  13  15
ATOM     14  C   UNL     1      -0.976  10.855  22.826  0.00  0.00    +0.000 C 
ATOM     15  C   UNL     1      -0.050  11.063  21.640  0.00  0.00    +0.000 C 
ENDBRANCH  13  15
ENDBRANCH  11  13
ENDBRANCH   5  11
ENDBRANCH   1   8
BRANCH   2  16
ATOM     16  C   UNL     1       6.166   4.999  17.645  0.00  0.00    +0.000 C 
BRANCH  16  17
ATOM     17  N   UNL     1       6.342   4.681  16.245  0.00  0.00    +0.000 N 
ATOM     18  C   UNL     1       5.596   3.815  15.499  0.00  0.00    +0.000 A 
ATOM     19  C   UNL     1       6.067   3.925  14.210  0.00  0.00    +0.000 A 
ATOM     20  C   UNL     1       7.119   4.851  14.294  0.00  0.00    +0.000 A 
ATOM     21  N   UNL     1       7.305   5.309  15.538  0.00  0.00    +0.000 NA
ATOM     22  C   UNL     1       7.930   5.315  13.153  0.00  0.00    +0.000 C 
ATOM     23  C   UNL     1       7.520   4.717  11.800  0.00  0.00    +0.000 C 
ATOM     24  C   UNL     1       6.469   3.576  11.725  0.00  0.00    +0.000 C 
ATOM     25  C   UNL     1       7.116   2.278  11.223  0.00  0.00    +0.000 C 
ATOM     26  C   UNL     1       5.586   3.300  12.963  0.00  0.00    +0.000 C 
ENDBRANCH  16  17
ENDBRANCH   2  16
TORSDOF 6
ENDMDL
