MODEL 1
REMARK VINA RESULT:      -7.4      0.000      0.000
REMARK  Name = 
REMARK  12 active torsions:
REMARK  status: ('A' for Active; 'I' for Inactive)
REMARK    1  A    between atoms: C_1  and  O_2
REMARK    2  A    between atoms: O_2  and  C_3
REMARK    3  A    between atoms: C_7  and  C_8
REMARK    4  A    between atoms: C_8  and  N_9
REMARK    5  A    between atoms: C_15  and  C_16
REMARK    6  A    between atoms: C_16  and  C_17
REMARK    7  A    between atoms: N_19  and  C_20
REMARK    8  A    between atoms: N_19  and  C_27
REMARK    9  A    between atoms: C_20  and  C_21
REMARK   10  A    between atoms: N_24  and  C_25
REMARK   11  A    between atoms: C_27  and  C_28
REMARK   12  A    between atoms: C_27  and  C_29
REMARK                            x       y       z     vdW  Elec       q    Type
REMARK                         _______ _______ _______ _____ _____    ______ ____
ROOT
ATOM      1  N   UNL     1       2.630   4.647  17.810  0.00  0.00    +0.000 NA
ATOM      2  C   UNL     1       1.815   3.503  17.356  0.00  0.00    +0.000 C 
ATOM      3  C   UNL     1       1.430   2.509  18.463  0.00  0.00    +0.000 C 
ATOM      4  N   UNL     1       0.936   3.148  19.659  0.00  0.00    +0.000 N 
ATOM      5  C   UNL     1       1.367   4.390  20.051  0.00  0.00    +0.000 C 
ATOM      6  O   UNL     1       1.122   4.778  21.193  0.00  0.00    +0.000 OA
ATOM      7  C   UNL     1       1.922   5.314  18.949  0.00  0.00    +0.000 C 
ATOM      8  H   UNL     1       0.565   2.582  20.414  0.00  0.00    +0.000 HD
ENDROOT
BRANCH   1   9
ATOM      9  C   UNL     1       4.011   4.318  18.167  0.00  0.00    +0.000 C 
BRANCH   9  14
ATOM     10  C   UNL     1       6.912   5.891  16.321  0.00  0.00    +0.000 A 
ATOM     11  C   UNL     1       7.058   5.065  15.210  0.00  0.00    +0.000 A 
ATOM     12  C   UNL     1       6.188   3.986  15.021  0.00  0.00    +0.000 A 
ATOM     13  C   UNL     1       5.209   3.695  15.976  0.00  0.00    +0.000 A 
ATOM     14  C   UNL     1       5.076   4.502  17.110  0.00  0.00    +0.000 A 
ATOM     15  C   UNL     1       5.878   5.648  17.217  0.00  0.00    +0.000 A 
BRANCH  10  17
ATOM     16  C   UNL     1       7.635   7.685  17.649  0.00  0.00    +0.000 C 
ATOM     17  O   UNL     1       7.801   6.923  16.451  0.00  0.00    +0.000 OA
ENDBRANCH  10  17
ENDBRANCH   9  14
ENDBRANCH   1   9
BRANCH   7  18
ATOM     18  C   UNL     1       2.588   6.560  19.513  0.00  0.00    +0.000 C 
BRANCH  18  19
ATOM     19  C   UNL     1       2.301   7.958  18.919  0.00  0.00    +0.000 C 
ATOM     20  O   UNL     1       2.703   8.292  17.815  0.00  0.00    +0.000 OA
ATOM     21  N   UNL     1       1.464   8.777  19.715  0.00  0.00    +0.000 N 
BRANCH  21  22
ATOM     22  C   UNL     1       1.087   8.390  21.101  0.00  0.00    +0.000 C 
ATOM     23  C   UNL     1       1.467   9.463  22.142  0.00  0.00    +0.000 C 
ATOM     24  C   UNL     1      -0.378   8.017  21.321  0.00  0.00    +0.000 C 
ENDBRANCH  21  22
BRANCH  21  25
ATOM     25  C   UNL     1       1.143  10.128  19.213  0.00  0.00    +0.000 C 
BRANCH  25  26
ATOM     26  C   UNL     1      -0.265  10.230  18.696  0.00  0.00    +0.000 A 
ATOM     27  C   UNL     1      -0.791   9.588  17.543  0.00  0.00    +0.000 A 
ATOM     28  N   UNL     1      -2.059   9.923  17.291  0.00  0.00    +0.000 NA
ATOM     29  N   UNL     1      -2.360  10.780  18.283  0.00  0.00    +0.000 N 
ATOM     30  C   UNL     1      -3.639  11.453  18.291  0.00  0.00    +0.000 C 
ATOM     31  C   UNL     1      -1.340  10.947  19.180  0.00  0.00    +0.000 A 
ENDBRANCH  25  26
ENDBRANCH  21  25
ENDBRANCH  18  19
ENDBRANCH   7  18
TORSDOF 8
ENDMDL
MODEL 2
REMARK VINA RESULT:      -7.3      1.103      1.866
REMARK  Name = 
REMARK  12 active torsions:
REMARK  status: ('A' for Active; 'I' for Inactive)
REMARK    1  A    between atoms: C_1  and  O_2
REMARK    2  A    between atoms: O_2  and  C_3
REMARK    3  A    between atoms: C_7  and  C_8
REMARK    4  A    between atoms: C_8  and  N_9
REMARK    5  A    between atoms: C_15  and  C_16
REMARK    6  A    between atoms: C_16  and  C_17
REMARK    7  A    between atoms: N_19  and  C_20
REMARK    8  A    between atoms: N_19  and  C_27
REMARK    9  A    between atoms: C_20  and  C_21
REMARK   10  A    between atoms: N_24  and  C_25
REMARK   11  A    between atoms: C_27  and  C_28
REMARK   12  A    between atoms: C_27  and  C_29
REMARK                            x       y       z     vdW  Elec       q    Type
REMARK                         _______ _______ _______ _____ _____    ______ ____
ROOT
ATOM      1  N   UNL     1       3.201   4.232  18.366  0.00  0.00    +0.000 NA
ATOM      2  C   UNL     1       2.883   2.968  17.675  0.00  0.00    +0.000 C 
ATOM      3  C   UNL     1       2.536   1.796  18.606  0.00  0.00    +0.000 C 
ATOM      4  N   UNL     1       1.602   2.151  19.648  0.00  0.00    +0.000 N 
ATOM      5  C   UNL     1       1.552   3.415  20.180  0.00  0.00    +0.000 C 
ATOM      6  O   UNL     1       0.933   3.601  21.228  0.00  0.00    +0.000 OA
ATOM      7  C   UNL     1       2.075   4.563  19.296  0.00  0.00    +0.000 C 
ATOM      8  H   UNL     1       1.232   1.430  20.258  0.00  0.00    +0.000 HD
ENDROOT
BRANCH   1   9
ATOM      9  C   UNL     1       4.486   4.247  19.067  0.00  0.00    +0.000 C 
BRANCH   9  14
ATOM     10  C   UNL     1       6.700   5.729  16.383  0.00  0.00    +0.000 A 
ATOM     11  C   UNL     1       7.685   6.381  17.118  0.00  0.00    +0.000 A 
ATOM     12  C   UNL     1       7.667   6.328  18.515  0.00  0.00    +0.000 A 
ATOM     13  C   UNL     1       6.627   5.673  19.182  0.00  0.00    +0.000 A 
ATOM     14  C   UNL     1       5.616   5.039  18.451  0.00  0.00    +0.000 A 
ATOM     15  C   UNL     1       5.722   5.002  17.052  0.00  0.00    +0.000 A 
BRANCH  10  17
ATOM     16  C   UNL     1       6.587   4.585  14.337  0.00  0.00    +0.000 C 
ATOM     17  O   UNL     1       6.771   5.827  15.020  0.00  0.00    +0.000 OA
ENDBRANCH  10  17
ENDBRANCH   9  14
ENDBRANCH   1   9
BRANCH   7  18
ATOM     18  C   UNL     1       2.199   5.875  20.058  0.00  0.00    +0.000 C 
BRANCH  18  19
ATOM     19  C   UNL     1       2.283   7.226  19.312  0.00  0.00    +0.000 C 
ATOM     20  O   UNL     1       2.826   7.337  18.223  0.00  0.00    +0.000 OA
ATOM     21  N   UNL     1       1.607   8.295  19.948  0.00  0.00    +0.000 N 
BRANCH  21  22
ATOM     22  C   UNL     1       1.058   8.159  21.324  0.00  0.00    +0.000 C 
ATOM     23  C   UNL     1       1.549   9.272  22.273  0.00  0.00    +0.000 C 
ATOM     24  C   UNL     1      -0.464   8.079  21.437  0.00  0.00    +0.000 C 
ENDBRANCH  21  22
BRANCH  21  25
ATOM     25  C   UNL     1       1.642   9.619  19.295  0.00  0.00    +0.000 C 
BRANCH  25  26
ATOM     26  C   UNL     1       0.296  10.040  18.776  0.00  0.00    +0.000 A 
ATOM     27  C   UNL     1      -0.537  11.057  19.313  0.00  0.00    +0.000 A 
ATOM     28  N   UNL     1      -1.710  11.160  18.682  0.00  0.00    +0.000 NA
ATOM     29  N   UNL     1      -1.637  10.214  17.729  0.00  0.00    +0.000 N 
ATOM     30  C   UNL     1      -2.784   9.943  16.892  0.00  0.00    +0.000 C 
ATOM     31  C   UNL     1      -0.434   9.560  17.708  0.00  0.00    +0.000 A 
ENDBRANCH  25  26
ENDBRANCH  21  25
ENDBRANCH  18  19
ENDBRANCH   7  18
TORSDOF 8
ENDMDL
MODEL 3
REMARK VINA RESULT:      -7.1      1.308      1.680
REMARK  Name = 
REMARK  12 active torsions:
REMARK  status: ('A' for Active; 'I' for Inactive)
REMARK    1  A    between atoms: C_1  and  O_2
REMARK    2  A    between atoms: O_2  and  C_3
REMARK    3  A    between atoms: C_7  and  C_8
REMARK    4  A    between atoms: C_8  and  N_9
REMARK    5  A    between atoms: C_15  and  C_16
REMARK    6  A    between atoms: C_16  and  C_17
REMARK    7  A    between atoms: N_19  and  C_20
REMARK    8  A    between atoms: N_19  and  C_27
REMARK    9  A    between atoms: C_20  and  C_21
REMARK   10  A    between atoms: N_24  and  C_25
REMARK   11  A    between atoms: C_27  and  C_28
REMARK   12  A    between atoms: C_27  and  C_29
REMARK                            x       y       z     vdW  Elec       q    Type
REMARK                         _______ _______ _______ _____ _____    ______ ____
ROOT
ATOM      1  N   UNL     1       3.547   4.668  18.037  0.00  0.00    +0.000 NA
ATOM      2  C   UNL     1       3.239   3.521  17.161  0.00  0.00    +0.000 C 
ATOM      3  C   UNL     1       2.488   2.371  17.849  0.00  0.00    +0.000 C 
ATOM      4  N   UNL     1       1.376   2.814  18.655  0.00  0.00    +0.000 N 
ATOM      5  C   UNL     1       1.376   4.033  19.285  0.00  0.00    +0.000 C 
ATOM      6  O   UNL     1       0.537   4.256  20.158  0.00  0.00    +0.000 OA
ATOM      7  C   UNL     1       2.278   5.128  18.685  0.00  0.00    +0.000 C 
ATOM      8  H   UNL     1       0.756   2.131  19.075  0.00  0.00    +0.000 HD
ENDROOT
BRANCH   1   9
ATOM      9  C   UNL     1       4.589   4.420  19.034  0.00  0.00    +0.000 C 
BRANCH   9  14
ATOM     10  C   UNL     1       6.994   7.083  17.841  0.00  0.00    +0.000 A 
ATOM     11  C   UNL     1       8.152   6.802  18.560  0.00  0.00    +0.000 A 
ATOM     12  C   UNL     1       8.184   5.713  19.436  0.00  0.00    +0.000 A 
ATOM     13  C   UNL     1       7.038   4.938  19.639  0.00  0.00    +0.000 A 
ATOM     14  C   UNL     1       5.861   5.232  18.942  0.00  0.00    +0.000 A 
ATOM     15  C   UNL     1       5.889   6.252  17.979  0.00  0.00    +0.000 A 
BRANCH  10  17
ATOM     16  C   UNL     1       7.815   9.255  17.497  0.00  0.00    +0.000 C 
ATOM     17  O   UNL     1       7.026   8.169  17.007  0.00  0.00    +0.000 OA
ENDBRANCH  10  17
ENDBRANCH   9  14
ENDBRANCH   1   9
BRANCH   7  18
ATOM     18  C   UNL     1       2.390   6.350  19.585  0.00  0.00    +0.000 C 
BRANCH  18  19
ATOM     19  C   UNL     1       2.211   7.777  19.019  0.00  0.00    +0.000 C 
ATOM     20  O   UNL     1       2.630   8.099  17.917  0.00  0.00    +0.000 OA
ATOM     21  N   UNL     1       1.450   8.646  19.838  0.00  0.00    +0.000 N 
BRANCH  21  22
ATOM     22  C   UNL     1       1.056   8.264  21.221  0.00  0.00    +0.000 C 
ATOM     23  C   UNL     1       1.524   9.286  22.277  0.00  0.00    +0.000 C 
ATOM     24  C   UNL     1      -0.432   7.999  21.447  0.00  0.00    +0.000 C 
ENDBRANCH  21  22
BRANCH  21  25
ATOM     25  C   UNL     1       1.235  10.027  19.365  0.00  0.00    +0.000 C 
BRANCH  25  26
ATOM     26  C   UNL     1      -0.154  10.244  18.833  0.00  0.00    +0.000 A 
ATOM     27  C   UNL     1      -0.680   9.743  17.613  0.00  0.00    +0.000 A 
ATOM     28  N   UNL     1      -1.926  10.159  17.370  0.00  0.00    +0.000 NA
ATOM     29  N   UNL     1      -2.213  10.926  18.437  0.00  0.00    +0.000 N 
ATOM     30  C   UNL     1      -3.461  11.653  18.487  0.00  0.00    +0.000 C 
ATOM     31  C   UNL     1      -1.208  10.958  19.366  0.00  0.00    +0.000 A 
ENDBRANCH  25  26
ENDBRANCH  21  25
ENDBRANCH  18  19
ENDBRANCH   7  18
TORSDOF 8
ENDMDL
MODEL 4
REMARK VINA RESULT:      -6.9      1.033      1.731
REMARK  Name = 
REMARK  12 active torsions:
REMARK  status: ('A' for Active; 'I' for Inactive)
REMARK    1  A    between atoms: C_1  and  O_2
REMARK    2  A    between atoms: O_2  and  C_3
REMARK    3  A    between atoms: C_7  and  C_8
REMARK    4  A    between atoms: C_8  and  N_9
REMARK    5  A    between atoms: C_15  and  C_16
REMARK    6  A    between atoms: C_16  and  C_17
REMARK    7  A    between atoms: N_19  and  C_20
REMARK    8  A    between atoms: N_19  and  C_27
REMARK    9  A    between atoms: C_20  and  C_21
REMARK   10  A    between atoms: N_24  and  C_25
REMARK   11  A    between atoms: C_27  and  C_28
REMARK   12  A    between atoms: C_27  and  C_29
REMARK                            x       y       z     vdW  Elec       q    Type
REMARK                         _______ _______ _______ _____ _____    ______ ____
ROOT
ATOM      1  N   UNL     1       2.785   4.386  18.112  0.00  0.00    +0.000 NA
ATOM      2  C   UNL     1       2.243   3.154  17.505  0.00  0.00    +0.000 C 
ATOM      3  C   UNL     1       2.062   1.983  18.483  0.00  0.00    +0.000 C 
ATOM      4  N   UNL     1       1.422   2.363  19.719  0.00  0.00    +0.000 N 
ATOM      5  C   UNL     1       1.569   3.616  20.258  0.00  0.00    +0.000 C 
ATOM      6  O   UNL     1       1.227   3.812  21.424  0.00  0.00    +0.000 OA
ATOM      7  C   UNL     1       1.932   4.755  19.285  0.00  0.00    +0.000 C 
ATOM      8  H   UNL     1       1.168   1.650  20.394  0.00  0.00    +0.000 HD
ENDROOT
BRANCH   1   9
ATOM      9  C   UNL     1       4.198   4.319  18.487  0.00  0.00    +0.000 C 
BRANCH   9  14
ATOM     10  C   UNL     1       6.292   4.233  15.339  0.00  0.00    +0.000 A 
ATOM     11  C   UNL     1       7.124   5.338  15.489  0.00  0.00    +0.000 A 
ATOM     12  C   UNL     1       7.041   6.126  16.641  0.00  0.00    +0.000 A 
ATOM     13  C   UNL     1       6.082   5.844  17.620  0.00  0.00    +0.000 A 
ATOM     14  C   UNL     1       5.222   4.752  17.463  0.00  0.00    +0.000 A 
ATOM     15  C   UNL     1       5.405   3.906  16.359  0.00  0.00    +0.000 A 
BRANCH  10  17
ATOM     16  C   UNL     1       5.588   3.971  13.116  0.00  0.00    +0.000 C 
ATOM     17  O   UNL     1       6.418   3.509  14.184  0.00  0.00    +0.000 OA
ENDBRANCH  10  17
ENDBRANCH   9  14
ENDBRANCH   1   9
BRANCH   7  18
ATOM     18  C   UNL     1       2.304   6.042  20.006  0.00  0.00    +0.000 C 
BRANCH  18  19
ATOM     19  C   UNL     1       2.271   7.404  19.276  0.00  0.00    +0.000 C 
ATOM     20  O   UNL     1       2.766   7.564  18.170  0.00  0.00    +0.000 OA
ATOM     21  N   UNL     1       1.548   8.418  19.950  0.00  0.00    +0.000 N 
BRANCH  21  22
ATOM     22  C   UNL     1       1.059   8.230  21.343  0.00  0.00    +0.000 C 
ATOM     23  C   UNL     1       1.502   9.366  22.288  0.00  0.00    +0.000 C 
ATOM     24  C   UNL     1      -0.448   8.039  21.507  0.00  0.00    +0.000 C 
ENDBRANCH  21  22
BRANCH  21  25
ATOM     25  C   UNL     1       1.471   9.748  19.315  0.00  0.00    +0.000 C 
BRANCH  25  26
ATOM     26  C   UNL     1       0.080  10.088  18.857  0.00  0.00    +0.000 A 
ATOM     27  C   UNL     1      -0.550   9.642  17.665  0.00  0.00    +0.000 A 
ATOM     28  N   UNL     1      -1.767  10.166  17.489  0.00  0.00    +0.000 NA
ATOM     29  N   UNL     1      -1.930  10.948  18.571  0.00  0.00    +0.000 N 
ATOM     30  C   UNL     1      -3.106  11.780  18.688  0.00  0.00    +0.000 C 
ATOM     31  C   UNL     1      -0.879  10.887  19.446  0.00  0.00    +0.000 A 
ENDBRANCH  25  26
ENDBRANCH  21  25
ENDBRANCH  18  19
ENDBRANCH   7  18
TORSDOF 8
ENDMDL
MODEL 5
REMARK VINA RESULT:      -6.8      3.182      7.490
REMARK  Name = 
REMARK  12 active torsions:
REMARK  status: ('A' for Active; 'I' for Inactive)
REMARK    1  A    between atoms: C_1  and  O_2
REMARK    2  A    between atoms: O_2  and  C_3
REMARK    3  A    between atoms: C_7  and  C_8
REMARK    4  A    between atoms: C_8  and  N_9
REMARK    5  A    between atoms: C_15  and  C_16
REMARK    6  A    between atoms: C_16  and  C_17
REMARK    7  A    between atoms: N_19  and  C_20
REMARK    8  A    between atoms: N_19  and  C_27
REMARK    9  A    between atoms: C_20  and  C_21
REMARK   10  A    between atoms: N_24  and  C_25
REMARK   11  A    between atoms: C_27  and  C_28
REMARK   12  A    between atoms: C_27  and  C_29
REMARK                            x       y       z     vdW  Elec       q    Type
REMARK                         _______ _______ _______ _____ _____    ______ ____
ROOT
ATOM      1  N   UNL     1       2.979   4.729  20.285  0.00  0.00    +0.000 NA
ATOM      2  C   UNL     1       1.953   4.278  21.245  0.00  0.00    +0.000 C 
ATOM      3  C   UNL     1       1.028   3.167  20.724  0.00  0.00    +0.000 C 
ATOM      4  N   UNL     1       1.736   2.094  20.070  0.00  0.00    +0.000 N 
ATOM      5  C   UNL     1       2.911   2.304  19.393  0.00  0.00    +0.000 C 
ATOM      6  O   UNL     1       3.337   1.426  18.643  0.00  0.00    +0.000 OA
ATOM      7  C   UNL     1       3.743   3.533  19.808  0.00  0.00    +0.000 C 
ATOM      8  H   UNL     1       1.232   1.266  19.774  0.00  0.00    +0.000 HD
ENDROOT
BRANCH   1   9
ATOM      9  C   UNL     1       2.468   5.512  19.158  0.00  0.00    +0.000 C 
BRANCH   9  14
ATOM     10  C   UNL     1       1.293   8.554  21.071  0.00  0.00    +0.000 A 
ATOM     11  C   UNL     1       1.227   9.535  20.086  0.00  0.00    +0.000 A 
ATOM     12  C   UNL     1       1.539   9.217  18.761  0.00  0.00    +0.000 A 
ATOM     13  C   UNL     1       1.976   7.931  18.429  0.00  0.00    +0.000 A 
ATOM     14  C   UNL     1       2.073   6.947  19.418  0.00  0.00    +0.000 A 
ATOM     15  C   UNL     1       1.639   7.256  20.716  0.00  0.00    +0.000 A 
BRANCH  10  17
ATOM     16  C   UNL     1      -0.363   9.382  22.513  0.00  0.00    +0.000 C 
ATOM     17  O   UNL     1       0.983   8.933  22.350  0.00  0.00    +0.000 OA
ENDBRANCH  10  17
ENDBRANCH   9  14
ENDBRANCH   1   9
BRANCH   7  18
ATOM     18  C   UNL     1       4.892   3.811  18.849  0.00  0.00    +0.000 C 
BRANCH  18  19
ATOM     19  C   UNL     1       4.630   4.359  17.428  0.00  0.00    +0.000 C 
ATOM     20  O   UNL     1       3.680   3.993  16.753  0.00  0.00    +0.000 OA
ATOM     21  N   UNL     1       5.524   5.376  17.014  0.00  0.00    +0.000 N 
BRANCH  21  22
ATOM     22  C   UNL     1       6.737   5.716  17.806  0.00  0.00    +0.000 C 
ATOM     23  C   UNL     1       7.828   4.630  17.719  0.00  0.00    +0.000 C 
ATOM     24  C   UNL     1       7.387   7.064  17.497  0.00  0.00    +0.000 C 
ENDBRANCH  21  22
BRANCH  21  25
ATOM     25  C   UNL     1       5.338   5.951  15.667  0.00  0.00    +0.000 C 
BRANCH  25  26
ATOM     26  C   UNL     1       5.890   5.068  14.583  0.00  0.00    +0.000 A 
ATOM     27  C   UNL     1       7.206   5.105  14.051  0.00  0.00    +0.000 A 
ATOM     28  N   UNL     1       7.388   4.245  13.045  0.00  0.00    +0.000 NA
ATOM     29  N   UNL     1       6.190   3.645  12.926  0.00  0.00    +0.000 N 
ATOM     30  C   UNL     1       5.957   2.708  11.851  0.00  0.00    +0.000 C 
ATOM     31  C   UNL     1       5.282   4.061  13.862  0.00  0.00    +0.000 A 
ENDBRANCH  25  26
ENDBRANCH  21  25
ENDBRANCH  18  19
ENDBRANCH   7  18
TORSDOF 8
ENDMDL
MODEL 6
REMARK VINA RESULT:      -6.7      2.696      8.650
REMARK  Name = 
REMARK  12 active torsions:
REMARK  status: ('A' for Active; 'I' for Inactive)
REMARK    1  A    between atoms: C_1  and  O_2
REMARK    2  A    between atoms: O_2  and  C_3
REMARK    3  A    between atoms: C_7  and  C_8
REMARK    4  A    between atoms: C_8  and  N_9
REMARK    5  A    between atoms: C_15  and  C_16
REMARK    6  A    between atoms: C_16  and  C_17
REMARK    7  A    between atoms: N_19  and  C_20
REMARK    8  A    between atoms: N_19  and  C_27
REMARK    9  A    between atoms: C_20  and  C_21
REMARK   10  A    between atoms: N_24  and  C_25
REMARK   11  A    between atoms: C_27  and  C_28
REMARK   12  A    between atoms: C_27  and  C_29
REMARK                            x       y       z     vdW  Elec       q    Type
REMARK                         _______ _______ _______ _____ _____    ______ ____
ROOT
ATOM      1  N   UNL     1       0.218  10.421  18.760  0.00  0.00    +0.000 NA
ATOM      2  C   UNL     1       0.160  11.883  18.952  0.00  0.00    +0.000 C 
ATOM      3  C   UNL     1      -0.229  12.330  20.370  0.00  0.00    +0.000 C 
ATOM      4  N   UNL     1       0.485  11.626  21.408  0.00  0.00    +0.000 N 
ATOM      5  C   UNL     1       0.906  10.330  21.249  0.00  0.00    +0.000 C 
ATOM      6  O   UNL     1       1.273   9.693  22.237  0.00  0.00    +0.000 OA
ATOM      7  C   UNL     1       1.118   9.839  19.804  0.00  0.00    +0.000 C 
ATOM      8  H   UNL     1       0.375  11.910  22.374  0.00  0.00    +0.000 HD
ENDROOT
BRANCH   1   9
ATOM      9  C   UNL     1      -1.082   9.748  18.750  0.00  0.00    +0.000 C 
BRANCH   9  14
ATOM     10  C   UNL     1      -4.201  11.441  17.442  0.00  0.00    +0.000 A 
ATOM     11  C   UNL     1      -4.178  11.130  16.086  0.00  0.00    +0.000 A 
ATOM     12  C   UNL     1      -3.154  10.331  15.568  0.00  0.00    +0.000 A 
ATOM     13  C   UNL     1      -2.116   9.892  16.396  0.00  0.00    +0.000 A 
ATOM     14  C   UNL     1      -2.116  10.225  17.755  0.00  0.00    +0.000 A 
ATOM     15  C   UNL     1      -3.216  10.923  18.275  0.00  0.00    +0.000 A 
BRANCH  10  17
ATOM     16  C   UNL     1      -6.490  11.569  17.944  0.00  0.00    +0.000 C 
ATOM     17  O   UNL     1      -5.226  12.233  17.883  0.00  0.00    +0.000 OA
ENDBRANCH  10  17
ENDBRANCH   9  14
ENDBRANCH   1   9
BRANCH   7  18
ATOM     18  C   UNL     1       1.349   8.336  19.727  0.00  0.00    +0.000 C 
BRANCH  18  19
ATOM     19  C   UNL     1       2.246   7.722  18.628  0.00  0.00    +0.000 C 
ATOM     20  O   UNL     1       2.792   8.404  17.774  0.00  0.00    +0.000 OA
ATOM     21  N   UNL     1       2.451   6.326  18.746  0.00  0.00    +0.000 N 
BRANCH  21  22
ATOM     22  C   UNL     1       1.682   5.506  19.721  0.00  0.00    +0.000 C 
ATOM     23  C   UNL     1       1.261   4.138  19.146  0.00  0.00    +0.000 C 
ATOM     24  C   UNL     1       2.352   5.264  21.073  0.00  0.00    +0.000 C 
ENDBRANCH  21  22
BRANCH  21  25
ATOM     25  C   UNL     1       3.297   5.665  17.733  0.00  0.00    +0.000 C 
BRANCH  25  26
ATOM     26  C   UNL     1       4.745   5.616  18.135  0.00  0.00    +0.000 A 
ATOM     27  C   UNL     1       5.357   4.648  18.975  0.00  0.00    +0.000 A 
ATOM     28  N   UNL     1       6.647   4.902  19.212  0.00  0.00    +0.000 NA
ATOM     29  N   UNL     1       6.876   6.033  18.521  0.00  0.00    +0.000 N 
ATOM     30  C   UNL     1       8.158   6.691  18.620  0.00  0.00    +0.000 C 
ATOM     31  C   UNL     1       5.785   6.464  17.814  0.00  0.00    +0.000 A 
ENDBRANCH  25  26
ENDBRANCH  21  25
ENDBRANCH  18  19
ENDBRANCH   7  18
TORSDOF 8
ENDMDL
MODEL 7
REMARK VINA RESULT:      -6.7      1.222      1.881
REMARK  Name = 
REMARK  12 active torsions:
REMARK  status: ('A' for Active; 'I' for Inactive)
REMARK    1  A    between atoms: C_1  and  O_2
REMARK    2  A    between atoms: O_2  and  C_3
REMARK    3  A    between atoms: C_7  and  C_8
REMARK    4  A    between atoms: C_8  and  N_9
REMARK    5  A    between atoms: C_15  and  C_16
REMARK    6  A    between atoms: C_16  and  C_17
REMARK    7  A    between atoms: N_19  and  C_20
REMARK    8  A    between atoms: N_19  and  C_27
REMARK    9  A    between atoms: C_20  and  C_21
REMARK   10  A    between atoms: N_24  and  C_25
REMARK   11  A    between atoms: C_27  and  C_28
REMARK   12  A    between atoms: C_27  and  C_29
REMARK                            x       y       z     vdW  Elec       q    Type
REMARK                         _______ _______ _______ _____ _____    ______ ____
ROOT
ATOM      1  N   UNL     1       2.801   4.857  18.054  0.00  0.00    +0.000 NA
ATOM      2  C   UNL     1       2.261   3.630  17.437  0.00  0.00    +0.000 C 
ATOM      3  C   UNL     1       2.056   2.458  18.409  0.00  0.00    +0.000 C 
ATOM      4  N   UNL     1       1.398   2.841  19.636  0.00  0.00    +0.000 N 
ATOM      5  C   UNL     1       1.544   4.093  20.179  0.00  0.00    +0.000 C 
ATOM      6  O   UNL     1       1.183   4.289  21.339  0.00  0.00    +0.000 OA
ATOM      7  C   UNL     1       1.930   5.230  19.213  0.00  0.00    +0.000 C 
ATOM      8  H   UNL     1       1.128   2.129  20.304  0.00  0.00    +0.000 HD
ENDROOT
BRANCH   1   9
ATOM      9  C   UNL     1       4.207   4.781  18.453  0.00  0.00    +0.000 C 
BRANCH   9  14
ATOM     10  C   UNL     1       5.652   4.382  14.982  0.00  0.00    +0.000 A 
ATOM     11  C   UNL     1       7.024   4.459  15.205  0.00  0.00    +0.000 A 
ATOM     12  C   UNL     1       7.513   4.615  16.506  0.00  0.00    +0.000 A 
ATOM     13  C   UNL     1       6.629   4.755  17.579  0.00  0.00    +0.000 A 
ATOM     14  C   UNL     1       5.248   4.708  17.360  0.00  0.00    +0.000 A 
ATOM     15  C   UNL     1       4.783   4.430  16.065  0.00  0.00    +0.000 A 
BRANCH  10  17
ATOM     16  C   UNL     1       6.160   3.526  12.857  0.00  0.00    +0.000 C 
ATOM     17  O   UNL     1       5.239   4.239  13.685  0.00  0.00    +0.000 OA
ENDBRANCH  10  17
ENDBRANCH   9  14
ENDBRANCH   1   9
BRANCH   7  18
ATOM     18  C   UNL     1       2.298   6.514  19.942  0.00  0.00    +0.000 C 
BRANCH  18  19
ATOM     19  C   UNL     1       2.176   7.890  19.248  0.00  0.00    +0.000 C 
ATOM     20  O   UNL     1       2.673   8.115  18.155  0.00  0.00    +0.000 OA
ATOM     21  N   UNL     1       1.371   8.829  19.937  0.00  0.00    +0.000 N 
BRANCH  21  22
ATOM     22  C   UNL     1       0.877   8.567  21.316  0.00  0.00    +0.000 C 
ATOM     23  C   UNL     1       0.953   9.814  22.222  0.00  0.00    +0.000 C 
ATOM     24  C   UNL     1      -0.532   7.987  21.428  0.00  0.00    +0.000 C 
ENDBRANCH  21  22
BRANCH  21  25
ATOM     25  C   UNL     1       1.204  10.167  19.336  0.00  0.00    +0.000 C 
BRANCH  25  26
ATOM     26  C   UNL     1      -0.181  10.388  18.797  0.00  0.00    +0.000 A 
ATOM     27  C   UNL     1      -1.188  11.213  19.365  0.00  0.00    +0.000 A 
ATOM     28  N   UNL     1      -2.346  11.157  18.700  0.00  0.00    +0.000 NA
ATOM     29  N   UNL     1      -2.090  10.300  17.696  0.00  0.00    +0.000 N 
ATOM     30  C   UNL     1      -3.154   9.895  16.806  0.00  0.00    +0.000 C 
ATOM     31  C   UNL     1      -0.793   9.861  17.678  0.00  0.00    +0.000 A 
ENDBRANCH  25  26
ENDBRANCH  21  25
ENDBRANCH  18  19
ENDBRANCH   7  18
TORSDOF 8
ENDMDL
MODEL 8
REMARK VINA RESULT:      -6.6      3.035      7.430
REMARK  Name = 
REMARK  12 active torsions:
REMARK  status: ('A' for Active; 'I' for Inactive)
REMARK    1  A    between atoms: C_1  and  O_2
REMARK    2  A    between atoms: O_2  and  C_3
REMARK    3  A    between atoms: C_7  and  C_8
REMARK    4  A    between atoms: C_8  and  N_9
REMARK    5  A    between atoms: C_15  and  C_16
REMARK    6  A    between atoms: C_16  and  C_17
REMARK    7  A    between atoms: N_19  and  C_20
REMARK    8  A    between atoms: N_19  and  C_27
REMARK    9  A    between atoms: C_20  and  C_21
REMARK   10  A    between atoms: N_24  and  C_25
REMARK   11  A    between atoms: C_27  and  C_28
REMARK   12  A    between atoms: C_27  and  C_29
REMARK                            x       y       z     vdW  Elec       q    Type
REMARK                         _______ _______ _______ _____ _____    ______ ____
ROOT
ATOM      1  N   UNL     1       3.177   4.664  20.359  0.00  0.00    +0.000 NA
ATOM      2  C   UNL     1       2.142   4.259  21.331  0.00  0.00    +0.000 C 
ATOM      3  C   UNL     1       1.084   3.292  20.777  0.00  0.00    +0.000 C 
ATOM      4  N   UNL     1       1.648   2.197  20.024  0.00  0.00    +0.000 N 
ATOM      5  C   UNL     1       2.815   2.328  19.314  0.00  0.00    +0.000 C 
ATOM      6  O   UNL     1       3.116   1.465  18.489  0.00  0.00    +0.000 OA
ATOM      7  C   UNL     1       3.789   3.430  19.773  0.00  0.00    +0.000 C 
ATOM      8  H   UNL     1       1.046   1.450  19.696  0.00  0.00    +0.000 HD
ENDROOT
BRANCH   1   9
ATOM      9  C   UNL     1       2.715   5.574  19.309  0.00  0.00    +0.000 C 
BRANCH   9  14
ATOM     10  C   UNL     1       1.494   9.147  19.108  0.00  0.00    +0.000 A 
ATOM     11  C   UNL     1       0.934   9.355  20.365  0.00  0.00    +0.000 A 
ATOM     12  C   UNL     1       0.969   8.338  21.324  0.00  0.00    +0.000 A 
ATOM     13  C   UNL     1       1.509   7.088  21.006  0.00  0.00    +0.000 A 
ATOM     14  C   UNL     1       2.047   6.861  19.735  0.00  0.00    +0.000 A 
ATOM     15  C   UNL     1       2.111   7.932  18.832  0.00  0.00    +0.000 A 
BRANCH  10  17
ATOM     16  C   UNL     1       0.556  11.242  18.622  0.00  0.00    +0.000 C 
ATOM     17  O   UNL     1       1.419  10.179  18.213  0.00  0.00    +0.000 OA
ENDBRANCH  10  17
ENDBRANCH   9  14
ENDBRANCH   1   9
BRANCH   7  18
ATOM     18  C   UNL     1       4.927   3.651  18.787  0.00  0.00    +0.000 C 
BRANCH  18  19
ATOM     19  C   UNL     1       4.664   4.245  17.385  0.00  0.00    +0.000 C 
ATOM     20  O   UNL     1       3.715   3.899  16.697  0.00  0.00    +0.000 OA
ATOM     21  N   UNL     1       5.554   5.279  17.005  0.00  0.00    +0.000 N 
BRANCH  21  22
ATOM     22  C   UNL     1       6.766   5.596  17.809  0.00  0.00    +0.000 C 
ATOM     23  C   UNL     1       7.871   4.531  17.665  0.00  0.00    +0.000 C 
ATOM     24  C   UNL     1       7.396   6.967  17.564  0.00  0.00    +0.000 C 
ENDBRANCH  21  22
BRANCH  21  25
ATOM     25  C   UNL     1       5.366   5.898  15.678  0.00  0.00    +0.000 C 
BRANCH  25  26
ATOM     26  C   UNL     1       5.903   5.044  14.564  0.00  0.00    +0.000 A 
ATOM     27  C   UNL     1       7.190   5.138  13.971  0.00  0.00    +0.000 A 
ATOM     28  N   UNL     1       7.359   4.291  12.951  0.00  0.00    +0.000 NA
ATOM     29  N   UNL     1       6.183   3.643  12.884  0.00  0.00    +0.000 N 
ATOM     30  C   UNL     1       5.939   2.702  11.815  0.00  0.00    +0.000 C 
ATOM     31  C   UNL     1       5.303   4.017  13.865  0.00  0.00    +0.000 A 
ENDBRANCH  25  26
ENDBRANCH  21  25
ENDBRANCH  18  19
ENDBRANCH   7  18
TORSDOF 8
ENDMDL
MODEL 9
REMARK VINA RESULT:      -6.6      1.676      2.306
REMARK  Name = 
REMARK  12 active torsions:
REMARK  status: ('A' for Active; 'I' for Inactive)
REMARK    1  A    between atoms: C_1  and  O_2
REMARK    2  A    between atoms: O_2  and  C_3
REMARK    3  A    between atoms: C_7  and  C_8
REMARK    4  A    between atoms: C_8  and  N_9
REMARK    5  A    between atoms: C_15  and  C_16
REMARK    6  A    between atoms: C_16  and  C_17
REMARK    7  A    between atoms: N_19  and  C_20
REMARK    8  A    between atoms: N_19  and  C_27
REMARK    9  A    between atoms: C_20  and  C_21
REMARK   10  A    between atoms: N_24  and  C_25
REMARK   11  A    between atoms: C_27  and  C_28
REMARK   12  A    between atoms: C_27  and  C_29
REMARK                            x       y       z     vdW  Elec       q    Type
REMARK                         _______ _______ _______ _____ _____    ______ ____
ROOT
ATOM      1  N   UNL     1       2.650   4.722  18.045  0.00  0.00    +0.000 NA
ATOM      2  C   UNL     1       1.843   3.489  17.963  0.00  0.00    +0.000 C 
ATOM      3  C   UNL     1       1.544   2.825  19.317  0.00  0.00    +0.000 C 
ATOM      4  N   UNL     1       1.098   3.757  20.325  0.00  0.00    +0.000 N 
ATOM      5  C   UNL     1       1.517   5.064  20.342  0.00  0.00    +0.000 C 
ATOM      6  O   UNL     1       1.323   5.742  21.351  0.00  0.00    +0.000 OA
ATOM      7  C   UNL     1       1.987   5.662  19.003  0.00  0.00    +0.000 C 
ATOM      8  H   UNL     1       0.783   3.411  21.224  0.00  0.00    +0.000 HD
ENDROOT
BRANCH   1   9
ATOM      9  C   UNL     1       4.056   4.517  18.395  0.00  0.00    +0.000 C 
BRANCH   9  14
ATOM     10  C   UNL     1       6.929   5.947  16.395  0.00  0.00    +0.000 A 
ATOM     11  C   UNL     1       7.004   5.090  15.301  0.00  0.00    +0.000 A 
ATOM     12  C   UNL     1       6.094   4.035  15.175  0.00  0.00    +0.000 A 
ATOM     13  C   UNL     1       5.145   3.800  16.175  0.00  0.00    +0.000 A 
ATOM     14  C   UNL     1       5.083   4.639  17.292  0.00  0.00    +0.000 A 
ATOM     15  C   UNL     1       5.924   5.761  17.337  0.00  0.00    +0.000 A 
BRANCH  10  17
ATOM     16  C   UNL     1       7.666   7.842  17.566  0.00  0.00    +0.000 C 
ATOM     17  O   UNL     1       7.854   6.953  16.463  0.00  0.00    +0.000 OA
ENDBRANCH  10  17
ENDBRANCH   9  14
ENDBRANCH   1   9
BRANCH   7  18
ATOM     18  C   UNL     1       2.649   7.022  19.172  0.00  0.00    +0.000 C 
BRANCH  18  19
ATOM     19  C   UNL     1       2.052   8.288  18.516  0.00  0.00    +0.000 C 
ATOM     20  O   UNL     1       2.312   8.611  17.366  0.00  0.00    +0.000 OA
ATOM     21  N   UNL     1       1.118   8.985  19.320  0.00  0.00    +0.000 N 
BRANCH  21  22
ATOM     22  C   UNL     1       0.910   8.637  20.751  0.00  0.00    +0.000 C 
ATOM     23  C   UNL     1       1.926   9.327  21.684  0.00  0.00    +0.000 C 
ATOM     24  C   UNL     1      -0.490   8.887  21.309  0.00  0.00    +0.000 C 
ENDBRANCH  21  22
BRANCH  21  25
ATOM     25  C   UNL     1       0.503  10.205  18.761  0.00  0.00    +0.000 C 
BRANCH  25  26
ATOM     26  C   UNL     1       1.312  11.440  19.046  0.00  0.00    +0.000 A 
ATOM     27  C   UNL     1       2.296  12.019  18.202  0.00  0.00    +0.000 A 
ATOM     28  N   UNL     1       2.901  13.076  18.752  0.00  0.00    +0.000 NA
ATOM     29  N   UNL     1       2.305  13.187  19.953  0.00  0.00    +0.000 N 
ATOM     30  C   UNL     1       2.774  14.171  20.901  0.00  0.00    +0.000 C 
ATOM     31  C   UNL     1       1.308  12.269  20.148  0.00  0.00    +0.000 A 
ENDBRANCH  25  26
ENDBRANCH  21  25
ENDBRANCH  18  19
ENDBRANCH   7  18
TORSDOF 8
ENDMDL
