MODEL 1
REMARK VINA RESULT:      -8.3      0.000      0.000
REMARK  Name = 
REMARK  4 active torsions:
REMARK  status: ('A' for Active; 'I' for Inactive)
REMARK    1  A    between atoms: C_1  and  C_2
REMARK    2  A    between atoms: C_2  and  C_3
REMARK    3  A    between atoms: C_3  and  N_4
REMARK    4  A    between atoms: N_4  and  C_5
REMARK                            x       y       z     vdW  Elec       q    Type
REMARK                         _______ _______ _______ _____ _____    ______ ____
ROOT
ATOM      1  C   UNL     1       6.869   6.080  17.076  0.00  0.00    +0.000 A 
ATOM      2  N   UNL     1       7.459   5.872  15.886  0.00  0.00    +0.000 NA
ATOM      3  C   UNL     1       6.870   5.100  14.972  0.00  0.00    +0.000 A 
ATOM      4  C   UNL     1       7.540   4.965  13.765  0.00  0.00    +0.000 A 
ATOM      5  C   UNL     1       7.026   4.218  12.709  0.00  0.00    +0.000 A 
ATOM      6  C   UNL     1       5.817   3.569  12.874  0.00  0.00    +0.000 A 
ATOM      7  C   UNL     1       5.141   3.674  14.093  0.00  0.00    +0.000 A 
ATOM      8  C   UNL     1       5.635   4.452  15.185  0.00  0.00    +0.000 A 
ATOM      9  C   UNL     1       5.018   4.655  16.471  0.00  0.00    +0.000 A 
ATOM     10  C   UNL     1       3.687   4.031  16.794  0.00  0.00    +0.000 A 
ATOM     11  O   UNL     1       3.040   3.449  15.929  0.00  0.00    +0.000 OA
ATOM     12  C   UNL     1       3.066   4.071  18.141  0.00  0.00    +0.000 A 
ATOM     13  C   UNL     1       1.905   3.307  18.357  0.00  0.00    +0.000 A 
ATOM     14  C   UNL     1       1.276   3.321  19.592  0.00  0.00    +0.000 A 
ATOM     15  F   UNL     1       0.164   2.599  19.780  0.00  0.00    +0.000 F 
ATOM     16  C   UNL     1       1.784   4.072  20.638  0.00  0.00    +0.000 A 
ATOM     17  C   UNL     1       2.930   4.833  20.427  0.00  0.00    +0.000 A 
ATOM     18  C   UNL     1       3.576   4.842  19.177  0.00  0.00    +0.000 A 
ATOM     19  S   UNL     1       4.970   5.893  19.019  0.00  0.00    +0.000 S 
ATOM     20  C   UNL     1       5.645   5.472  17.420  0.00  0.00    +0.000 A 
ENDROOT
BRANCH   1  21
ATOM     21  N   UNL     1       7.555   6.867  18.027  0.00  0.00    +0.000 N 
ATOM     22  H   UNL     1       7.050   6.824  18.910  0.00  0.00    +0.000 HD
BRANCH  21  23
ATOM     23  C   UNL     1       7.818   8.242  17.616  0.00  0.00    +0.000 C 
BRANCH  23  25
ATOM     24  C   UNL     1       8.989  10.390  18.304  0.00  0.00    +0.000 C 
ATOM     25  C   UNL     1       8.662   8.951  18.677  0.00  0.00    +0.000 C 
ENDBRANCH  23  25
ENDBRANCH  21  23
ENDBRANCH   1  21
TORSDOF 3
ENDMDL
MODEL 2
REMARK VINA RESULT:      -8.2      4.434      6.276
REMARK  Name = 
REMARK  4 active torsions:
REMARK  status: ('A' for Active; 'I' for Inactive)
REMARK    1  A    between atoms: C_1  and  C_2
REMARK    2  A    between atoms: C_2  and  C_3
REMARK    3  A    between atoms: C_3  and  N_4
REMARK    4  A    between atoms: N_4  and  C_5
REMARK                            x       y       z     vdW  Elec       q    Type
REMARK                         _______ _______ _______ _____ _____    ______ ____
ROOT
ATOM      1  C   UNL     1       2.949   5.328  20.143  0.00  0.00    +0.000 A 
ATOM      2  N   UNL     1       3.788   4.631  19.358  0.00  0.00    +0.000 NA
ATOM      3  C   UNL     1       4.208   5.147  18.202  0.00  0.00    +0.000 A 
ATOM      4  C   UNL     1       5.094   4.367  17.472  0.00  0.00    +0.000 A 
ATOM      5  C   UNL     1       5.639   4.794  16.265  0.00  0.00    +0.000 A 
ATOM      6  C   UNL     1       5.271   6.027  15.763  0.00  0.00    +0.000 A 
ATOM      7  C   UNL     1       4.362   6.815  16.473  0.00  0.00    +0.000 A 
ATOM      8  C   UNL     1       3.804   6.411  17.725  0.00  0.00    +0.000 A 
ATOM      9  C   UNL     1       2.883   7.145  18.556  0.00  0.00    +0.000 A 
ATOM     10  C   UNL     1       2.406   8.514  18.155  0.00  0.00    +0.000 A 
ATOM     11  O   UNL     1       2.890   9.088  17.184  0.00  0.00    +0.000 OA
ATOM     12  C   UNL     1       1.348   9.262  18.879  0.00  0.00    +0.000 A 
ATOM     13  C   UNL     1       0.873  10.456  18.308  0.00  0.00    +0.000 A 
ATOM     14  C   UNL     1      -0.104  11.201  18.951  0.00  0.00    +0.000 A 
ATOM     15  F   UNL     1      -0.538  12.342  18.402  0.00  0.00    +0.000 F 
ATOM     16  C   UNL     1      -0.638  10.779  20.155  0.00  0.00    +0.000 A 
ATOM     17  C   UNL     1      -0.167   9.600  20.726  0.00  0.00    +0.000 A 
ATOM     18  C   UNL     1       0.833   8.837  20.096  0.00  0.00    +0.000 A 
ATOM     19  S   UNL     1       1.389   7.409  20.949  0.00  0.00    +0.000 S 
ATOM     20  C   UNL     1       2.453   6.593  19.770  0.00  0.00    +0.000 A 
ENDROOT
BRANCH   1  21
ATOM     21  N   UNL     1       2.496   4.719  21.334  0.00  0.00    +0.000 N 
ATOM     22  H   UNL     1       3.242   4.762  22.026  0.00  0.00    +0.000 HD
BRANCH  21  23
ATOM     23  C   UNL     1       1.979   3.364  21.175  0.00  0.00    +0.000 C 
BRANCH  23  25
ATOM     24  C   UNL     1       0.905   2.525  19.030  0.00  0.00    +0.000 C 
ATOM     25  C   UNL     1       0.740   3.382  20.277  0.00  0.00    +0.000 C 
ENDBRANCH  23  25
ENDBRANCH  21  23
ENDBRANCH   1  21
TORSDOF 3
ENDMDL
MODEL 3
REMARK VINA RESULT:      -7.5      3.582      5.366
REMARK  Name = 
REMARK  4 active torsions:
REMARK  status: ('A' for Active; 'I' for Inactive)
REMARK    1  A    between atoms: C_1  and  C_2
REMARK    2  A    between atoms: C_2  and  C_3
REMARK    3  A    between atoms: C_3  and  N_4
REMARK    4  A    between atoms: N_4  and  C_5
REMARK                            x       y       z     vdW  Elec       q    Type
REMARK                         _______ _______ _______ _____ _____    ______ ____
ROOT
ATOM      1  C   UNL     1       3.990   4.013  18.942  0.00  0.00    +0.000 A 
ATOM      2  N   UNL     1       4.733   3.452  17.973  0.00  0.00    +0.000 NA
ATOM      3  C   UNL     1       5.062   4.155  16.889  0.00  0.00    +0.000 A 
ATOM      4  C   UNL     1       5.854   3.501  15.955  0.00  0.00    +0.000 A 
ATOM      5  C   UNL     1       6.300   4.125  14.794  0.00  0.00    +0.000 A 
ATOM      6  C   UNL     1       5.927   5.432  14.549  0.00  0.00    +0.000 A 
ATOM      7  C   UNL     1       5.111   6.098  15.467  0.00  0.00    +0.000 A 
ATOM      8  C   UNL     1       4.655   5.489  16.677  0.00  0.00    +0.000 A 
ATOM      9  C   UNL     1       3.837   6.080  17.705  0.00  0.00    +0.000 A 
ATOM     10  C   UNL     1       3.368   7.505  17.594  0.00  0.00    +0.000 A 
ATOM     11  O   UNL     1       3.780   8.233  16.695  0.00  0.00    +0.000 OA
ATOM     12  C   UNL     1       2.403   8.130  18.533  0.00  0.00    +0.000 A 
ATOM     13  C   UNL     1       1.916   9.413  18.223  0.00  0.00    +0.000 A 
ATOM     14  C   UNL     1       1.025  10.048  19.074  0.00  0.00    +0.000 A 
ATOM     15  F   UNL     1       0.578  11.274  18.774  0.00  0.00    +0.000 F 
ATOM     16  C   UNL     1       0.589   9.430  20.233  0.00  0.00    +0.000 A 
ATOM     17  C   UNL     1       1.073   8.163  20.545  0.00  0.00    +0.000 A 
ATOM     18  C   UNL     1       1.987   7.507  19.702  0.00  0.00    +0.000 A 
ATOM     19  S   UNL     1       2.575   5.944  20.239  0.00  0.00    +0.000 S 
ATOM     20  C   UNL     1       3.502   5.331  18.842  0.00  0.00    +0.000 A 
ENDROOT
BRANCH   1  21
ATOM     21  N   UNL     1       3.628   3.212  20.048  0.00  0.00    +0.000 N 
ATOM     22  H   UNL     1       4.477   2.871  20.495  0.00  0.00    +0.000 HD
BRANCH  21  23
ATOM     23  C   UNL     1       2.700   2.127  19.745  0.00  0.00    +0.000 C 
BRANCH  23  25
ATOM     24  C   UNL     1       1.309   2.712  21.790  0.00  0.00    +0.000 C 
ATOM     25  C   UNL     1       1.309   2.465  20.288  0.00  0.00    +0.000 C 
ENDBRANCH  23  25
ENDBRANCH  21  23
ENDBRANCH   1  21
TORSDOF 3
ENDMDL
MODEL 4
REMARK VINA RESULT:      -7.5      3.773      7.138
REMARK  Name = 
REMARK  4 active torsions:
REMARK  status: ('A' for Active; 'I' for Inactive)
REMARK    1  A    between atoms: C_1  and  C_2
REMARK    2  A    between atoms: C_2  and  C_3
REMARK    3  A    between atoms: C_3  and  N_4
REMARK    4  A    between atoms: N_4  and  C_5
REMARK                            x       y       z     vdW  Elec       q    Type
REMARK                         _______ _______ _______ _____ _____    ______ ____
ROOT
ATOM      1  C   UNL     1       2.480   5.431  20.265  0.00  0.00    +0.000 A 
ATOM      2  N   UNL     1       1.772   6.470  20.737  0.00  0.00    +0.000 NA
ATOM      3  C   UNL     1       1.704   7.606  20.042  0.00  0.00    +0.000 A 
ATOM      4  C   UNL     1       0.927   8.614  20.595  0.00  0.00    +0.000 A 
ATOM      5  C   UNL     1       0.740   9.839  19.962  0.00  0.00    +0.000 A 
ATOM      6  C   UNL     1       1.363  10.071  18.751  0.00  0.00    +0.000 A 
ATOM      7  C   UNL     1       2.168   9.075  18.192  0.00  0.00    +0.000 A 
ATOM      8  C   UNL     1       2.361   7.801  18.809  0.00  0.00    +0.000 A 
ATOM      9  C   UNL     1       3.141   6.694  18.317  0.00  0.00    +0.000 A 
ATOM     10  C   UNL     1       3.863   6.784  17.000  0.00  0.00    +0.000 A 
ATOM     11  O   UNL     1       3.696   7.747  16.258  0.00  0.00    +0.000 OA
ATOM     12  C   UNL     1       4.803   5.748  16.504  0.00  0.00    +0.000 A 
ATOM     13  C   UNL     1       5.542   6.028  15.341  0.00  0.00    +0.000 A 
ATOM     14  C   UNL     1       6.422   5.089  14.827  0.00  0.00    +0.000 A 
ATOM     15  F   UNL     1       7.110   5.363  13.711  0.00  0.00    +0.000 F 
ATOM     16  C   UNL     1       6.601   3.867  15.452  0.00  0.00    +0.000 A 
ATOM     17  C   UNL     1       5.867   3.585  16.601  0.00  0.00    +0.000 A 
ATOM     18  C   UNL     1       4.960   4.519  17.132  0.00  0.00    +0.000 A 
ATOM     19  S   UNL     1       4.047   4.018  18.543  0.00  0.00    +0.000 S 
ATOM     20  C   UNL     1       3.201   5.504  19.056  0.00  0.00    +0.000 A 
ENDROOT
BRANCH   1  21
ATOM     21  N   UNL     1       2.560   4.267  21.061  0.00  0.00    +0.000 N 
ATOM     22  H   UNL     1       3.353   3.711  20.745  0.00  0.00    +0.000 HD
BRANCH  21  23
ATOM     23  C   UNL     1       1.334   3.478  21.125  0.00  0.00    +0.000 C 
BRANCH  23  25
ATOM     24  C   UNL     1       0.664   2.510  18.873  0.00  0.00    +0.000 C 
ATOM     25  C   UNL     1       1.431   2.287  20.169  0.00  0.00    +0.000 C 
ENDBRANCH  23  25
ENDBRANCH  21  23
ENDBRANCH   1  21
TORSDOF 3
ENDMDL
MODEL 5
REMARK VINA RESULT:      -7.5      3.992      5.939
REMARK  Name = 
REMARK  4 active torsions:
REMARK  status: ('A' for Active; 'I' for Inactive)
REMARK    1  A    between atoms: C_1  and  C_2
REMARK    2  A    between atoms: C_2  and  C_3
REMARK    3  A    between atoms: C_3  and  N_4
REMARK    4  A    between atoms: N_4  and  C_5
REMARK                            x       y       z     vdW  Elec       q    Type
REMARK                         _______ _______ _______ _____ _____    ______ ____
ROOT
ATOM      1  C   UNL     1       4.120   5.618  17.677  0.00  0.00    +0.000 A 
ATOM      2  N   UNL     1       4.327   4.405  18.216  0.00  0.00    +0.000 NA
ATOM      3  C   UNL     1       3.703   4.056  19.341  0.00  0.00    +0.000 A 
ATOM      4  C   UNL     1       3.957   2.774  19.808  0.00  0.00    +0.000 A 
ATOM      5  C   UNL     1       3.348   2.266  20.951  0.00  0.00    +0.000 A 
ATOM      6  C   UNL     1       2.476   3.069  21.660  0.00  0.00    +0.000 A 
ATOM      7  C   UNL     1       2.227   4.371  21.217  0.00  0.00    +0.000 A 
ATOM      8  C   UNL     1       2.821   4.912  20.036  0.00  0.00    +0.000 A 
ATOM      9  C   UNL     1       2.622   6.222  19.470  0.00  0.00    +0.000 A 
ATOM     10  C   UNL     1       1.684   7.205  20.116  0.00  0.00    +0.000 A 
ATOM     11  O   UNL     1       0.972   6.868  21.056  0.00  0.00    +0.000 OA
ATOM     12  C   UNL     1       1.544   8.617  19.679  0.00  0.00    +0.000 A 
ATOM     13  C   UNL     1       0.761   9.478  20.468  0.00  0.00    +0.000 A 
ATOM     14  C   UNL     1       0.586  10.802  20.097  0.00  0.00    +0.000 A 
ATOM     15  F   UNL     1      -0.172  11.609  20.851  0.00  0.00    +0.000 F 
ATOM     16  C   UNL     1       1.184  11.304  18.955  0.00  0.00    +0.000 A 
ATOM     17  C   UNL     1       1.956  10.452  18.169  0.00  0.00    +0.000 A 
ATOM     18  C   UNL     1       2.136   9.103  18.521  0.00  0.00    +0.000 A 
ATOM     19  S   UNL     1       3.072   8.117  17.413  0.00  0.00    +0.000 S 
ATOM     20  C   UNL     1       3.281   6.573  18.285  0.00  0.00    +0.000 A 
ENDROOT
BRANCH   1  21
ATOM     21  N   UNL     1       4.841   5.957  16.511  0.00  0.00    +0.000 N 
ATOM     22  H   UNL     1       4.446   5.447  15.723  0.00  0.00    +0.000 HD
BRANCH  21  23
ATOM     23  C   UNL     1       6.287   5.776  16.605  0.00  0.00    +0.000 C 
BRANCH  23  25
ATOM     24  C   UNL     1       7.778   6.414  18.562  0.00  0.00    +0.000 C 
ATOM     25  C   UNL     1       6.901   6.915  17.423  0.00  0.00    +0.000 C 
ENDBRANCH  23  25
ENDBRANCH  21  23
ENDBRANCH   1  21
TORSDOF 3
ENDMDL
MODEL 6
REMARK VINA RESULT:      -7.3      3.973      6.184
REMARK  Name = 
REMARK  4 active torsions:
REMARK  status: ('A' for Active; 'I' for Inactive)
REMARK    1  A    between atoms: C_1  and  C_2
REMARK    2  A    between atoms: C_2  and  C_3
REMARK    3  A    between atoms: C_3  and  N_4
REMARK    4  A    between atoms: N_4  and  C_5
REMARK                            x       y       z     vdW  Elec       q    Type
REMARK                         _______ _______ _______ _____ _____    ______ ____
ROOT
ATOM      1  C   UNL     1       4.093   5.542  17.682  0.00  0.00    +0.000 A 
ATOM      2  N   UNL     1       4.290   4.336  18.239  0.00  0.00    +0.000 NA
ATOM      3  C   UNL     1       3.666   4.011  19.373  0.00  0.00    +0.000 A 
ATOM      4  C   UNL     1       3.910   2.734  19.858  0.00  0.00    +0.000 A 
ATOM      5  C   UNL     1       3.300   2.249  21.012  0.00  0.00    +0.000 A 
ATOM      6  C   UNL     1       2.439   3.072  21.711  0.00  0.00    +0.000 A 
ATOM      7  C   UNL     1       2.202   4.370  21.249  0.00  0.00    +0.000 A 
ATOM      8  C   UNL     1       2.797   4.886  20.057  0.00  0.00    +0.000 A 
ATOM      9  C   UNL     1       2.608   6.189  19.472  0.00  0.00    +0.000 A 
ATOM     10  C   UNL     1       1.683   7.192  20.106  0.00  0.00    +0.000 A 
ATOM     11  O   UNL     1       0.971   6.877  21.055  0.00  0.00    +0.000 OA
ATOM     12  C   UNL     1       1.555   8.598  19.648  0.00  0.00    +0.000 A 
ATOM     13  C   UNL     1       0.785   9.479  20.427  0.00  0.00    +0.000 A 
ATOM     14  C   UNL     1       0.621  10.799  20.037  0.00  0.00    +0.000 A 
ATOM     15  F   UNL     1      -0.126  11.625  20.781  0.00  0.00    +0.000 F 
ATOM     16  C   UNL     1       1.220  11.277  18.884  0.00  0.00    +0.000 A 
ATOM     17  C   UNL     1       1.979  10.406  18.108  0.00  0.00    +0.000 A 
ATOM     18  C   UNL     1       2.147   9.060  18.480  0.00  0.00    +0.000 A 
ATOM     19  S   UNL     1       3.069   8.048  17.384  0.00  0.00    +0.000 S 
ATOM     20  C   UNL     1       3.266   6.516  18.279  0.00  0.00    +0.000 A 
ENDROOT
BRANCH   1  21
ATOM     21  N   UNL     1       4.812   5.856  16.508  0.00  0.00    +0.000 N 
ATOM     22  H   UNL     1       4.445   5.296  15.741  0.00  0.00    +0.000 HD
BRANCH  21  23
ATOM     23  C   UNL     1       6.262   5.736  16.624  0.00  0.00    +0.000 C 
BRANCH  23  25
ATOM     24  C   UNL     1       5.726   4.305  14.593  0.00  0.00    +0.000 C 
ATOM     25  C   UNL     1       6.782   4.712  15.612  0.00  0.00    +0.000 C 
ENDBRANCH  23  25
ENDBRANCH  21  23
ENDBRANCH   1  21
TORSDOF 3
ENDMDL
MODEL 7
REMARK VINA RESULT:      -6.7     10.016     11.569
REMARK  Name = 
REMARK  4 active torsions:
REMARK  status: ('A' for Active; 'I' for Inactive)
REMARK    1  A    between atoms: C_1  and  C_2
REMARK    2  A    between atoms: C_2  and  C_3
REMARK    3  A    between atoms: C_3  and  N_4
REMARK    4  A    between atoms: N_4  and  C_5
REMARK                            x       y       z     vdW  Elec       q    Type
REMARK                         _______ _______ _______ _____ _____    ______ ____
ROOT
ATOM      1  C   UNL     1      -0.624  11.173  19.968  0.00  0.00    +0.000 A 
ATOM      2  N   UNL     1      -0.833  10.566  18.787  0.00  0.00    +0.000 NA
ATOM      3  C   UNL     1      -1.981  10.753  18.133  0.00  0.00    +0.000 A 
ATOM      4  C   UNL     1      -2.096  10.108  16.909  0.00  0.00    +0.000 A 
ATOM      5  C   UNL     1      -3.223  10.241  16.103  0.00  0.00    +0.000 A 
ATOM      6  C   UNL     1      -4.273  11.024  16.543  0.00  0.00    +0.000 A 
ATOM      7  C   UNL     1      -4.183  11.661  17.784  0.00  0.00    +0.000 A 
ATOM      8  C   UNL     1      -3.030  11.559  18.622  0.00  0.00    +0.000 A 
ATOM      9  C   UNL     1      -2.813  12.187  19.900  0.00  0.00    +0.000 A 
ATOM     10  C   UNL     1      -3.856  13.087  20.504  0.00  0.00    +0.000 A 
ATOM     11  O   UNL     1      -4.852  13.411  19.864  0.00  0.00    +0.000 OA
ATOM     12  C   UNL     1      -3.768  13.644  21.877  0.00  0.00    +0.000 A 
ATOM     13  C   UNL     1      -4.884  14.332  22.384  0.00  0.00    +0.000 A 
ATOM     14  C   UNL     1      -4.849  14.885  23.655  0.00  0.00    +0.000 A 
ATOM     15  F   UNL     1      -5.914  15.549  24.121  0.00  0.00    +0.000 F 
ATOM     16  C   UNL     1      -3.724  14.760  24.451  0.00  0.00    +0.000 A 
ATOM     17  C   UNL     1      -2.615  14.084  23.950  0.00  0.00    +0.000 A 
ATOM     18  C   UNL     1      -2.626  13.526  22.659  0.00  0.00    +0.000 A 
ATOM     19  S   UNL     1      -1.145  12.760  22.118  0.00  0.00    +0.000 S 
ATOM     20  C   UNL     1      -1.601  11.985  20.575  0.00  0.00    +0.000 A 
ENDROOT
BRANCH   1  21
ATOM     21  N   UNL     1       0.587  10.906  20.644  0.00  0.00    +0.000 N 
ATOM     22  H   UNL     1       1.350  11.350  20.135  0.00  0.00    +0.000 HD
BRANCH  21  23
ATOM     23  C   UNL     1       0.853   9.493  20.897  0.00  0.00    +0.000 C 
BRANCH  23  25
ATOM     24  C   UNL     1      -0.001   9.456  23.291  0.00  0.00    +0.000 C 
ATOM     25  C   UNL     1      -0.186   8.935  21.873  0.00  0.00    +0.000 C 
ENDBRANCH  23  25
ENDBRANCH  21  23
ENDBRANCH   1  21
TORSDOF 3
ENDMDL
MODEL 8
REMARK VINA RESULT:      -6.5      7.432      9.996
REMARK  Name = 
REMARK  4 active torsions:
REMARK  status: ('A' for Active; 'I' for Inactive)
REMARK    1  A    between atoms: C_1  and  C_2
REMARK    2  A    between atoms: C_2  and  C_3
REMARK    3  A    between atoms: C_3  and  N_4
REMARK    4  A    between atoms: N_4  and  C_5
REMARK                            x       y       z     vdW  Elec       q    Type
REMARK                         _______ _______ _______ _____ _____    ______ ____
ROOT
ATOM      1  C   UNL     1      -1.227  11.683  18.596  0.00  0.00    +0.000 A 
ATOM      2  N   UNL     1      -1.993  12.362  19.466  0.00  0.00    +0.000 NA
ATOM      3  C   UNL     1      -1.920  12.098  20.771  0.00  0.00    +0.000 A 
ATOM      4  C   UNL     1      -2.728  12.868  21.595  0.00  0.00    +0.000 A 
ATOM      5  C   UNL     1      -2.728  12.725  22.980  0.00  0.00    +0.000 A 
ATOM      6  C   UNL     1      -1.912  11.769  23.554  0.00  0.00    +0.000 A 
ATOM      7  C   UNL     1      -1.110  10.969  22.737  0.00  0.00    +0.000 A 
ATOM      8  C   UNL     1      -1.074  11.108  21.316  0.00  0.00    +0.000 A 
ATOM      9  C   UNL     1      -0.273  10.363  20.378  0.00  0.00    +0.000 A 
ATOM     10  C   UNL     1       0.681   9.302  20.852  0.00  0.00    +0.000 A 
ATOM     11  O   UNL     1       0.896   9.140  22.050  0.00  0.00    +0.000 OA
ATOM     12  C   UNL     1       1.422   8.395  19.941  0.00  0.00    +0.000 A 
ATOM     13  C   UNL     1       2.152   7.336  20.511  0.00  0.00    +0.000 A 
ATOM     14  C   UNL     1       2.874   6.469  19.705  0.00  0.00    +0.000 A 
ATOM     15  F   UNL     1       3.575   5.473  20.262  0.00  0.00    +0.000 F 
ATOM     16  C   UNL     1       2.881   6.619  18.330  0.00  0.00    +0.000 A 
ATOM     17  C   UNL     1       2.163   7.669  17.763  0.00  0.00    +0.000 A 
ATOM     18  C   UNL     1       1.435   8.566  18.563  0.00  0.00    +0.000 A 
ATOM     19  S   UNL     1       0.629   9.886  17.735  0.00  0.00    +0.000 S 
ATOM     20  C   UNL     1      -0.357  10.654  19.009  0.00  0.00    +0.000 A 
ENDROOT
BRANCH   1  21
ATOM     21  N   UNL     1      -1.376  11.966  17.220  0.00  0.00    +0.000 N 
ATOM     22  H   UNL     1      -1.182  12.954  17.068  0.00  0.00    +0.000 HD
BRANCH  21  23
ATOM     23  C   UNL     1      -2.657  11.567  16.644  0.00  0.00    +0.000 C 
BRANCH  23  25
ATOM     24  C   UNL     1      -3.286  10.181  14.608  0.00  0.00    +0.000 C 
ATOM     25  C   UNL     1      -2.506  10.230  15.915  0.00  0.00    +0.000 C 
ENDBRANCH  23  25
ENDBRANCH  21  23
ENDBRANCH   1  21
TORSDOF 3
ENDMDL
MODEL 9
REMARK VINA RESULT:      -6.5      1.023      1.422
REMARK  Name = 
REMARK  4 active torsions:
REMARK  status: ('A' for Active; 'I' for Inactive)
REMARK    1  A    between atoms: C_1  and  C_2
REMARK    2  A    between atoms: C_2  and  C_3
REMARK    3  A    between atoms: C_3  and  N_4
REMARK    4  A    between atoms: N_4  and  C_5
REMARK                            x       y       z     vdW  Elec       q    Type
REMARK                         _______ _______ _______ _____ _____    ______ ____
ROOT
ATOM      1  C   UNL     1       6.353   6.425  16.964  0.00  0.00    +0.000 A 
ATOM      2  N   UNL     1       7.023   6.160  15.830  0.00  0.00    +0.000 NA
ATOM      3  C   UNL     1       6.577   5.225  14.990  0.00  0.00    +0.000 A 
ATOM      4  C   UNL     1       7.320   5.040  13.833  0.00  0.00    +0.000 A 
ATOM      5  C   UNL     1       6.952   4.123  12.852  0.00  0.00    +0.000 A 
ATOM      6  C   UNL     1       5.820   3.354  13.045  0.00  0.00    +0.000 A 
ATOM      7  C   UNL     1       5.074   3.510  14.217  0.00  0.00    +0.000 A 
ATOM      8  C   UNL     1       5.417   4.458  15.229  0.00  0.00    +0.000 A 
ATOM      9  C   UNL     1       4.714   4.726  16.458  0.00  0.00    +0.000 A 
ATOM     10  C   UNL     1       3.451   3.984  16.801  0.00  0.00    +0.000 A 
ATOM     11  O   UNL     1       2.922   3.235  15.986  0.00  0.00    +0.000 OA
ATOM     12  C   UNL     1       2.760   4.096  18.110  0.00  0.00    +0.000 A 
ATOM     13  C   UNL     1       1.687   3.225  18.368  0.00  0.00    +0.000 A 
ATOM     14  C   UNL     1       0.998   3.299  19.569  0.00  0.00    +0.000 A 
ATOM     15  F   UNL     1      -0.031   2.472  19.796  0.00  0.00    +0.000 F 
ATOM     16  C   UNL     1       1.359   4.217  20.538  0.00  0.00    +0.000 A 
ATOM     17  C   UNL     1       2.418   5.084  20.284  0.00  0.00    +0.000 A 
ATOM     18  C   UNL     1       3.122   5.034  19.068  0.00  0.00    +0.000 A 
ATOM     19  S   UNL     1       4.391   6.224  18.841  0.00  0.00    +0.000 S 
ATOM     20  C   UNL     1       5.192   5.714  17.330  0.00  0.00    +0.000 A 
ENDROOT
BRANCH   1  21
ATOM     21  N   UNL     1       6.892   7.390  17.843  0.00  0.00    +0.000 N 
ATOM     22  H   UNL     1       6.978   8.273  17.344  0.00  0.00    +0.000 HD
BRANCH  21  23
ATOM     23  C   UNL     1       8.143   7.005  18.488  0.00  0.00    +0.000 C 
BRANCH  23  25
ATOM     24  C   UNL     1       8.248   5.374  20.435  0.00  0.00    +0.000 C 
ATOM     25  C   UNL     1       8.070   5.542  18.932  0.00  0.00    +0.000 C 
ENDBRANCH  23  25
ENDBRANCH  21  23
ENDBRANCH   1  21
TORSDOF 3
ENDMDL
