MODEL 1
REMARK VINA RESULT:      -6.7      0.000      0.000
REMARK  Name = 
REMARK  5 active torsions:
REMARK  status: ('A' for Active; 'I' for Inactive)
REMARK    1  A    between atoms: C_2  and  C_3
REMARK    2  A    between atoms: C_3  and  C_15
REMARK    3  A    between atoms: C_4  and  C_5
REMARK    4  A    between atoms: C_18  and  C_19
REMARK    5  A    between atoms: C_19  and  O_21
REMARK                            x       y       z     vdW  Elec       q    Type
REMARK                         _______ _______ _______ _____ _____    ______ ____
ROOT
ATOM      1  C   UNL     1       1.620   8.767  19.309  0.00  0.00    +0.000 C 
ATOM      2  C   UNL     1       1.545   9.703  18.331  0.00  0.00    +0.000 C 
ENDROOT
BRANCH   2   3
ATOM      3  C   UNL     1       0.947  11.042  18.529  0.00  0.00    +0.000 A 
ATOM      4  C   UNL     1       1.802  12.090  18.910  0.00  0.00    +0.000 A 
ATOM      5  C   UNL     1       1.277  13.365  18.973  0.00  0.00    +0.000 A 
ATOM      6  C   UNL     1      -0.040  13.628  18.681  0.00  0.00    +0.000 A 
ATOM      7  C   UNL     1      -0.920  12.627  18.333  0.00  0.00    +0.000 A 
ATOM      8  C   UNL     1      -0.422  11.317  18.273  0.00  0.00    +0.000 A 
ATOM      9 BR   UNL     1      -1.654   9.934  17.851  0.00  0.00    +0.000 Br
ATOM     10  O   UNL     1      -0.336  14.952  18.772  0.00  0.00    +0.000 OA
ATOM     11  C   UNL     1       0.942  15.494  19.160  0.00  0.00    +0.000 C 
ATOM     12  O   UNL     1       1.967  14.487  19.311  0.00  0.00    +0.000 OA
ENDBRANCH   2   3
BRANCH   1  13
ATOM     13  C   UNL     1       2.289   7.464  19.083  0.00  0.00    +0.000 A 
ATOM     14  C   UNL     1       3.106   7.260  17.955  0.00  0.00    +0.000 A 
ATOM     15  C   UNL     1       3.736   6.034  17.727  0.00  0.00    +0.000 A 
ATOM     16  C   UNL     1       3.577   4.980  18.629  0.00  0.00    +0.000 A 
ATOM     17  C   UNL     1       2.798   5.175  19.776  0.00  0.00    +0.000 A 
ATOM     18  C   UNL     1       2.156   6.406  19.995  0.00  0.00    +0.000 A 
BRANCH  16  19
ATOM     19  C   UNL     1       4.302   3.713  18.339  0.00  0.00    +0.000 C 
ATOM     20  O   UNL     1       3.809   2.809  17.688  0.00  0.00    +0.000 OA
BRANCH  19  21
ATOM     21  O   UNL     1       5.528   3.633  18.891  0.00  0.00    +0.000 OA
ATOM     22  H   UNL     1       5.557   3.401  19.834  0.00  0.00    +0.000 HD
ENDBRANCH  19  21
ENDBRANCH  16  19
ENDBRANCH   1  13
BRANCH   1  24
ATOM     23  N   UNL     1       0.534   9.435  21.780  0.00  0.00    +0.000 NA
ATOM     24  C   UNL     1       1.027   9.132  20.659  0.00  0.00    +0.000 C 
ENDBRANCH   1  24
TORSDOF 5
ENDMDL
MODEL 2
REMARK VINA RESULT:      -6.7      0.104      1.010
REMARK  Name = 
REMARK  5 active torsions:
REMARK  status: ('A' for Active; 'I' for Inactive)
REMARK    1  A    between atoms: C_2  and  C_3
REMARK    2  A    between atoms: C_3  and  C_15
REMARK    3  A    between atoms: C_4  and  C_5
REMARK    4  A    between atoms: C_18  and  C_19
REMARK    5  A    between atoms: C_19  and  O_21
REMARK                            x       y       z     vdW  Elec       q    Type
REMARK                         _______ _______ _______ _____ _____    ______ ____
ROOT
ATOM      1  C   UNL     1       1.632   8.792  19.316  0.00  0.00    +0.000 C 
ATOM      2  C   UNL     1       1.542   9.740  18.352  0.00  0.00    +0.000 C 
ENDROOT
BRANCH   2   3
ATOM      3  C   UNL     1       0.920  11.065  18.568  0.00  0.00    +0.000 A 
ATOM      4  C   UNL     1       1.749  12.112  19.008  0.00  0.00    +0.000 A 
ATOM      5  C   UNL     1       1.206  13.378  19.091  0.00  0.00    +0.000 A 
ATOM      6  C   UNL     1      -0.103  13.634  18.763  0.00  0.00    +0.000 A 
ATOM      7  C   UNL     1      -0.960  12.634  18.357  0.00  0.00    +0.000 A 
ATOM      8  C   UNL     1      -0.443  11.332  18.276  0.00  0.00    +0.000 A 
ATOM      9 BR   UNL     1      -1.643   9.947  17.774  0.00  0.00    +0.000 Br
ATOM     10  O   UNL     1      -0.419  14.952  18.883  0.00  0.00    +0.000 OA
ATOM     11  C   UNL     1       0.839  15.496  19.328  0.00  0.00    +0.000 C 
ATOM     12  O   UNL     1       1.871  14.498  19.483  0.00  0.00    +0.000 OA
ENDBRANCH   2   3
BRANCH   1  13
ATOM     13  C   UNL     1       2.324   7.504  19.071  0.00  0.00    +0.000 A 
ATOM     14  C   UNL     1       2.193   6.434  19.976  0.00  0.00    +0.000 A 
ATOM     15  C   UNL     1       2.846   5.217  19.762  0.00  0.00    +0.000 A 
ATOM     16  C   UNL     1       3.636   5.031  18.626  0.00  0.00    +0.000 A 
ATOM     17  C   UNL     1       3.748   6.071  17.694  0.00  0.00    +0.000 A 
ATOM     18  C   UNL     1       3.101   7.297  17.922  0.00  0.00    +0.000 A 
BRANCH  16  19
ATOM     19  C   UNL     1       4.277   3.700  18.445  0.00  0.00    +0.000 C 
ATOM     20  O   UNL     1       3.748   2.796  17.822  0.00  0.00    +0.000 OA
BRANCH  19  21
ATOM     21  O   UNL     1       5.467   3.565  19.061  0.00  0.00    +0.000 OA
ATOM     22  H   UNL     1       5.584   4.079  19.877  0.00  0.00    +0.000 HD
ENDBRANCH  19  21
ENDBRANCH  16  19
ENDBRANCH   1  13
BRANCH   1  24
ATOM     23  N   UNL     1       0.534   9.405  21.796  0.00  0.00    +0.000 NA
ATOM     24  C   UNL     1       1.032   9.127  20.671  0.00  0.00    +0.000 C 
ENDBRANCH   1  24
TORSDOF 5
ENDMDL
MODEL 3
REMARK VINA RESULT:      -6.5      2.123      3.020
REMARK  Name = 
REMARK  5 active torsions:
REMARK  status: ('A' for Active; 'I' for Inactive)
REMARK    1  A    between atoms: C_2  and  C_3
REMARK    2  A    between atoms: C_3  and  C_15
REMARK    3  A    between atoms: C_4  and  C_5
REMARK    4  A    between atoms: C_18  and  C_19
REMARK    5  A    between atoms: C_19  and  O_21
REMARK                            x       y       z     vdW  Elec       q    Type
REMARK                         _______ _______ _______ _____ _____    ______ ____
ROOT
ATOM      1  C   UNL     1       1.555   8.530  18.914  0.00  0.00    +0.000 C 
ATOM      2  C   UNL     1       0.980   9.285  17.946  0.00  0.00    +0.000 C 
ENDROOT
BRANCH   2   3
ATOM      3  C   UNL     1      -0.053  10.309  18.217  0.00  0.00    +0.000 A 
ATOM      4  C   UNL     1      -1.398   9.950  18.022  0.00  0.00    +0.000 A 
ATOM      5  C   UNL     1      -2.372  10.855  18.393  0.00  0.00    +0.000 A 
ATOM      6  C   UNL     1      -2.063  12.079  18.936  0.00  0.00    +0.000 A 
ATOM      7  C   UNL     1      -0.759  12.485  19.116  0.00  0.00    +0.000 A 
ATOM      8  C   UNL     1       0.256  11.594  18.736  0.00  0.00    +0.000 A 
ATOM      9 BR   UNL     1       2.052  12.183  18.932  0.00  0.00    +0.000 Br
ATOM     10  O   UNL     1      -3.172  12.796  19.261  0.00  0.00    +0.000 OA
ATOM     11  C   UNL     1      -4.215  11.887  18.857  0.00  0.00    +0.000 C 
ATOM     12  O   UNL     1      -3.713  10.659  18.284  0.00  0.00    +0.000 OA
ENDBRANCH   2   3
BRANCH   1  13
ATOM     13  C   UNL     1       2.633   7.563  18.602  0.00  0.00    +0.000 A 
ATOM     14  C   UNL     1       2.825   6.418  19.396  0.00  0.00    +0.000 A 
ATOM     15  C   UNL     1       3.843   5.502  19.118  0.00  0.00    +0.000 A 
ATOM     16  C   UNL     1       4.691   5.700  18.026  0.00  0.00    +0.000 A 
ATOM     17  C   UNL     1       4.493   6.814  17.201  0.00  0.00    +0.000 A 
ATOM     18  C   UNL     1       3.475   7.739  17.493  0.00  0.00    +0.000 A 
BRANCH  16  19
ATOM     19  C   UNL     1       5.733   4.669  17.770  0.00  0.00    +0.000 C 
ATOM     20  O   UNL     1       6.169   4.438  16.656  0.00  0.00    +0.000 OA
BRANCH  19  21
ATOM     21  O   UNL     1       6.123   3.987  18.864  0.00  0.00    +0.000 OA
ATOM     22  H   UNL     1       6.318   3.044  18.732  0.00  0.00    +0.000 HD
ENDBRANCH  19  21
ENDBRANCH  16  19
ENDBRANCH   1  13
BRANCH   1  24
ATOM     23  N   UNL     1       0.674   8.937  21.520  0.00  0.00    +0.000 NA
ATOM     24  C   UNL     1       1.073   8.752  20.338  0.00  0.00    +0.000 C 
ENDBRANCH   1  24
TORSDOF 5
ENDMDL
MODEL 4
REMARK VINA RESULT:      -6.4      1.074      1.193
REMARK  Name = 
REMARK  5 active torsions:
REMARK  status: ('A' for Active; 'I' for Inactive)
REMARK    1  A    between atoms: C_2  and  C_3
REMARK    2  A    between atoms: C_3  and  C_15
REMARK    3  A    between atoms: C_4  and  C_5
REMARK    4  A    between atoms: C_18  and  C_19
REMARK    5  A    between atoms: C_19  and  O_21
REMARK                            x       y       z     vdW  Elec       q    Type
REMARK                         _______ _______ _______ _____ _____    ______ ____
ROOT
ATOM      1  C   UNL     1       1.788   8.535  18.821  0.00  0.00    +0.000 C 
ATOM      2  C   UNL     1       1.514   9.612  18.045  0.00  0.00    +0.000 C 
ENDROOT
BRANCH   2   3
ATOM      3  C   UNL     1       0.844  10.830  18.550  0.00  0.00    +0.000 A 
ATOM      4  C   UNL     1       1.630  11.776  19.230  0.00  0.00    +0.000 A 
ATOM      5  C   UNL     1       1.041  12.970  19.593  0.00  0.00    +0.000 A 
ATOM      6  C   UNL     1      -0.274  13.250  19.313  0.00  0.00    +0.000 A 
ATOM      7  C   UNL     1      -1.091  12.341  18.676  0.00  0.00    +0.000 A 
ATOM      8  C   UNL     1      -0.527  11.110  18.307  0.00  0.00    +0.000 A 
ATOM      9 BR   UNL     1      -1.672   9.838  17.483  0.00  0.00    +0.000 Br
ATOM     10  O   UNL     1      -0.639  14.493  19.726  0.00  0.00    +0.000 OA
ATOM     11  C   UNL     1       0.595  14.964  20.303  0.00  0.00    +0.000 C 
ATOM     12  O   UNL     1       1.663  13.992  20.240  0.00  0.00    +0.000 OA
ENDBRANCH   2   3
BRANCH   1  13
ATOM     13  C   UNL     1       2.522   7.363  18.287  0.00  0.00    +0.000 A 
ATOM     14  C   UNL     1       3.717   7.531  17.563  0.00  0.00    +0.000 A 
ATOM     15  C   UNL     1       4.414   6.435  17.048  0.00  0.00    +0.000 A 
ATOM     16  C   UNL     1       3.942   5.137  17.255  0.00  0.00    +0.000 A 
ATOM     17  C   UNL     1       2.774   4.947  18.004  0.00  0.00    +0.000 A 
ATOM     18  C   UNL     1       2.070   6.053  18.509  0.00  0.00    +0.000 A 
BRANCH  16  19
ATOM     19  C   UNL     1       4.751   4.015  16.705  0.00  0.00    +0.000 C 
ATOM     20  O   UNL     1       5.429   4.127  15.699  0.00  0.00    +0.000 OA
BRANCH  19  21
ATOM     21  O   UNL     1       4.637   2.860  17.387  0.00  0.00    +0.000 OA
ATOM     22  H   UNL     1       4.319   2.095  16.880  0.00  0.00    +0.000 HD
ENDBRANCH  19  21
ENDBRANCH  16  19
ENDBRANCH   1  13
BRANCH   1  24
ATOM     23  N   UNL     1       0.982   8.657  21.480  0.00  0.00    +0.000 NA
ATOM     24  C   UNL     1       1.347   8.602  20.274  0.00  0.00    +0.000 C 
ENDBRANCH   1  24
TORSDOF 5
ENDMDL
MODEL 5
REMARK VINA RESULT:      -6.4      2.168      2.936
REMARK  Name = 
REMARK  5 active torsions:
REMARK  status: ('A' for Active; 'I' for Inactive)
REMARK    1  A    between atoms: C_2  and  C_3
REMARK    2  A    between atoms: C_3  and  C_15
REMARK    3  A    between atoms: C_4  and  C_5
REMARK    4  A    between atoms: C_18  and  C_19
REMARK    5  A    between atoms: C_19  and  O_21
REMARK                            x       y       z     vdW  Elec       q    Type
REMARK                         _______ _______ _______ _____ _____    ______ ____
ROOT
ATOM      1  C   UNL     1       1.505   8.498  18.920  0.00  0.00    +0.000 C 
ATOM      2  C   UNL     1       0.964   9.270  17.946  0.00  0.00    +0.000 C 
ENDROOT
BRANCH   2   3
ATOM      3  C   UNL     1      -0.093  10.274  18.195  0.00  0.00    +0.000 A 
ATOM      4  C   UNL     1      -1.424   9.899  17.941  0.00  0.00    +0.000 A 
ATOM      5  C   UNL     1      -2.425  10.783  18.290  0.00  0.00    +0.000 A 
ATOM      6  C   UNL     1      -2.156  12.000  18.866  0.00  0.00    +0.000 A 
ATOM      7  C   UNL     1      -0.866  12.422  19.104  0.00  0.00    +0.000 A 
ATOM      8  C   UNL     1       0.176  11.553  18.748  0.00  0.00    +0.000 A 
ATOM      9 BR   UNL     1       1.954  12.164  19.025  0.00  0.00    +0.000 Br
ATOM     10  O   UNL     1      -3.287  12.696  19.160  0.00  0.00    +0.000 OA
ATOM     11  C   UNL     1      -4.300  11.779  18.699  0.00  0.00    +0.000 C 
ATOM     12  O   UNL     1      -3.758  10.569  18.125  0.00  0.00    +0.000 OA
ENDBRANCH   2   3
BRANCH   1  13
ATOM     13  C   UNL     1       2.610   7.552  18.634  0.00  0.00    +0.000 A 
ATOM     14  C   UNL     1       3.455   7.746  17.526  0.00  0.00    +0.000 A 
ATOM     15  C   UNL     1       4.496   6.858  17.242  0.00  0.00    +0.000 A 
ATOM     16  C   UNL     1       4.729   5.756  18.068  0.00  0.00    +0.000 A 
ATOM     17  C   UNL     1       3.922   5.566  19.196  0.00  0.00    +0.000 A 
ATOM     18  C   UNL     1       2.869   6.455  19.471  0.00  0.00    +0.000 A 
BRANCH  16  19
ATOM     19  C   UNL     1       5.873   4.869  17.722  0.00  0.00    +0.000 C 
ATOM     20  O   UNL     1       6.536   5.016  16.711  0.00  0.00    +0.000 OA
BRANCH  19  21
ATOM     21  O   UNL     1       6.086   3.869  18.599  0.00  0.00    +0.000 OA
ATOM     22  H   UNL     1       6.438   4.130  19.466  0.00  0.00    +0.000 HD
ENDBRANCH  19  21
ENDBRANCH  16  19
ENDBRANCH   1  13
BRANCH   1  24
ATOM     23  N   UNL     1       0.501   8.827  21.493  0.00  0.00    +0.000 NA
ATOM     24  C   UNL     1       0.956   8.678  20.326  0.00  0.00    +0.000 C 
ENDBRANCH   1  24
TORSDOF 5
ENDMDL
MODEL 6
REMARK VINA RESULT:      -6.4      1.202      1.609
REMARK  Name = 
REMARK  5 active torsions:
REMARK  status: ('A' for Active; 'I' for Inactive)
REMARK    1  A    between atoms: C_2  and  C_3
REMARK    2  A    between atoms: C_3  and  C_15
REMARK    3  A    between atoms: C_4  and  C_5
REMARK    4  A    between atoms: C_18  and  C_19
REMARK    5  A    between atoms: C_19  and  O_21
REMARK                            x       y       z     vdW  Elec       q    Type
REMARK                         _______ _______ _______ _____ _____    ______ ____
ROOT
ATOM      1  C   UNL     1       1.833   8.496  18.799  0.00  0.00    +0.000 C 
ATOM      2  C   UNL     1       1.519   9.590  18.062  0.00  0.00    +0.000 C 
ENDROOT
BRANCH   2   3
ATOM      3  C   UNL     1       0.802  10.762  18.609  0.00  0.00    +0.000 A 
ATOM      4  C   UNL     1       1.540  11.683  19.373  0.00  0.00    +0.000 A 
ATOM      5  C   UNL     1       0.910  12.842  19.780  0.00  0.00    +0.000 A 
ATOM      6  C   UNL     1      -0.400  13.110  19.464  0.00  0.00    +0.000 A 
ATOM      7  C   UNL     1      -1.170  12.222  18.745  0.00  0.00    +0.000 A 
ATOM      8  C   UNL     1      -0.564  11.028  18.328  0.00  0.00    +0.000 A 
ATOM      9 BR   UNL     1      -1.648   9.782  17.388  0.00  0.00    +0.000 Br
ATOM     10  O   UNL     1      -0.809  14.319  19.934  0.00  0.00    +0.000 OA
ATOM     11  C   UNL     1       0.391  14.781  20.585  0.00  0.00    +0.000 C 
ATOM     12  O   UNL     1       1.482  13.837  20.509  0.00  0.00    +0.000 OA
ENDBRANCH   2   3
BRANCH   1  13
ATOM     13  C   UNL     1       2.611   7.374  18.224  0.00  0.00    +0.000 A 
ATOM     14  C   UNL     1       2.166   6.046  18.358  0.00  0.00    +0.000 A 
ATOM     15  C   UNL     1       2.894   4.978  17.828  0.00  0.00    +0.000 A 
ATOM     16  C   UNL     1       4.085   5.210  17.135  0.00  0.00    +0.000 A 
ATOM     17  C   UNL     1       4.525   6.528  16.959  0.00  0.00    +0.000 A 
ATOM     18  C   UNL     1       3.796   7.597  17.506  0.00  0.00    +0.000 A 
BRANCH  16  19
ATOM     19  C   UNL     1       4.793   4.029  16.570  0.00  0.00    +0.000 C 
ATOM     20  O   UNL     1       5.393   4.069  15.511  0.00  0.00    +0.000 OA
BRANCH  19  21
ATOM     21  O   UNL     1       4.679   2.907  17.307  0.00  0.00    +0.000 OA
ATOM     22  H   UNL     1       3.967   2.299  17.050  0.00  0.00    +0.000 HD
ENDBRANCH  19  21
ENDBRANCH  16  19
ENDBRANCH   1  13
BRANCH   1  24
ATOM     23  N   UNL     1       1.017   8.490  21.458  0.00  0.00    +0.000 NA
ATOM     24  C   UNL     1       1.387   8.493  20.252  0.00  0.00    +0.000 C 
ENDBRANCH   1  24
TORSDOF 5
ENDMDL
MODEL 7
REMARK VINA RESULT:      -6.4      4.022      8.559
REMARK  Name = 
REMARK  5 active torsions:
REMARK  status: ('A' for Active; 'I' for Inactive)
REMARK    1  A    between atoms: C_2  and  C_3
REMARK    2  A    between atoms: C_3  and  C_15
REMARK    3  A    between atoms: C_4  and  C_5
REMARK    4  A    between atoms: C_18  and  C_19
REMARK    5  A    between atoms: C_19  and  O_21
REMARK                            x       y       z     vdW  Elec       q    Type
REMARK                         _______ _______ _______ _____ _____    ______ ____
ROOT
ATOM      1  C   UNL     1       3.466   6.454  17.968  0.00  0.00    +0.000 C 
ATOM      2  C   UNL     1       4.432   6.896  17.126  0.00  0.00    +0.000 C 
ENDROOT
BRANCH   2   3
ATOM      3  C   UNL     1       5.260   5.997  16.292  0.00  0.00    +0.000 A 
ATOM      4  C   UNL     1       4.653   5.400  15.174  0.00  0.00    +0.000 A 
ATOM      5  C   UNL     1       5.449   4.663  14.320  0.00  0.00    +0.000 A 
ATOM      6  C   UNL     1       6.796   4.499  14.536  0.00  0.00    +0.000 A 
ATOM      7  C   UNL     1       7.426   5.040  15.636  0.00  0.00    +0.000 A 
ATOM      8  C   UNL     1       6.643   5.784  16.531  0.00  0.00    +0.000 A 
ATOM      9 BR   UNL     1       7.505   6.477  18.076  0.00  0.00    +0.000 Br
ATOM     10  O   UNL     1       7.393   3.768  13.557  0.00  0.00    +0.000 OA
ATOM     11  C   UNL     1       6.268   3.486  12.701  0.00  0.00    +0.000 C 
ATOM     12  O   UNL     1       5.024   4.034  13.192  0.00  0.00    +0.000 OA
ENDBRANCH   2   3
BRANCH   1  13
ATOM     13  C   UNL     1       2.616   7.396  18.734  0.00  0.00    +0.000 A 
ATOM     14  C   UNL     1       2.153   8.588  18.147  0.00  0.00    +0.000 A 
ATOM     15  C   UNL     1       1.358   9.488  18.861  0.00  0.00    +0.000 A 
ATOM     16  C   UNL     1       0.991   9.214  20.180  0.00  0.00    +0.000 A 
ATOM     17  C   UNL     1       1.411   8.015  20.770  0.00  0.00    +0.000 A 
ATOM     18  C   UNL     1       2.222   7.119  20.052  0.00  0.00    +0.000 A 
BRANCH  16  19
ATOM     19  C   UNL     1       0.117  10.201  20.870  0.00  0.00    +0.000 C 
ATOM     20  O   UNL     1      -0.878  10.673  20.350  0.00  0.00    +0.000 OA
BRANCH  19  21
ATOM     21  O   UNL     1       0.542  10.560  22.097  0.00  0.00    +0.000 OA
ATOM     22  H   UNL     1       1.499  10.703  22.192  0.00  0.00    +0.000 HD
ENDBRANCH  19  21
ENDBRANCH  16  19
ENDBRANCH   1  13
BRANCH   1  24
ATOM     23  N   UNL     1       3.097   3.702  18.130  0.00  0.00    +0.000 NA
ATOM     24  C   UNL     1       3.264   4.950  18.057  0.00  0.00    +0.000 C 
ENDBRANCH   1  24
TORSDOF 5
ENDMDL
MODEL 8
REMARK VINA RESULT:      -6.4      3.740      4.308
REMARK  Name = 
REMARK  5 active torsions:
REMARK  status: ('A' for Active; 'I' for Inactive)
REMARK    1  A    between atoms: C_2  and  C_3
REMARK    2  A    between atoms: C_3  and  C_15
REMARK    3  A    between atoms: C_4  and  C_5
REMARK    4  A    between atoms: C_18  and  C_19
REMARK    5  A    between atoms: C_19  and  O_21
REMARK                            x       y       z     vdW  Elec       q    Type
REMARK                         _______ _______ _______ _____ _____    ______ ____
ROOT
ATOM      1  C   UNL     1       0.263  10.337  20.058  0.00  0.00    +0.000 C 
ATOM      2  C   UNL     1       0.426  10.788  21.326  0.00  0.00    +0.000 C 
ENDROOT
BRANCH   2   3
ATOM      3  C   UNL     1      -0.462  11.792  21.954  0.00  0.00    +0.000 A 
ATOM      4  C   UNL     1      -1.635  11.330  22.576  0.00  0.00    +0.000 A 
ATOM      5  C   UNL     1      -2.403  12.241  23.272  0.00  0.00    +0.000 A 
ATOM      6  C   UNL     1      -2.055  13.567  23.367  0.00  0.00    +0.000 A 
ATOM      7  C   UNL     1      -0.932  14.070  22.748  0.00  0.00    +0.000 A 
ATOM      8  C   UNL     1      -0.136  13.172  22.020  0.00  0.00    +0.000 A 
ATOM      9 BR   UNL     1       1.378  13.882  21.119  0.00  0.00    +0.000 Br
ATOM     10  O   UNL     1      -2.930  14.279  24.127  0.00  0.00    +0.000 OA
ATOM     11  C   UNL     1      -3.872  13.251  24.496  0.00  0.00    +0.000 C 
ATOM     12  O   UNL     1      -3.554  11.957  23.938  0.00  0.00    +0.000 OA
ENDBRANCH   2   3
BRANCH   1  13
ATOM     13  C   UNL     1       1.137   9.282  19.494  0.00  0.00    +0.000 A 
ATOM     14  C   UNL     1       1.665   9.402  18.196  0.00  0.00    +0.000 A 
ATOM     15  C   UNL     1       2.485   8.411  17.649  0.00  0.00    +0.000 A 
ATOM     16  C   UNL     1       2.811   7.275  18.394  0.00  0.00    +0.000 A 
ATOM     17  C   UNL     1       2.326   7.155  19.703  0.00  0.00    +0.000 A 
ATOM     18  C   UNL     1       1.491   8.149  20.242  0.00  0.00    +0.000 A 
BRANCH  16  19
ATOM     19  C   UNL     1       3.713   6.275  17.762  0.00  0.00    +0.000 C 
ATOM     20  O   UNL     1       3.370   5.126  17.546  0.00  0.00    +0.000 OA
BRANCH  19  21
ATOM     21  O   UNL     1       4.949   6.734  17.488  0.00  0.00    +0.000 OA
ATOM     22  H   UNL     1       5.589   6.699  18.219  0.00  0.00    +0.000 HD
ENDBRANCH  19  21
ENDBRANCH  16  19
ENDBRANCH   1  13
BRANCH   1  24
ATOM     23  N   UNL     1      -1.835  11.424  18.592  0.00  0.00    +0.000 NA
ATOM     24  C   UNL     1      -0.884  10.932  19.257  0.00  0.00    +0.000 C 
ENDBRANCH   1  24
TORSDOF 5
ENDMDL
MODEL 9
REMARK VINA RESULT:      -6.4      3.532      4.149
REMARK  Name = 
REMARK  5 active torsions:
REMARK  status: ('A' for Active; 'I' for Inactive)
REMARK    1  A    between atoms: C_2  and  C_3
REMARK    2  A    between atoms: C_3  and  C_15
REMARK    3  A    between atoms: C_4  and  C_5
REMARK    4  A    between atoms: C_18  and  C_19
REMARK    5  A    between atoms: C_19  and  O_21
REMARK                            x       y       z     vdW  Elec       q    Type
REMARK                         _______ _______ _______ _____ _____    ______ ____
ROOT
ATOM      1  C   UNL     1       0.435  10.005  20.084  0.00  0.00    +0.000 C 
ATOM      2  C   UNL     1       0.555  10.509  21.337  0.00  0.00    +0.000 C 
ENDROOT
BRANCH   2   3
ATOM      3  C   UNL     1      -0.333  11.561  21.879  0.00  0.00    +0.000 A 
ATOM      4  C   UNL     1      -1.491  11.152  22.561  0.00  0.00    +0.000 A 
ATOM      5  C   UNL     1      -2.257  12.121  23.179  0.00  0.00    +0.000 A 
ATOM      6  C   UNL     1      -1.921  13.452  23.140  0.00  0.00    +0.000 A 
ATOM      7  C   UNL     1      -0.812  13.902  22.457  0.00  0.00    +0.000 A 
ATOM      8  C   UNL     1      -0.019  12.944  21.806  0.00  0.00    +0.000 A 
ATOM      9 BR   UNL     1       1.475  13.576  20.816  0.00  0.00    +0.000 Br
ATOM     10  O   UNL     1      -2.791  14.227  23.841  0.00  0.00    +0.000 OA
ATOM     11  C   UNL     1      -3.717  13.233  24.323  0.00  0.00    +0.000 C 
ATOM     12  O   UNL     1      -3.395  11.893  23.888  0.00  0.00    +0.000 OA
ENDBRANCH   2   3
BRANCH   1  13
ATOM     13  C   UNL     1       1.305   8.904  19.607  0.00  0.00    +0.000 A 
ATOM     14  C   UNL     1       1.578   7.794  20.428  0.00  0.00    +0.000 A 
ATOM     15  C   UNL     1       2.402   6.753  19.994  0.00  0.00    +0.000 A 
ATOM     16  C   UNL     1       2.966   6.786  18.717  0.00  0.00    +0.000 A 
ATOM     17  C   UNL     1       2.677   7.864  17.870  0.00  0.00    +0.000 A 
ATOM     18  C   UNL     1       1.858   8.915  18.317  0.00  0.00    +0.000 A 
BRANCH  16  19
ATOM     19  C   UNL     1       3.809   5.629  18.308  0.00  0.00    +0.000 C 
ATOM     20  O   UNL     1       3.529   4.915  17.362  0.00  0.00    +0.000 OA
BRANCH  19  21
ATOM     21  O   UNL     1       4.881   5.416  19.095  0.00  0.00    +0.000 OA
ATOM     22  H   UNL     1       5.161   6.165  19.647  0.00  0.00    +0.000 HD
ENDBRANCH  19  21
ENDBRANCH  16  19
ENDBRANCH   1  13
BRANCH   1  24
ATOM     23  N   UNL     1      -1.567  11.075  18.479  0.00  0.00    +0.000 NA
ATOM     24  C   UNL     1      -0.659  10.590  19.206  0.00  0.00    +0.000 C 
ENDBRANCH   1  24
TORSDOF 5
ENDMDL
