MODEL 1
REMARK VINA RESULT:      -7.5      0.000      0.000
REMARK  Name = 
REMARK  6 active torsions:
REMARK  status: ('A' for Active; 'I' for Inactive)
REMARK    1  A    between atoms: C_2  and  C_15
REMARK    2  A    between atoms: N_3  and  N_4
REMARK    3  A    between atoms: C_5  and  S_6
REMARK    4  A    between atoms: N_7  and  C_8
REMARK    5  A    between atoms: C_8  and  C_9
REMARK    6  A    between atoms: C_19  and  N_20
REMARK                            x       y       z     vdW  Elec       q    Type
REMARK                         _______ _______ _______ _____ _____    ______ ____
ROOT
ATOM      1  O   UNL     1       2.243   8.800  17.776  0.00  0.00    +0.000 OA
ATOM      2  C   UNL     1       1.839   8.581  18.913  0.00  0.00    +0.000 C 
ATOM      3  N   UNL     1       2.232   7.531  19.726  0.00  0.00    +0.000 N 
ATOM      4  H   UNL     1       1.718   7.293  20.566  0.00  0.00    +0.000 HD
ENDROOT
BRANCH   2   5
ATOM      5  C   UNL     1       0.815   9.495  19.498  0.00  0.00    +0.000 A 
ATOM      6  C   UNL     1      -0.026  10.276  18.690  0.00  0.00    +0.000 A 
ATOM      7  C   UNL     1      -0.963  11.136  19.269  0.00  0.00    +0.000 A 
ATOM      8  C   UNL     1      -1.079  11.212  20.657  0.00  0.00    +0.000 A 
ATOM      9  C   UNL     1      -0.264  10.407  21.466  0.00  0.00    +0.000 A 
ATOM     10  C   UNL     1       0.679   9.542  20.894  0.00  0.00    +0.000 A 
BRANCH   9  11
ATOM     11  N   UNL     1      -0.397  10.481  22.927  0.00  0.00    +0.000 N 
ATOM     12  O   UNL     1      -1.235  11.269  23.387  0.00  0.00    +0.000 OA
ATOM     13  O   UNL     1       0.340   9.759  23.611  0.00  0.00    +0.000 OA
ENDBRANCH   9  11
ENDBRANCH   2   5
BRANCH   3  14
ATOM     14  N   UNL     1       3.119   6.610  19.253  0.00  0.00    +0.000 NA
ATOM     15  C   UNL     1       2.901   5.349  19.464  0.00  0.00    +0.000 C 
ATOM     16  N   UNL     1       3.678   4.344  18.967  0.00  0.00    +0.000 N 
ATOM     17  H   UNL     1       3.343   3.409  19.164  0.00  0.00    +0.000 HD
BRANCH  15  18
ATOM     18  S   UNL     1       1.591   4.741  20.467  0.00  0.00    +0.000 S 
ATOM     19  H   UNL     1       1.635   3.483  20.020  0.00  0.00    +0.000 HD
ENDBRANCH  15  18
BRANCH  16  20
ATOM     20  C   UNL     1       4.410   4.471  17.726  0.00  0.00    +0.000 C 
BRANCH  20  21
ATOM     21  C   UNL     1       5.645   5.317  17.940  0.00  0.00    +0.000 A 
ATOM     22  C   UNL     1       5.926   6.393  17.086  0.00  0.00    +0.000 A 
ATOM     23  C   UNL     1       7.063   7.180  17.284  0.00  0.00    +0.000 A 
ATOM     24  C   UNL     1       7.936   6.898  18.331  0.00  0.00    +0.000 A 
ATOM     25  C   UNL     1       7.680   5.817  19.176  0.00  0.00    +0.000 A 
ATOM     26  C   UNL     1       6.541   5.032  18.983  0.00  0.00    +0.000 A 
ENDBRANCH  20  21
ENDBRANCH  16  20
ENDBRANCH   3  14
TORSDOF 6
ENDMDL
MODEL 2
REMARK VINA RESULT:      -7.3      5.744      9.312
REMARK  Name = 
REMARK  6 active torsions:
REMARK  status: ('A' for Active; 'I' for Inactive)
REMARK    1  A    between atoms: C_2  and  C_15
REMARK    2  A    between atoms: N_3  and  N_4
REMARK    3  A    between atoms: C_5  and  S_6
REMARK    4  A    between atoms: N_7  and  C_8
REMARK    5  A    between atoms: C_8  and  C_9
REMARK    6  A    between atoms: C_19  and  N_20
REMARK                            x       y       z     vdW  Elec       q    Type
REMARK                         _______ _______ _______ _____ _____    ______ ____
ROOT
ATOM      1  O   UNL     1       7.746   4.856  16.601  0.00  0.00    +0.000 OA
ATOM      2  C   UNL     1       6.737   4.663  15.931  0.00  0.00    +0.000 C 
ATOM      3  N   UNL     1       5.454   4.497  16.425  0.00  0.00    +0.000 N 
ATOM      4  H   UNL     1       4.705   4.145  15.841  0.00  0.00    +0.000 HD
ENDROOT
BRANCH   2   5
ATOM      5  C   UNL     1       6.868   4.572  14.447  0.00  0.00    +0.000 A 
ATOM      6  C   UNL     1       7.796   5.350  13.738  0.00  0.00    +0.000 A 
ATOM      7  C   UNL     1       7.884   5.253  12.347  0.00  0.00    +0.000 A 
ATOM      8  C   UNL     1       7.056   4.370  11.654  0.00  0.00    +0.000 A 
ATOM      9  C   UNL     1       6.152   3.567  12.363  0.00  0.00    +0.000 A 
ATOM     10  C   UNL     1       6.058   3.656  13.758  0.00  0.00    +0.000 A 
BRANCH   9  11
ATOM     11  N   UNL     1       5.290   2.629  11.631  0.00  0.00    +0.000 N 
ATOM     12  O   UNL     1       5.769   1.527  11.328  0.00  0.00    +0.000 OA
ATOM     13  O   UNL     1       4.140   2.996  11.355  0.00  0.00    +0.000 OA
ENDBRANCH   9  11
ENDBRANCH   2   5
BRANCH   3  14
ATOM     14  N   UNL     1       5.247   4.506  17.772  0.00  0.00    +0.000 NA
ATOM     15  C   UNL     1       4.584   5.484  18.309  0.00  0.00    +0.000 C 
ATOM     16  N   UNL     1       4.250   5.550  19.629  0.00  0.00    +0.000 N 
ATOM     17  H   UNL     1       3.676   6.343  19.885  0.00  0.00    +0.000 HD
BRANCH  15  18
ATOM     18  S   UNL     1       4.055   6.906  17.419  0.00  0.00    +0.000 S 
ATOM     19  H   UNL     1       4.005   7.727  18.471  0.00  0.00    +0.000 HD
ENDBRANCH  15  18
BRANCH  16  20
ATOM     20  C   UNL     1       4.033   4.366  20.433  0.00  0.00    +0.000 C 
BRANCH  20  21
ATOM     21  C   UNL     1       2.823   3.614  19.928  0.00  0.00    +0.000 A 
ATOM     22  C   UNL     1       2.979   2.432  19.189  0.00  0.00    +0.000 A 
ATOM     23  C   UNL     1       1.864   1.731  18.726  0.00  0.00    +0.000 A 
ATOM     24  C   UNL     1       0.581   2.204  18.988  0.00  0.00    +0.000 A 
ATOM     25  C   UNL     1       0.411   3.390  19.704  0.00  0.00    +0.000 A 
ATOM     26  C   UNL     1       1.525   4.090  20.172  0.00  0.00    +0.000 A 
ENDBRANCH  20  21
ENDBRANCH  16  20
ENDBRANCH   3  14
TORSDOF 6
ENDMDL
MODEL 3
REMARK VINA RESULT:      -7.2      2.883      8.498
REMARK  Name = 
REMARK  6 active torsions:
REMARK  status: ('A' for Active; 'I' for Inactive)
REMARK    1  A    between atoms: C_2  and  C_15
REMARK    2  A    between atoms: N_3  and  N_4
REMARK    3  A    between atoms: C_5  and  S_6
REMARK    4  A    between atoms: N_7  and  C_8
REMARK    5  A    between atoms: C_8  and  C_9
REMARK    6  A    between atoms: C_19  and  N_20
REMARK                            x       y       z     vdW  Elec       q    Type
REMARK                         _______ _______ _______ _____ _____    ______ ____
ROOT
ATOM      1  O   UNL     1       2.678   8.296  17.075  0.00  0.00    +0.000 OA
ATOM      2  C   UNL     1       2.784   7.706  18.145  0.00  0.00    +0.000 C 
ATOM      3  N   UNL     1       2.011   7.927  19.272  0.00  0.00    +0.000 N 
ATOM      4  H   UNL     1       2.278   7.553  20.176  0.00  0.00    +0.000 HD
ENDROOT
BRANCH   2   5
ATOM      5  C   UNL     1       3.843   6.666  18.288  0.00  0.00    +0.000 A 
ATOM      6  C   UNL     1       3.748   5.640  19.240  0.00  0.00    +0.000 A 
ATOM      7  C   UNL     1       4.766   4.690  19.360  0.00  0.00    +0.000 A 
ATOM      8  C   UNL     1       5.880   4.748  18.523  0.00  0.00    +0.000 A 
ATOM      9  C   UNL     1       5.961   5.752  17.547  0.00  0.00    +0.000 A 
ATOM     10  C   UNL     1       4.945   6.708  17.419  0.00  0.00    +0.000 A 
BRANCH   9  11
ATOM     11  N   UNL     1       7.130   5.804  16.659  0.00  0.00    +0.000 N 
ATOM     12  O   UNL     1       7.510   4.741  16.149  0.00  0.00    +0.000 OA
ATOM     13  O   UNL     1       7.669   6.903  16.477  0.00  0.00    +0.000 OA
ENDBRANCH   9  11
ENDBRANCH   2   5
BRANCH   3  14
ATOM     14  N   UNL     1       1.057   8.900  19.254  0.00  0.00    +0.000 NA
ATOM     15  C   UNL     1       0.709   9.472  20.366  0.00  0.00    +0.000 C 
ATOM     16  N   UNL     1      -0.172  10.509  20.451  0.00  0.00    +0.000 N 
ATOM     17  H   UNL     1      -0.292  10.891  21.380  0.00  0.00    +0.000 HD
BRANCH  15  18
ATOM     18  S   UNL     1       1.287   8.961  21.946  0.00  0.00    +0.000 S 
ATOM     19  H   UNL     1       0.635   7.796  21.972  0.00  0.00    +0.000 HD
ENDBRANCH  15  18
BRANCH  16  20
ATOM     20  C   UNL     1      -0.348  11.466  19.380  0.00  0.00    +0.000 C 
BRANCH  20  21
ATOM     21  C   UNL     1      -1.652  11.203  18.662  0.00  0.00    +0.000 A 
ATOM     22  C   UNL     1      -2.817  11.892  19.030  0.00  0.00    +0.000 A 
ATOM     23  C   UNL     1      -4.023  11.656  18.365  0.00  0.00    +0.000 A 
ATOM     24  C   UNL     1      -4.081  10.726  17.331  0.00  0.00    +0.000 A 
ATOM     25  C   UNL     1      -2.934  10.018  16.968  0.00  0.00    +0.000 A 
ATOM     26  C   UNL     1      -1.727  10.256  17.629  0.00  0.00    +0.000 A 
ENDBRANCH  20  21
ENDBRANCH  16  20
ENDBRANCH   3  14
TORSDOF 6
ENDMDL
MODEL 4
REMARK VINA RESULT:      -7.2      0.596      1.292
REMARK  Name = 
REMARK  6 active torsions:
REMARK  status: ('A' for Active; 'I' for Inactive)
REMARK    1  A    between atoms: C_2  and  C_15
REMARK    2  A    between atoms: N_3  and  N_4
REMARK    3  A    between atoms: C_5  and  S_6
REMARK    4  A    between atoms: N_7  and  C_8
REMARK    5  A    between atoms: C_8  and  C_9
REMARK    6  A    between atoms: C_19  and  N_20
REMARK                            x       y       z     vdW  Elec       q    Type
REMARK                         _______ _______ _______ _____ _____    ______ ____
ROOT
ATOM      1  O   UNL     1       2.515   9.113  17.779  0.00  0.00    +0.000 OA
ATOM      2  C   UNL     1       1.861   8.792  18.766  0.00  0.00    +0.000 C 
ATOM      3  N   UNL     1       2.041   7.645  19.520  0.00  0.00    +0.000 N 
ATOM      4  H   UNL     1       1.347   7.342  20.193  0.00  0.00    +0.000 HD
ENDROOT
BRANCH   2   5
ATOM      5  C   UNL     1       0.749   9.682  19.209  0.00  0.00    +0.000 A 
ATOM      6  C   UNL     1      -0.270  10.085  18.332  0.00  0.00    +0.000 A 
ATOM      7  C   UNL     1      -1.288  10.934  18.773  0.00  0.00    +0.000 A 
ATOM      8  C   UNL     1      -1.306  11.376  20.096  0.00  0.00    +0.000 A 
ATOM      9  C   UNL     1      -0.308  10.948  20.983  0.00  0.00    +0.000 A 
ATOM     10  C   UNL     1       0.717  10.096  20.549  0.00  0.00    +0.000 A 
BRANCH   9  11
ATOM     11  N   UNL     1      -0.336  11.407  22.378  0.00  0.00    +0.000 N 
ATOM     12  O   UNL     1      -0.300  10.543  23.266  0.00  0.00    +0.000 OA
ATOM     13  O   UNL     1      -0.399  12.626  22.585  0.00  0.00    +0.000 OA
ENDBRANCH   9  11
ENDBRANCH   2   5
BRANCH   3  14
ATOM     14  N   UNL     1       2.995   6.742  19.155  0.00  0.00    +0.000 NA
ATOM     15  C   UNL     1       2.861   5.499  19.503  0.00  0.00    +0.000 C 
ATOM     16  N   UNL     1       3.711   4.502  19.122  0.00  0.00    +0.000 N 
ATOM     17  H   UNL     1       3.438   3.574  19.419  0.00  0.00    +0.000 HD
BRANCH  15  18
ATOM     18  S   UNL     1       1.586   4.915  20.562  0.00  0.00    +0.000 S 
ATOM     19  H   UNL     1       1.348   3.783  19.896  0.00  0.00    +0.000 HD
ENDBRANCH  15  18
BRANCH  16  20
ATOM     20  C   UNL     1       4.446   4.543  17.876  0.00  0.00    +0.000 C 
BRANCH  20  21
ATOM     21  C   UNL     1       5.684   5.395  18.036  0.00  0.00    +0.000 A 
ATOM     22  C   UNL     1       6.595   5.138  19.071  0.00  0.00    +0.000 A 
ATOM     23  C   UNL     1       7.744   5.919  19.218  0.00  0.00    +0.000 A 
ATOM     24  C   UNL     1       7.992   6.971  18.340  0.00  0.00    +0.000 A 
ATOM     25  C   UNL     1       7.084   7.251  17.318  0.00  0.00    +0.000 A 
ATOM     26  C   UNL     1       5.938   6.468  17.167  0.00  0.00    +0.000 A 
ENDBRANCH  20  21
ENDBRANCH  16  20
ENDBRANCH   3  14
TORSDOF 6
ENDMDL
MODEL 5
REMARK VINA RESULT:      -7.2      1.510      2.006
REMARK  Name = 
REMARK  6 active torsions:
REMARK  status: ('A' for Active; 'I' for Inactive)
REMARK    1  A    between atoms: C_2  and  C_15
REMARK    2  A    between atoms: N_3  and  N_4
REMARK    3  A    between atoms: C_5  and  S_6
REMARK    4  A    between atoms: N_7  and  C_8
REMARK    5  A    between atoms: C_8  and  C_9
REMARK    6  A    between atoms: C_19  and  N_20
REMARK                            x       y       z     vdW  Elec       q    Type
REMARK                         _______ _______ _______ _____ _____    ______ ____
ROOT
ATOM      1  O   UNL     1       1.684   9.025  18.882  0.00  0.00    +0.000 OA
ATOM      2  C   UNL     1       1.539   8.568  20.011  0.00  0.00    +0.000 C 
ATOM      3  N   UNL     1       2.091   7.391  20.486  0.00  0.00    +0.000 N 
ATOM      4  H   UNL     1       1.773   6.971  21.352  0.00  0.00    +0.000 HD
ENDROOT
BRANCH   2   5
ATOM      5  C   UNL     1       0.679   9.310  20.979  0.00  0.00    +0.000 A 
ATOM      6  C   UNL     1       0.655   8.987  22.344  0.00  0.00    +0.000 A 
ATOM      7  C   UNL     1      -0.173   9.689  23.223  0.00  0.00    +0.000 A 
ATOM      8  C   UNL     1      -0.974  10.728  22.749  0.00  0.00    +0.000 A 
ATOM      9  C   UNL     1      -0.927  11.076  21.391  0.00  0.00    +0.000 A 
ATOM     10  C   UNL     1      -0.098  10.377  20.503  0.00  0.00    +0.000 A 
BRANCH   9  11
ATOM     11  N   UNL     1      -1.763  12.178  20.897  0.00  0.00    +0.000 N 
ATOM     12  O   UNL     1      -2.372  12.856  21.737  0.00  0.00    +0.000 OA
ATOM     13  O   UNL     1      -1.813  12.361  19.674  0.00  0.00    +0.000 OA
ENDBRANCH   9  11
ENDBRANCH   2   5
BRANCH   3  14
ATOM     14  N   UNL     1       2.842   6.616  19.654  0.00  0.00    +0.000 NA
ATOM     15  C   UNL     1       2.582   5.348  19.557  0.00  0.00    +0.000 C 
ATOM     16  N   UNL     1       3.216   4.500  18.697  0.00  0.00    +0.000 N 
ATOM     17  H   UNL     1       2.858   3.553  18.691  0.00  0.00    +0.000 HD
BRANCH  15  18
ATOM     18  S   UNL     1       1.401   4.516  20.560  0.00  0.00    +0.000 S 
ATOM     19  H   UNL     1       1.495   3.333  19.946  0.00  0.00    +0.000 HD
ENDBRANCH  15  18
BRANCH  16  20
ATOM     20  C   UNL     1       3.762   4.944  17.433  0.00  0.00    +0.000 C 
BRANCH  20  21
ATOM     21  C   UNL     1       5.141   5.527  17.644  0.00  0.00    +0.000 A 
ATOM     22  C   UNL     1       5.483   6.764  17.080  0.00  0.00    +0.000 A 
ATOM     23  C   UNL     1       6.754   7.309  17.277  0.00  0.00    +0.000 A 
ATOM     24  C   UNL     1       7.701   6.622  18.033  0.00  0.00    +0.000 A 
ATOM     25  C   UNL     1       7.381   5.379  18.582  0.00  0.00    +0.000 A 
ATOM     26  C   UNL     1       6.109   4.835  18.390  0.00  0.00    +0.000 A 
ENDBRANCH  20  21
ENDBRANCH  16  20
ENDBRANCH   3  14
TORSDOF 6
ENDMDL
MODEL 6
REMARK VINA RESULT:      -7.1      1.783      2.494
REMARK  Name = 
REMARK  6 active torsions:
REMARK  status: ('A' for Active; 'I' for Inactive)
REMARK    1  A    between atoms: C_2  and  C_15
REMARK    2  A    between atoms: N_3  and  N_4
REMARK    3  A    between atoms: C_5  and  S_6
REMARK    4  A    between atoms: N_7  and  C_8
REMARK    5  A    between atoms: C_8  and  C_9
REMARK    6  A    between atoms: C_19  and  N_20
REMARK                            x       y       z     vdW  Elec       q    Type
REMARK                         _______ _______ _______ _____ _____    ______ ____
ROOT
ATOM      1  O   UNL     1       2.019   8.503  18.701  0.00  0.00    +0.000 OA
ATOM      2  C   UNL     1       1.751   8.058  19.813  0.00  0.00    +0.000 C 
ATOM      3  N   UNL     1       2.089   6.802  20.286  0.00  0.00    +0.000 N 
ATOM      4  H   UNL     1       1.669   6.426  21.128  0.00  0.00    +0.000 HD
ENDROOT
BRANCH   2   5
ATOM      5  C   UNL     1       0.975   8.912  20.758  0.00  0.00    +0.000 A 
ATOM      6  C   UNL     1       1.064   8.746  22.149  0.00  0.00    +0.000 A 
ATOM      7  C   UNL     1       0.311   9.551  23.007  0.00  0.00    +0.000 A 
ATOM      8  C   UNL     1      -0.527  10.537  22.486  0.00  0.00    +0.000 A 
ATOM      9  C   UNL     1      -0.593  10.728  21.098  0.00  0.00    +0.000 A 
ATOM     10  C   UNL     1       0.160   9.926  20.230  0.00  0.00    +0.000 A 
BRANCH   9  11
ATOM     11  N   UNL     1      -1.468  11.774  20.553  0.00  0.00    +0.000 N 
ATOM     12  O   UNL     1      -1.671  12.775  21.255  0.00  0.00    +0.000 OA
ATOM     13  O   UNL     1      -1.954  11.593  19.429  0.00  0.00    +0.000 OA
ENDBRANCH   9  11
ENDBRANCH   2   5
BRANCH   3  14
ATOM     14  N   UNL     1       2.747   5.930  19.471  0.00  0.00    +0.000 NA
ATOM     15  C   UNL     1       2.765   4.668  19.771  0.00  0.00    +0.000 C 
ATOM     16  N   UNL     1       3.322   3.702  18.985  0.00  0.00    +0.000 N 
ATOM     17  H   UNL     1       3.200   2.756  19.322  0.00  0.00    +0.000 HD
BRANCH  15  18
ATOM     18  S   UNL     1       2.113   4.012  21.266  0.00  0.00    +0.000 S 
ATOM     19  H   UNL     1       3.221   3.366  21.639  0.00  0.00    +0.000 HD
ENDBRANCH  15  18
BRANCH  16  20
ATOM     20  C   UNL     1       3.399   3.823  17.545  0.00  0.00    +0.000 C 
BRANCH  20  21
ATOM     21  C   UNL     1       4.815   4.151  17.129  0.00  0.00    +0.000 A 
ATOM     22  C   UNL     1       5.801   4.395  18.096  0.00  0.00    +0.000 A 
ATOM     23  C   UNL     1       7.112   4.692  17.716  0.00  0.00    +0.000 A 
ATOM     24  C   UNL     1       7.451   4.757  16.367  0.00  0.00    +0.000 A 
ATOM     25  C   UNL     1       6.475   4.538  15.394  0.00  0.00    +0.000 A 
ATOM     26  C   UNL     1       5.165   4.236  15.773  0.00  0.00    +0.000 A 
ENDBRANCH  20  21
ENDBRANCH  16  20
ENDBRANCH   3  14
TORSDOF 6
ENDMDL
MODEL 7
REMARK VINA RESULT:      -7.1      0.806      1.344
REMARK  Name = 
REMARK  6 active torsions:
REMARK  status: ('A' for Active; 'I' for Inactive)
REMARK    1  A    between atoms: C_2  and  C_15
REMARK    2  A    between atoms: N_3  and  N_4
REMARK    3  A    between atoms: C_5  and  S_6
REMARK    4  A    between atoms: N_7  and  C_8
REMARK    5  A    between atoms: C_8  and  C_9
REMARK    6  A    between atoms: C_19  and  N_20
REMARK                            x       y       z     vdW  Elec       q    Type
REMARK                         _______ _______ _______ _____ _____    ______ ____
ROOT
ATOM      1  O   UNL     1       2.624   8.363  17.870  0.00  0.00    +0.000 OA
ATOM      2  C   UNL     1       2.061   8.099  18.927  0.00  0.00    +0.000 C 
ATOM      3  N   UNL     1       2.200   6.927  19.651  0.00  0.00    +0.000 N 
ATOM      4  H   UNL     1       1.561   6.692  20.401  0.00  0.00    +0.000 HD
ENDROOT
BRANCH   2   5
ATOM      5  C   UNL     1       1.116   9.100  19.504  0.00  0.00    +0.000 A 
ATOM      6  C   UNL     1       0.435  10.025  18.698  0.00  0.00    +0.000 A 
ATOM      7  C   UNL     1      -0.430  10.961  19.271  0.00  0.00    +0.000 A 
ATOM      8  C   UNL     1      -0.633  10.973  20.650  0.00  0.00    +0.000 A 
ATOM      9  C   UNL     1       0.020  10.028  21.455  0.00  0.00    +0.000 A 
ATOM     10  C   UNL     1       0.889   9.085  20.889  0.00  0.00    +0.000 A 
BRANCH   9  11
ATOM     11  N   UNL     1      -0.205  10.035  22.907  0.00  0.00    +0.000 N 
ATOM     12  O   UNL     1      -1.287  10.479  23.317  0.00  0.00    +0.000 OA
ATOM     13  O   UNL     1       0.700   9.605  23.634  0.00  0.00    +0.000 OA
ENDBRANCH   9  11
ENDBRANCH   2   5
BRANCH   3  14
ATOM     14  N   UNL     1       2.996   5.931  19.169  0.00  0.00    +0.000 NA
ATOM     15  C   UNL     1       2.938   4.752  19.711  0.00  0.00    +0.000 C 
ATOM     16  N   UNL     1       3.628   3.667  19.256  0.00  0.00    +0.000 N 
ATOM     17  H   UNL     1       3.429   2.802  19.743  0.00  0.00    +0.000 HD
BRANCH  15  18
ATOM     18  S   UNL     1       1.995   4.385  21.148  0.00  0.00    +0.000 S 
ATOM     19  H   UNL     1       2.217   5.546  21.770  0.00  0.00    +0.000 HD
ENDBRANCH  15  18
BRANCH  16  20
ATOM     20  C   UNL     1       3.990   3.505  17.865  0.00  0.00    +0.000 C 
BRANCH  20  21
ATOM     21  C   UNL     1       5.127   4.438  17.515  0.00  0.00    +0.000 A 
ATOM     22  C   UNL     1       6.226   4.573  18.376  0.00  0.00    +0.000 A 
ATOM     23  C   UNL     1       7.281   5.430  18.053  0.00  0.00    +0.000 A 
ATOM     24  C   UNL     1       7.247   6.167  16.873  0.00  0.00    +0.000 A 
ATOM     25  C   UNL     1       6.150   6.059  16.017  0.00  0.00    +0.000 A 
ATOM     26  C   UNL     1       5.097   5.199  16.336  0.00  0.00    +0.000 A 
ENDBRANCH  20  21
ENDBRANCH  16  20
ENDBRANCH   3  14
TORSDOF 6
ENDMDL
MODEL 8
REMARK VINA RESULT:      -7.1      5.118      9.349
REMARK  Name = 
REMARK  6 active torsions:
REMARK  status: ('A' for Active; 'I' for Inactive)
REMARK    1  A    between atoms: C_2  and  C_15
REMARK    2  A    between atoms: N_3  and  N_4
REMARK    3  A    between atoms: C_5  and  S_6
REMARK    4  A    between atoms: N_7  and  C_8
REMARK    5  A    between atoms: C_8  and  C_9
REMARK    6  A    between atoms: C_19  and  N_20
REMARK                            x       y       z     vdW  Elec       q    Type
REMARK                         _______ _______ _______ _____ _____    ______ ____
ROOT
ATOM      1  O   UNL     1       5.086   6.401  15.543  0.00  0.00    +0.000 OA
ATOM      2  C   UNL     1       5.396   5.220  15.426  0.00  0.00    +0.000 C 
ATOM      3  N   UNL     1       5.163   4.224  16.359  0.00  0.00    +0.000 N 
ATOM      4  H   UNL     1       5.618   3.321  16.291  0.00  0.00    +0.000 HD
ENDROOT
BRANCH   2   5
ATOM      5  C   UNL     1       6.109   4.786  14.190  0.00  0.00    +0.000 A 
ATOM      6  C   UNL     1       7.331   5.357  13.802  0.00  0.00    +0.000 A 
ATOM      7  C   UNL     1       7.966   4.940  12.629  0.00  0.00    +0.000 A 
ATOM      8  C   UNL     1       7.394   3.941  11.841  0.00  0.00    +0.000 A 
ATOM      9  C   UNL     1       6.191   3.345  12.244  0.00  0.00    +0.000 A 
ATOM     10  C   UNL     1       5.548   3.756  13.419  0.00  0.00    +0.000 A 
BRANCH   9  11
ATOM     11  N   UNL     1       5.597   2.285  11.418  0.00  0.00    +0.000 N 
ATOM     12  O   UNL     1       4.410   2.413  11.088  0.00  0.00    +0.000 OA
ATOM     13  O   UNL     1       6.315   1.325  11.106  0.00  0.00    +0.000 OA
ENDBRANCH   9  11
ENDBRANCH   2   5
BRANCH   3  14
ATOM     14  N   UNL     1       4.571   4.538  17.545  0.00  0.00    +0.000 NA
ATOM     15  C   UNL     1       5.273   5.106  18.477  0.00  0.00    +0.000 C 
ATOM     16  N   UNL     1       4.762   5.536  19.667  0.00  0.00    +0.000 N 
ATOM     17  H   UNL     1       5.421   6.018  20.264  0.00  0.00    +0.000 HD
BRANCH  15  18
ATOM     18  S   UNL     1       7.008   5.366  18.368  0.00  0.00    +0.000 S 
ATOM     19  H   UNL     1       6.987   6.010  17.197  0.00  0.00    +0.000 HD
ENDBRANCH  15  18
BRANCH  16  20
ATOM     20  C   UNL     1       3.390   5.973  19.808  0.00  0.00    +0.000 C 
BRANCH  20  21
ATOM     21  C   UNL     1       2.506   4.796  20.153  0.00  0.00    +0.000 A 
ATOM     22  C   UNL     1       2.614   4.168  21.402  0.00  0.00    +0.000 A 
ATOM     23  C   UNL     1       1.794   3.084  21.726  0.00  0.00    +0.000 A 
ATOM     24  C   UNL     1       0.864   2.611  20.805  0.00  0.00    +0.000 A 
ATOM     25  C   UNL     1       0.760   3.213  19.551  0.00  0.00    +0.000 A 
ATOM     26  C   UNL     1       1.575   4.300  19.227  0.00  0.00    +0.000 A 
ENDBRANCH  20  21
ENDBRANCH  16  20
ENDBRANCH   3  14
TORSDOF 6
ENDMDL
MODEL 9
REMARK VINA RESULT:      -7.0      2.282      2.882
REMARK  Name = 
REMARK  6 active torsions:
REMARK  status: ('A' for Active; 'I' for Inactive)
REMARK    1  A    between atoms: C_2  and  C_15
REMARK    2  A    between atoms: N_3  and  N_4
REMARK    3  A    between atoms: C_5  and  S_6
REMARK    4  A    between atoms: N_7  and  C_8
REMARK    5  A    between atoms: C_8  and  C_9
REMARK    6  A    between atoms: C_19  and  N_20
REMARK                            x       y       z     vdW  Elec       q    Type
REMARK                         _______ _______ _______ _____ _____    ______ ____
ROOT
ATOM      1  O   UNL     1       2.383   8.925  17.330  0.00  0.00    +0.000 OA
ATOM      2  C   UNL     1       1.806   8.754  18.399  0.00  0.00    +0.000 C 
ATOM      3  N   UNL     1       2.081   7.755  19.317  0.00  0.00    +0.000 N 
ATOM      4  H   UNL     1       1.443   7.548  20.077  0.00  0.00    +0.000 HD
ENDROOT
BRANCH   2   5
ATOM      5  C   UNL     1       0.689   9.672  18.765  0.00  0.00    +0.000 A 
ATOM      6  C   UNL     1       0.760  10.512  19.887  0.00  0.00    +0.000 A 
ATOM      7  C   UNL     1      -0.310  11.349  20.213  0.00  0.00    +0.000 A 
ATOM      8  C   UNL     1      -1.454  11.364  19.415  0.00  0.00    +0.000 A 
ATOM      9  C   UNL     1      -1.514  10.551  18.274  0.00  0.00    +0.000 A 
ATOM     10  C   UNL     1      -0.445   9.709  17.939  0.00  0.00    +0.000 A 
BRANCH   9  11
ATOM     11  N   UNL     1      -2.716  10.578  17.429  0.00  0.00    +0.000 N 
ATOM     12  O   UNL     1      -3.624   9.779  17.698  0.00  0.00    +0.000 OA
ATOM     13  O   UNL     1      -2.748  11.392  16.497  0.00  0.00    +0.000 OA
ENDBRANCH   9  11
ENDBRANCH   2   5
BRANCH   3  14
ATOM     14  N   UNL     1       3.046   6.833  19.040  0.00  0.00    +0.000 NA
ATOM     15  C   UNL     1       2.906   5.616  19.469  0.00  0.00    +0.000 C 
ATOM     16  N   UNL     1       3.767   4.599  19.181  0.00  0.00    +0.000 N 
ATOM     17  H   UNL     1       3.488   3.692  19.533  0.00  0.00    +0.000 HD
BRANCH  15  18
ATOM     18  S   UNL     1       1.603   5.101  20.532  0.00  0.00    +0.000 S 
ATOM     19  H   UNL     1       2.102   5.640  21.648  0.00  0.00    +0.000 HD
ENDBRANCH  15  18
BRANCH  16  20
ATOM     20  C   UNL     1       4.535   4.557  17.955  0.00  0.00    +0.000 C 
BRANCH  20  21
ATOM     21  C   UNL     1       5.777   5.409  18.096  0.00  0.00    +0.000 A 
ATOM     22  C   UNL     1       6.653   5.215  19.174  0.00  0.00    +0.000 A 
ATOM     23  C   UNL     1       7.804   5.996  19.303  0.00  0.00    +0.000 A 
ATOM     24  C   UNL     1       8.089   6.983  18.364  0.00  0.00    +0.000 A 
ATOM     25  C   UNL     1       7.215   7.201  17.298  0.00  0.00    +0.000 A 
ATOM     26  C   UNL     1       6.067   6.418  17.164  0.00  0.00    +0.000 A 
ENDBRANCH  20  21
ENDBRANCH  16  20
ENDBRANCH   3  14
TORSDOF 6
ENDMDL
