MODEL 1
REMARK VINA RESULT:      -9.7      0.000      0.000
REMARK  Name = 
REMARK  3 active torsions:
REMARK  status: ('A' for Active; 'I' for Inactive)
REMARK    1  A    between atoms: C_2  and  C_4
REMARK    2  A    between atoms: C_8  and  C_9
REMARK    3  A    between atoms: C_19  and  C_21
REMARK                            x       y       z     vdW  Elec       q    Type
REMARK                         _______ _______ _______ _____ _____    ______ ____
ROOT
ATOM      1  C   UNL     1       1.802   8.736  18.968  0.00  0.00    +0.000 A 
ATOM      2  C   UNL     1       2.859   8.412  18.114  0.00  0.00    +0.000 A 
ATOM      3  C   UNL     1       3.521   7.146  18.194  0.00  0.00    +0.000 A 
ATOM      4  C   UNL     1       3.074   6.147  19.073  0.00  0.00    +0.000 A 
ATOM      5  C   UNL     1       2.036   6.505  19.948  0.00  0.00    +0.000 A 
ATOM      6  C   UNL     1       1.497   7.798  19.952  0.00  0.00    +0.000 A 
ATOM      7  C   UNL     1       1.495   5.581  20.994  0.00  0.00    +0.000 C 
ATOM      8  C   UNL     1       1.509   4.138  20.578  0.00  0.00    +0.000 C 
ATOM      9  C   UNL     1       2.598   3.774  19.594  0.00  0.00    +0.000 C 
ATOM     10  N   UNL     1       3.570   4.807  19.194  0.00  0.00    +0.000 N 
ATOM     11  C   UNL     1       4.871   4.289  19.064  0.00  0.00    +0.000 C 
ATOM     12  O   UNL     1       5.172   3.250  19.666  0.00  0.00    +0.000 OA
ENDROOT
BRANCH  11  13
ATOM     13  C   UNL     1       5.935   4.714  18.143  0.00  0.00    +0.000 A 
ATOM     14  C   UNL     1       6.911   5.583  18.629  0.00  0.00    +0.000 A 
ATOM     15  F   UNL     1       7.192   5.647  19.939  0.00  0.00    +0.000 F 
ATOM     16  C   UNL     1       7.563   6.490  17.787  0.00  0.00    +0.000 A 
ATOM     17  C   UNL     1       7.189   6.592  16.448  0.00  0.00    +0.000 A 
ATOM     18  C   UNL     1       6.236   5.719  15.934  0.00  0.00    +0.000 A 
ATOM     19  C   UNL     1       5.640   4.758  16.763  0.00  0.00    +0.000 A 
ATOM     20 CL   UNL     1       4.508   3.680  16.007  0.00  0.00    +0.000 Cl
ENDBRANCH  11  13
BRANCH   1  25
ATOM     21  C   UNL     1      -1.235  10.661  17.774  0.00  0.00    +0.000 A 
ATOM     22  C   UNL     1      -1.030  11.922  18.326  0.00  0.00    +0.000 A 
ATOM     23  C   UNL     1       0.095  12.163  19.125  0.00  0.00    +0.000 A 
ATOM     24  C   UNL     1       1.040  11.150  19.368  0.00  0.00    +0.000 A 
ATOM     25  C   UNL     1       0.868   9.878  18.812  0.00  0.00    +0.000 A 
ATOM     26  C   UNL     1      -0.290   9.665  18.022  0.00  0.00    +0.000 A 
BRANCH  21  28
ATOM     27  N   UNL     1      -2.535  11.150  15.740  0.00  0.00    +0.000 N 
ATOM     28  C   UNL     1      -2.410  10.418  16.885  0.00  0.00    +0.000 C 
ATOM     29  O   UNL     1      -3.262   9.584  17.172  0.00  0.00    +0.000 OA
ATOM     30  H   UNL     1      -3.351  10.978  15.170  0.00  0.00    +0.000 HD
ATOM     31  H   UNL     1      -1.827  11.767  15.365  0.00  0.00    +0.000 HD
ENDBRANCH  21  28
ENDBRANCH   1  25
TORSDOF 3
ENDMDL
MODEL 2
REMARK VINA RESULT:      -9.5      2.338      2.811
REMARK  Name = 
REMARK  3 active torsions:
REMARK  status: ('A' for Active; 'I' for Inactive)
REMARK    1  A    between atoms: C_2  and  C_4
REMARK    2  A    between atoms: C_8  and  C_9
REMARK    3  A    between atoms: C_19  and  C_21
REMARK                            x       y       z     vdW  Elec       q    Type
REMARK                         _______ _______ _______ _____ _____    ______ ____
ROOT
ATOM      1  C   UNL     1       1.519   7.727  20.445  0.00  0.00    +0.000 A 
ATOM      2  C   UNL     1       2.399   7.818  19.364  0.00  0.00    +0.000 A 
ATOM      3  C   UNL     1       2.910   6.649  18.717  0.00  0.00    +0.000 A 
ATOM      4  C   UNL     1       2.476   5.366  19.087  0.00  0.00    +0.000 A 
ATOM      5  C   UNL     1       1.621   5.293  20.199  0.00  0.00    +0.000 A 
ATOM      6  C   UNL     1       1.246   6.442  20.909  0.00  0.00    +0.000 A 
ATOM      7  C   UNL     1       1.126   3.999  20.764  0.00  0.00    +0.000 C 
ATOM      8  C   UNL     1       0.910   2.939  19.723  0.00  0.00    +0.000 C 
ATOM      9  C   UNL     1       1.798   3.057  18.505  0.00  0.00    +0.000 C 
ATOM     10  N   UNL     1       2.819   4.119  18.470  0.00  0.00    +0.000 N 
ATOM     11  C   UNL     1       4.018   3.681  17.878  0.00  0.00    +0.000 C 
ATOM     12  O   UNL     1       4.274   2.470  17.855  0.00  0.00    +0.000 OA
ENDROOT
BRANCH  11  13
ATOM     13  C   UNL     1       4.985   4.459  17.091  0.00  0.00    +0.000 A 
ATOM     14  C   UNL     1       5.033   4.242  15.715  0.00  0.00    +0.000 A 
ATOM     15  F   UNL     1       3.971   3.759  15.052  0.00  0.00    +0.000 F 
ATOM     16  C   UNL     1       6.215   4.421  14.990  0.00  0.00    +0.000 A 
ATOM     17  C   UNL     1       7.397   4.752  15.652  0.00  0.00    +0.000 A 
ATOM     18  C   UNL     1       7.369   5.000  17.021  0.00  0.00    +0.000 A 
ATOM     19  C   UNL     1       6.165   4.894  17.732  0.00  0.00    +0.000 A 
ATOM     20 CL   UNL     1       6.231   5.283  19.423  0.00  0.00    +0.000 Cl
ENDBRANCH  11  13
BRANCH   1  25
ATOM     21  C   UNL     1      -0.513  10.924  20.526  0.00  0.00    +0.000 A 
ATOM     22  C   UNL     1      -0.791  11.071  21.882  0.00  0.00    +0.000 A 
ATOM     23  C   UNL     1      -0.343  10.111  22.797  0.00  0.00    +0.000 A 
ATOM     24  C   UNL     1       0.407   9.000  22.372  0.00  0.00    +0.000 A 
ATOM     25  C   UNL     1       0.716   8.835  21.018  0.00  0.00    +0.000 A 
ATOM     26  C   UNL     1       0.232   9.818  20.116  0.00  0.00    +0.000 A 
BRANCH  21  28
ATOM     27  N   UNL     1      -0.656  11.813  18.233  0.00  0.00    +0.000 N 
ATOM     28  C   UNL     1      -0.951  11.972  19.556  0.00  0.00    +0.000 C 
ATOM     29  O   UNL     1      -1.560  12.969  19.931  0.00  0.00    +0.000 OA
ATOM     30  H   UNL     1      -0.947  12.549  17.605  0.00  0.00    +0.000 HD
ATOM     31  H   UNL     1      -0.269  10.975  17.821  0.00  0.00    +0.000 HD
ENDBRANCH  21  28
ENDBRANCH   1  25
TORSDOF 3
ENDMDL
MODEL 3
REMARK VINA RESULT:      -9.4      1.612      1.884
REMARK  Name = 
REMARK  3 active torsions:
REMARK  status: ('A' for Active; 'I' for Inactive)
REMARK    1  A    between atoms: C_2  and  C_4
REMARK    2  A    between atoms: C_8  and  C_9
REMARK    3  A    between atoms: C_19  and  C_21
REMARK                            x       y       z     vdW  Elec       q    Type
REMARK                         _______ _______ _______ _____ _____    ______ ____
ROOT
ATOM      1  C   UNL     1       1.491   8.938  18.934  0.00  0.00    +0.000 A 
ATOM      2  C   UNL     1       2.287   8.535  17.860  0.00  0.00    +0.000 A 
ATOM      3  C   UNL     1       2.985   7.285  17.875  0.00  0.00    +0.000 A 
ATOM      4  C   UNL     1       2.822   6.377  18.932  0.00  0.00    +0.000 A 
ATOM      5  C   UNL     1       2.049   6.815  20.019  0.00  0.00    +0.000 A 
ATOM      6  C   UNL     1       1.492   8.101  20.048  0.00  0.00    +0.000 A 
ATOM      7  C   UNL     1       1.839   5.997  21.254  0.00  0.00    +0.000 C 
ATOM      8  C   UNL     1       1.784   4.520  20.987  0.00  0.00    +0.000 C 
ATOM      9  C   UNL     1       2.577   4.065  19.783  0.00  0.00    +0.000 C 
ATOM     10  N   UNL     1       3.372   5.057  19.038  0.00  0.00    +0.000 N 
ATOM     11  C   UNL     1       4.605   4.533  18.609  0.00  0.00    +0.000 C 
ATOM     12  O   UNL     1       5.088   3.559  19.202  0.00  0.00    +0.000 OA
ENDROOT
BRANCH  11  13
ATOM     13  C   UNL     1       5.367   4.869  17.398  0.00  0.00    +0.000 A 
ATOM     14  C   UNL     1       4.926   4.348  16.182  0.00  0.00    +0.000 A 
ATOM     15  F   UNL     1       3.644   3.995  16.004  0.00  0.00    +0.000 F 
ATOM     16  C   UNL     1       5.817   4.080  15.138  0.00  0.00    +0.000 A 
ATOM     17  C   UNL     1       7.187   4.262  15.326  0.00  0.00    +0.000 A 
ATOM     18  C   UNL     1       7.649   4.805  16.520  0.00  0.00    +0.000 A 
ATOM     19  C   UNL     1       6.745   5.145  17.537  0.00  0.00    +0.000 A 
ATOM     20 CL   UNL     1       7.421   5.870  18.961  0.00  0.00    +0.000 Cl
ENDBRANCH  11  13
BRANCH   1  25
ATOM     21  C   UNL     1      -1.515  10.983  17.869  0.00  0.00    +0.000 A 
ATOM     22  C   UNL     1      -1.434  12.096  18.702  0.00  0.00    +0.000 A 
ATOM     23  C   UNL     1      -0.408  12.188  19.650  0.00  0.00    +0.000 A 
ATOM     24  C   UNL     1       0.563  11.177  19.766  0.00  0.00    +0.000 A 
ATOM     25  C   UNL     1       0.516  10.056  18.932  0.00  0.00    +0.000 A 
ATOM     26  C   UNL     1      -0.546   9.988  17.994  0.00  0.00    +0.000 A 
BRANCH  21  28
ATOM     27  N   UNL     1      -3.612  11.802  16.869  0.00  0.00    +0.000 N 
ATOM     28  C   UNL     1      -2.582  10.908  16.826  0.00  0.00    +0.000 C 
ATOM     29  O   UNL     1      -2.550  10.054  15.946  0.00  0.00    +0.000 OA
ATOM     30  H   UNL     1      -4.329  11.712  16.163  0.00  0.00    +0.000 HD
ATOM     31  H   UNL     1      -3.657  12.607  17.479  0.00  0.00    +0.000 HD
ENDBRANCH  21  28
ENDBRANCH   1  25
TORSDOF 3
ENDMDL
MODEL 4
REMARK VINA RESULT:      -9.4      1.946      2.250
REMARK  Name = 
REMARK  3 active torsions:
REMARK  status: ('A' for Active; 'I' for Inactive)
REMARK    1  A    between atoms: C_2  and  C_4
REMARK    2  A    between atoms: C_8  and  C_9
REMARK    3  A    between atoms: C_19  and  C_21
REMARK                            x       y       z     vdW  Elec       q    Type
REMARK                         _______ _______ _______ _____ _____    ______ ____
ROOT
ATOM      1  C   UNL     1       1.496   8.305  19.933  0.00  0.00    +0.000 A 
ATOM      2  C   UNL     1       2.302   8.176  18.799  0.00  0.00    +0.000 A 
ATOM      3  C   UNL     1       2.906   6.926  18.451  0.00  0.00    +0.000 A 
ATOM      4  C   UNL     1       2.637   5.761  19.186  0.00  0.00    +0.000 A 
ATOM      5  C   UNL     1       1.856   5.918  20.342  0.00  0.00    +0.000 A 
ATOM      6  C   UNL     1       1.392   7.178  20.745  0.00  0.00    +0.000 A 
ATOM      7  C   UNL     1       1.539   4.789  21.272  0.00  0.00    +0.000 C 
ATOM      8  C   UNL     1       1.388   3.468  20.575  0.00  0.00    +0.000 C 
ATOM      9  C   UNL     1       2.193   3.328  19.302  0.00  0.00    +0.000 C 
ATOM     10  N   UNL     1       3.086   4.430  18.901  0.00  0.00    +0.000 N 
ATOM     11  C   UNL     1       4.293   3.960  18.354  0.00  0.00    +0.000 C 
ATOM     12  O   UNL     1       4.682   2.818  18.636  0.00  0.00    +0.000 OA
ENDROOT
BRANCH  11  13
ATOM     13  C   UNL     1       5.124   4.577  17.311  0.00  0.00    +0.000 A 
ATOM     14  C   UNL     1       4.883   4.219  15.985  0.00  0.00    +0.000 A 
ATOM     15  F   UNL     1       3.685   3.756  15.599  0.00  0.00    +0.000 F 
ATOM     16  C   UNL     1       5.905   4.232  15.030  0.00  0.00    +0.000 A 
ATOM     17  C   UNL     1       7.211   4.536  15.409  0.00  0.00    +0.000 A 
ATOM     18  C   UNL     1       7.472   4.922  16.719  0.00  0.00    +0.000 A 
ATOM     19  C   UNL     1       6.432   4.982  17.657  0.00  0.00    +0.000 A 
ATOM     20 CL   UNL     1       6.856   5.533  19.248  0.00  0.00    +0.000 Cl
ENDBRANCH  11  13
BRANCH   1  25
ATOM     21  C   UNL     1      -0.902  11.174  19.319  0.00  0.00    +0.000 A 
ATOM     22  C   UNL     1      -1.101  11.680  20.600  0.00  0.00    +0.000 A 
ATOM     23  C   UNL     1      -0.476  11.076  21.697  0.00  0.00    +0.000 A 
ATOM     24  C   UNL     1       0.373   9.968  21.527  0.00  0.00    +0.000 A 
ATOM     25  C   UNL     1       0.605   9.448  20.250  0.00  0.00    +0.000 A 
ATOM     26  C   UNL     1      -0.058  10.074  19.163  0.00  0.00    +0.000 A 
BRANCH  21  28
ATOM     27  N   UNL     1      -0.928  12.949  17.611  0.00  0.00    +0.000 N 
ATOM     28  C   UNL     1      -1.532  11.847  18.144  0.00  0.00    +0.000 C 
ATOM     29  O   UNL     1      -2.581  11.432  17.661  0.00  0.00    +0.000 OA
ATOM     30  H   UNL     1      -1.389  13.394  16.830  0.00  0.00    +0.000 HD
ATOM     31  H   UNL     1      -0.009  13.286  17.864  0.00  0.00    +0.000 HD
ENDBRANCH  21  28
ENDBRANCH   1  25
TORSDOF 3
ENDMDL
MODEL 5
REMARK VINA RESULT:      -9.3      1.982      2.253
REMARK  Name = 
REMARK  3 active torsions:
REMARK  status: ('A' for Active; 'I' for Inactive)
REMARK    1  A    between atoms: C_2  and  C_4
REMARK    2  A    between atoms: C_8  and  C_9
REMARK    3  A    between atoms: C_19  and  C_21
REMARK                            x       y       z     vdW  Elec       q    Type
REMARK                         _______ _______ _______ _____ _____    ______ ____
ROOT
ATOM      1  C   UNL     1       1.698   8.332  19.434  0.00  0.00    +0.000 A 
ATOM      2  C   UNL     1       2.789   8.179  18.575  0.00  0.00    +0.000 A 
ATOM      3  C   UNL     1       3.526   6.954  18.516  0.00  0.00    +0.000 A 
ATOM      4  C   UNL     1       3.126   5.830  19.253  0.00  0.00    +0.000 A 
ATOM      5  C   UNL     1       2.051   6.013  20.138  0.00  0.00    +0.000 A 
ATOM      6  C   UNL     1       1.433   7.262  20.287  0.00  0.00    +0.000 A 
ATOM      7  C   UNL     1       1.549   4.936  21.047  0.00  0.00    +0.000 C 
ATOM      8  C   UNL     1       1.660   3.560  20.457  0.00  0.00    +0.000 C 
ATOM      9  C   UNL     1       2.787   3.386  19.464  0.00  0.00    +0.000 C 
ATOM     10  N   UNL     1       3.701   4.517  19.220  0.00  0.00    +0.000 N 
ATOM     11  C   UNL     1       5.034   4.097  19.061  0.00  0.00    +0.000 C 
ATOM     12  O   UNL     1       5.386   3.009  19.539  0.00  0.00    +0.000 OA
ENDROOT
BRANCH  11  13
ATOM     13  C   UNL     1       6.086   4.695  18.228  0.00  0.00    +0.000 A 
ATOM     14  C   UNL     1       7.001   5.549  18.844  0.00  0.00    +0.000 A 
ATOM     15  F   UNL     1       7.254   5.461  20.158  0.00  0.00    +0.000 F 
ATOM     16  C   UNL     1       7.612   6.591  18.139  0.00  0.00    +0.000 A 
ATOM     17  C   UNL     1       7.256   6.842  16.815  0.00  0.00    +0.000 A 
ATOM     18  C   UNL     1       6.366   5.988  16.172  0.00  0.00    +0.000 A 
ATOM     19  C   UNL     1       5.813   4.897  16.858  0.00  0.00    +0.000 A 
ATOM     20 CL   UNL     1       4.761   3.862  15.944  0.00  0.00    +0.000 Cl
ENDBRANCH  11  13
BRANCH   1  25
ATOM     21  C   UNL     1      -0.658  10.992  20.748  0.00  0.00    +0.000 A 
ATOM     22  C   UNL     1      -1.235  11.486  19.582  0.00  0.00    +0.000 A 
ATOM     23  C   UNL     1      -0.846  10.979  18.337  0.00  0.00    +0.000 A 
ATOM     24  C   UNL     1       0.114   9.955  18.241  0.00  0.00    +0.000 A 
ATOM     25  C   UNL     1       0.699   9.427  19.397  0.00  0.00    +0.000 A 
ATOM     26  C   UNL     1       0.293   9.977  20.640  0.00  0.00    +0.000 A 
BRANCH  21  28
ATOM     27  N   UNL     1      -2.269  12.215  22.154  0.00  0.00    +0.000 N 
ATOM     28  C   UNL     1      -1.108  11.502  22.078  0.00  0.00    +0.000 C 
ATOM     29  O   UNL     1      -0.449  11.298  23.092  0.00  0.00    +0.000 OA
ATOM     30  H   UNL     1      -2.536  12.565  23.063  0.00  0.00    +0.000 HD
ATOM     31  H   UNL     1      -2.932  12.328  21.399  0.00  0.00    +0.000 HD
ENDBRANCH  21  28
ENDBRANCH   1  25
TORSDOF 3
ENDMDL
MODEL 6
REMARK VINA RESULT:      -9.2      2.595      3.001
REMARK  Name = 
REMARK  3 active torsions:
REMARK  status: ('A' for Active; 'I' for Inactive)
REMARK    1  A    between atoms: C_2  and  C_4
REMARK    2  A    between atoms: C_8  and  C_9
REMARK    3  A    between atoms: C_19  and  C_21
REMARK                            x       y       z     vdW  Elec       q    Type
REMARK                         _______ _______ _______ _____ _____    ______ ____
ROOT
ATOM      1  C   UNL     1       1.508   8.601  19.367  0.00  0.00    +0.000 A 
ATOM      2  C   UNL     1       2.266   8.315  18.230  0.00  0.00    +0.000 A 
ATOM      3  C   UNL     1       2.977   7.080  18.098  0.00  0.00    +0.000 A 
ATOM      4  C   UNL     1       2.865   6.071  19.067  0.00  0.00    +0.000 A 
ATOM      5  C   UNL     1       2.129   6.391  20.219  0.00  0.00    +0.000 A 
ATOM      6  C   UNL     1       1.559   7.660  20.393  0.00  0.00    +0.000 A 
ATOM      7  C   UNL     1       1.974   5.454  21.375  0.00  0.00    +0.000 C 
ATOM      8  C   UNL     1       1.925   4.010  20.969  0.00  0.00    +0.000 C 
ATOM      9  C   UNL     1       2.676   3.684  19.697  0.00  0.00    +0.000 C 
ATOM     10  N   UNL     1       3.432   4.756  19.024  0.00  0.00    +0.000 N 
ATOM     11  C   UNL     1       4.653   4.293  18.500  0.00  0.00    +0.000 C 
ATOM     12  O   UNL     1       5.169   3.273  18.977  0.00  0.00    +0.000 OA
ENDROOT
BRANCH  11  13
ATOM     13  C   UNL     1       5.365   4.755  17.300  0.00  0.00    +0.000 A 
ATOM     14  C   UNL     1       4.907   4.315  16.059  0.00  0.00    +0.000 A 
ATOM     15  F   UNL     1       3.636   3.925  15.887  0.00  0.00    +0.000 F 
ATOM     16  C   UNL     1       5.777   4.168  14.973  0.00  0.00    +0.000 A 
ATOM     17  C   UNL     1       7.143   4.391  15.137  0.00  0.00    +0.000 A 
ATOM     18  C   UNL     1       7.619   4.855  16.359  0.00  0.00    +0.000 A 
ATOM     19  C   UNL     1       6.734   5.076  17.423  0.00  0.00    +0.000 A 
ATOM     20 CL   UNL     1       7.425   5.713  18.883  0.00  0.00    +0.000 Cl
ENDBRANCH  11  13
BRANCH   1  25
ATOM     21  C   UNL     1      -0.658  11.183  21.099  0.00  0.00    +0.000 A 
ATOM     22  C   UNL     1      -1.359  11.750  20.038  0.00  0.00    +0.000 A 
ATOM     23  C   UNL     1      -1.117  11.318  18.728  0.00  0.00    +0.000 A 
ATOM     24  C   UNL     1      -0.185  10.300  18.462  0.00  0.00    +0.000 A 
ATOM     25  C   UNL     1       0.522   9.700  19.509  0.00  0.00    +0.000 A 
ATOM     26  C   UNL     1       0.264  10.173  20.822  0.00  0.00    +0.000 A 
BRANCH  21  28
ATOM     27  N   UNL     1      -1.391  12.883  22.723  0.00  0.00    +0.000 N 
ATOM     28  C   UNL     1      -0.950  11.611  22.499  0.00  0.00    +0.000 C 
ATOM     29  O   UNL     1      -0.791  10.845  23.444  0.00  0.00    +0.000 OA
ATOM     30  H   UNL     1      -1.560  13.149  23.683  0.00  0.00    +0.000 HD
ATOM     31  H   UNL     1      -1.664  13.538  22.003  0.00  0.00    +0.000 HD
ENDBRANCH  21  28
ENDBRANCH   1  25
TORSDOF 3
ENDMDL
MODEL 7
REMARK VINA RESULT:      -9.1      1.732      2.156
REMARK  Name = 
REMARK  3 active torsions:
REMARK  status: ('A' for Active; 'I' for Inactive)
REMARK    1  A    between atoms: C_2  and  C_4
REMARK    2  A    between atoms: C_8  and  C_9
REMARK    3  A    between atoms: C_19  and  C_21
REMARK                            x       y       z     vdW  Elec       q    Type
REMARK                         _______ _______ _______ _____ _____    ______ ____
ROOT
ATOM      1  C   UNL     1       1.759   8.558  18.992  0.00  0.00    +0.000 A 
ATOM      2  C   UNL     1       2.852   8.289  18.165  0.00  0.00    +0.000 A 
ATOM      3  C   UNL     1       3.561   7.048  18.245  0.00  0.00    +0.000 A 
ATOM      4  C   UNL     1       3.128   6.019  19.095  0.00  0.00    +0.000 A 
ATOM      5  C   UNL     1       2.052   6.321  19.944  0.00  0.00    +0.000 A 
ATOM      6  C   UNL     1       1.462   7.593  19.952  0.00  0.00    +0.000 A 
ATOM      7  C   UNL     1       1.517   5.360  20.958  0.00  0.00    +0.000 C 
ATOM      8  C   UNL     1       1.600   3.926  20.521  0.00  0.00    +0.000 C 
ATOM      9  C   UNL     1       2.730   3.620  19.564  0.00  0.00    +0.000 C 
ATOM     10  N   UNL     1       3.672   4.697  19.209  0.00  0.00    +0.000 N 
ATOM     11  C   UNL     1       4.996   4.232  19.109  0.00  0.00    +0.000 C 
ATOM     12  O   UNL     1       5.319   3.195  19.704  0.00  0.00    +0.000 OA
ENDROOT
BRANCH  11  13
ATOM     13  C   UNL     1       6.069   4.713  18.228  0.00  0.00    +0.000 A 
ATOM     14  C   UNL     1       7.020   5.578  18.767  0.00  0.00    +0.000 A 
ATOM     15  F   UNL     1       7.275   5.594  20.084  0.00  0.00    +0.000 F 
ATOM     16  C   UNL     1       7.670   6.531  17.975  0.00  0.00    +0.000 A 
ATOM     17  C   UNL     1       7.319   6.681  16.635  0.00  0.00    +0.000 A 
ATOM     18  C   UNL     1       6.392   5.813  16.067  0.00  0.00    +0.000 A 
ATOM     19  C   UNL     1       5.798   4.809  16.845  0.00  0.00    +0.000 A 
ATOM     20 CL   UNL     1       4.701   3.743  16.024  0.00  0.00    +0.000 Cl
ENDBRANCH  11  13
BRANCH   1  25
ATOM     21  C   UNL     1       0.140  11.935  19.567  0.00  0.00    +0.000 A 
ATOM     22  C   UNL     1      -0.967  11.886  18.725  0.00  0.00    +0.000 A 
ATOM     23  C   UNL     1      -1.193  10.757  17.928  0.00  0.00    +0.000 A 
ATOM     24  C   UNL     1      -0.325   9.652  17.977  0.00  0.00    +0.000 A 
ATOM     25  C   UNL     1       0.786   9.665  18.827  0.00  0.00    +0.000 A 
ATOM     26  C   UNL     1       0.993  10.832  19.607  0.00  0.00    +0.000 A 
BRANCH  21  28
ATOM     27  N   UNL     1      -0.061  14.347  20.022  0.00  0.00    +0.000 N 
ATOM     28  C   UNL     1       0.354  13.120  20.451  0.00  0.00    +0.000 C 
ATOM     29  O   UNL     1       0.903  13.008  21.542  0.00  0.00    +0.000 OA
ATOM     30  H   UNL     1       0.117  15.132  20.632  0.00  0.00    +0.000 HD
ATOM     31  H   UNL     1      -0.625  14.515  19.200  0.00  0.00    +0.000 HD
ENDBRANCH  21  28
ENDBRANCH   1  25
TORSDOF 3
ENDMDL
MODEL 8
REMARK VINA RESULT:      -8.9      1.790      2.139
REMARK  Name = 
REMARK  3 active torsions:
REMARK  status: ('A' for Active; 'I' for Inactive)
REMARK    1  A    between atoms: C_2  and  C_4
REMARK    2  A    between atoms: C_8  and  C_9
REMARK    3  A    between atoms: C_19  and  C_21
REMARK                            x       y       z     vdW  Elec       q    Type
REMARK                         _______ _______ _______ _____ _____    ______ ____
ROOT
ATOM      1  C   UNL     1       1.844   8.689  18.999  0.00  0.00    +0.000 A 
ATOM      2  C   UNL     1       2.902   8.353  18.152  0.00  0.00    +0.000 A 
ATOM      3  C   UNL     1       3.543   7.076  18.229  0.00  0.00    +0.000 A 
ATOM      4  C   UNL     1       3.073   6.079  19.097  0.00  0.00    +0.000 A 
ATOM      5  C   UNL     1       2.033   6.448  19.966  0.00  0.00    +0.000 A 
ATOM      6  C   UNL     1       1.515   7.750  19.974  0.00  0.00    +0.000 A 
ATOM      7  C   UNL     1       1.468   5.525  21.001  0.00  0.00    +0.000 C 
ATOM      8  C   UNL     1       1.463   4.086  20.575  0.00  0.00    +0.000 C 
ATOM      9  C   UNL     1       2.554   3.710  19.597  0.00  0.00    +0.000 C 
ATOM     10  N   UNL     1       3.545   4.731  19.212  0.00  0.00    +0.000 N 
ATOM     11  C   UNL     1       4.839   4.192  19.089  0.00  0.00    +0.000 C 
ATOM     12  O   UNL     1       5.117   3.143  19.687  0.00  0.00    +0.000 OA
ENDROOT
BRANCH  11  13
ATOM     13  C   UNL     1       5.917   4.606  18.180  0.00  0.00    +0.000 A 
ATOM     14  C   UNL     1       6.895   5.467  18.676  0.00  0.00    +0.000 A 
ATOM     15  F   UNL     1       7.161   5.531  19.989  0.00  0.00    +0.000 F 
ATOM     16  C   UNL     1       7.565   6.366  17.840  0.00  0.00    +0.000 A 
ATOM     17  C   UNL     1       7.207   6.469  16.496  0.00  0.00    +0.000 A 
ATOM     18  C   UNL     1       6.253   5.603  15.973  0.00  0.00    +0.000 A 
ATOM     19  C   UNL     1       5.638   4.649  16.797  0.00  0.00    +0.000 A 
ATOM     20 CL   UNL     1       4.506   3.580  16.030  0.00  0.00    +0.000 Cl
ENDBRANCH  11  13
BRANCH   1  25
ATOM     21  C   UNL     1       0.783  12.295  18.526  0.00  0.00    +0.000 A 
ATOM     22  C   UNL     1      -0.606  12.211  18.581  0.00  0.00    +0.000 A 
ATOM     23  C   UNL     1      -1.227  10.967  18.747  0.00  0.00    +0.000 A 
ATOM     24  C   UNL     1      -0.467   9.791  18.879  0.00  0.00    +0.000 A 
ATOM     25  C   UNL     1       0.930   9.847  18.844  0.00  0.00    +0.000 A 
ATOM     26  C   UNL     1       1.525  11.122  18.658  0.00  0.00    +0.000 A 
BRANCH  21  28
ATOM     27  N   UNL     1       2.704  13.691  17.871  0.00  0.00    +0.000 N 
ATOM     28  C   UNL     1       1.445  13.628  18.396  0.00  0.00    +0.000 C 
ATOM     29  O   UNL     1       0.882  14.655  18.759  0.00  0.00    +0.000 OA
ATOM     30  H   UNL     1       3.133  14.604  17.816  0.00  0.00    +0.000 HD
ATOM     31  H   UNL     1       3.192  12.919  17.438  0.00  0.00    +0.000 HD
ENDBRANCH  21  28
ENDBRANCH   1  25
TORSDOF 3
ENDMDL
MODEL 9
REMARK VINA RESULT:      -8.9      2.451      2.902
REMARK  Name = 
REMARK  3 active torsions:
REMARK  status: ('A' for Active; 'I' for Inactive)
REMARK    1  A    between atoms: C_2  and  C_4
REMARK    2  A    between atoms: C_8  and  C_9
REMARK    3  A    between atoms: C_19  and  C_21
REMARK                            x       y       z     vdW  Elec       q    Type
REMARK                         _______ _______ _______ _____ _____    ______ ____
ROOT
ATOM      1  C   UNL     1       1.589   9.129  18.860  0.00  0.00    +0.000 A 
ATOM      2  C   UNL     1       2.443   8.692  17.845  0.00  0.00    +0.000 A 
ATOM      3  C   UNL     1       3.040   7.391  17.880  0.00  0.00    +0.000 A 
ATOM      4  C   UNL     1       2.717   6.472  18.889  0.00  0.00    +0.000 A 
ATOM      5  C   UNL     1       1.887   6.942  19.920  0.00  0.00    +0.000 A 
ATOM      6  C   UNL     1       1.428   8.266  19.942  0.00  0.00    +0.000 A 
ATOM      7  C   UNL     1       1.507   6.111  21.105  0.00  0.00    +0.000 C 
ATOM      8  C   UNL     1       1.364   4.651  20.788  0.00  0.00    +0.000 C 
ATOM      9  C   UNL     1       2.222   4.165  19.642  0.00  0.00    +0.000 C 
ATOM     10  N   UNL     1       3.153   5.111  19.000  0.00  0.00    +0.000 N 
ATOM     11  C   UNL     1       4.376   4.503  18.661  0.00  0.00    +0.000 C 
ATOM     12  O   UNL     1       4.730   3.479  19.261  0.00  0.00    +0.000 OA
ENDROOT
BRANCH  11  13
ATOM     13  C   UNL     1       5.264   4.809  17.531  0.00  0.00    +0.000 A 
ATOM     14  C   UNL     1       4.914   4.320  16.273  0.00  0.00    +0.000 A 
ATOM     15  F   UNL     1       3.639   4.034  15.971  0.00  0.00    +0.000 F 
ATOM     16  C   UNL     1       5.886   4.015  15.314  0.00  0.00    +0.000 A 
ATOM     17  C   UNL     1       7.238   4.125  15.631  0.00  0.00    +0.000 A 
ATOM     18  C   UNL     1       7.612   4.635  16.870  0.00  0.00    +0.000 A 
ATOM     19  C   UNL     1       6.635   5.013  17.802  0.00  0.00    +0.000 A 
ATOM     20 CL   UNL     1       7.210   5.691  19.293  0.00  0.00    +0.000 Cl
ENDBRANCH  11  13
BRANCH   1  25
ATOM     21  C   UNL     1       0.621  12.789  18.704  0.00  0.00    +0.000 A 
ATOM     22  C   UNL     1      -0.768  12.736  18.760  0.00  0.00    +0.000 A 
ATOM     23  C   UNL     1      -1.421  11.499  18.821  0.00  0.00    +0.000 A 
ATOM     24  C   UNL     1      -0.692  10.297  18.847  0.00  0.00    +0.000 A 
ATOM     25  C   UNL     1       0.706  10.319  18.810  0.00  0.00    +0.000 A 
ATOM     26  C   UNL     1       1.333  11.589  18.731  0.00  0.00    +0.000 A 
BRANCH  21  28
ATOM     27  N   UNL     1       0.605  15.237  18.973  0.00  0.00    +0.000 N 
ATOM     28  C   UNL     1       1.318  14.110  18.686  0.00  0.00    +0.000 C 
ATOM     29  O   UNL     1       2.510  14.195  18.408  0.00  0.00    +0.000 OA
ATOM     30  H   UNL     1       1.099  16.117  18.932  0.00  0.00    +0.000 HD
ATOM     31  H   UNL     1      -0.342  15.250  19.328  0.00  0.00    +0.000 HD
ENDBRANCH  21  28
ENDBRANCH   1  25
TORSDOF 3
ENDMDL
