MODEL 1
REMARK VINA RESULT:      -6.6      0.000      0.000
REMARK  Name = 
REMARK  7 active torsions:
REMARK  status: ('A' for Active; 'I' for Inactive)
REMARK    1  A    between atoms: C_1  and  C_2
REMARK    2  A    between atoms: C_5  and  C_6
REMARK    3  A    between atoms: C_6  and  N_7
REMARK    4  A    between atoms: N_7  and  C_8
REMARK    5  A    between atoms: N_11  and  C_12
REMARK    6  A    between atoms: N_15  and  C_16
REMARK    7  A    between atoms: C_16  and  C_17
REMARK                            x       y       z     vdW  Elec       q    Type
REMARK                         _______ _______ _______ _____ _____    ______ ____
ROOT
ATOM      1  N   UNL     1       1.093   9.344  20.978  0.00  0.00    +0.000 N 
ATOM      2  C   UNL     1       0.648   9.276  22.363  0.00  0.00    +0.000 C 
ATOM      3  C   UNL     1       1.524   8.251  20.221  0.00  0.00    +0.000 C 
ATOM      4  O   UNL     1       1.870   8.359  19.048  0.00  0.00    +0.000 OA
ATOM      5  N   UNL     1       1.551   7.068  20.927  0.00  0.00    +0.000 N 
ATOM      6  H   UNL     1       1.211   7.061  21.872  0.00  0.00    +0.000 HD
ENDROOT
BRANCH   5   7
ATOM      7  C   UNL     1       1.976   5.842  20.454  0.00  0.00    +0.000 A 
ATOM      8  C   UNL     1       1.397   4.559  20.409  0.00  0.00    +0.000 A 
ATOM      9  N   UNL     1       2.220   3.647  19.857  0.00  0.00    +0.000 NA
ATOM     10  N   UNL     1       3.333   4.356  19.580  0.00  0.00    +0.000 N 
ATOM     11  C   UNL     1       3.209   5.680  19.872  0.00  0.00    +0.000 A 
BRANCH  10  12
ATOM     12  C   UNL     1       4.507   3.715  19.014  0.00  0.00    +0.000 C 
BRANCH  12  13
ATOM     13  C   UNL     1       5.181   4.527  17.905  0.00  0.00    +0.000 C 
ATOM     14  C   UNL     1       5.084   3.933  16.508  0.00  0.00    +0.000 C 
ATOM     15  C   UNL     1       6.363   4.380  15.848  0.00  0.00    +0.000 C 
ATOM     16  C   UNL     1       7.336   4.501  16.999  0.00  0.00    +0.000 C 
ATOM     17  O   UNL     1       6.576   4.747  18.189  0.00  0.00    +0.000 OA
ENDBRANCH  12  13
ENDBRANCH  10  12
ENDBRANCH   5   7
BRANCH   1  18
ATOM     18  C   UNL     1       0.997  10.648  20.318  0.00  0.00    +0.000 C 
BRANCH  18  23
ATOM     19  C   UNL     1      -3.432  12.940  20.359  0.00  0.00    +0.000 C 
ATOM     20  C   UNL     1      -2.386  12.031  19.824  0.00  0.00    +0.000 A 
ATOM     21  C   UNL     1      -2.431  11.368  18.613  0.00  0.00    +0.000 A 
ATOM     22  S   UNL     1      -1.008  10.453  18.385  0.00  0.00    +0.000 S 
ATOM     23  C   UNL     1      -0.414  11.003  19.908  0.00  0.00    +0.000 A 
ATOM     24  N   UNL     1      -1.226  11.814  20.563  0.00  0.00    +0.000 NA
ENDBRANCH  18  23
ENDBRANCH   1  18
TORSDOF 5
ENDMDL
MODEL 2
REMARK VINA RESULT:      -6.5      2.264      3.543
REMARK  Name = 
REMARK  7 active torsions:
REMARK  status: ('A' for Active; 'I' for Inactive)
REMARK    1  A    between atoms: C_1  and  C_2
REMARK    2  A    between atoms: C_5  and  C_6
REMARK    3  A    between atoms: C_6  and  N_7
REMARK    4  A    between atoms: N_7  and  C_8
REMARK    5  A    between atoms: N_11  and  C_12
REMARK    6  A    between atoms: N_15  and  C_16
REMARK    7  A    between atoms: C_16  and  C_17
REMARK                            x       y       z     vdW  Elec       q    Type
REMARK                         _______ _______ _______ _____ _____    ______ ____
ROOT
ATOM      1  N   UNL     1       1.627   9.588  18.910  0.00  0.00    +0.000 N 
ATOM      2  C   UNL     1       2.081  10.412  17.798  0.00  0.00    +0.000 C 
ATOM      3  C   UNL     1       1.982   8.252  19.114  0.00  0.00    +0.000 C 
ATOM      4  O   UNL     1       1.587   7.607  20.082  0.00  0.00    +0.000 OA
ATOM      5  N   UNL     1       2.780   7.736  18.117  0.00  0.00    +0.000 N 
ATOM      6  H   UNL     1       3.091   8.345  17.383  0.00  0.00    +0.000 HD
ENDROOT
BRANCH   5   7
ATOM      7  C   UNL     1       3.243   6.437  18.029  0.00  0.00    +0.000 A 
ATOM      8  C   UNL     1       4.523   5.864  17.894  0.00  0.00    +0.000 A 
ATOM      9  N   UNL     1       4.475   4.520  17.830  0.00  0.00    +0.000 NA
ATOM     10  N   UNL     1       3.156   4.249  17.897  0.00  0.00    +0.000 N 
ATOM     11  C   UNL     1       2.390   5.362  18.070  0.00  0.00    +0.000 A 
BRANCH  10  12
ATOM     12  C   UNL     1       2.666   2.885  17.803  0.00  0.00    +0.000 C 
BRANCH  12  13
ATOM     13  C   UNL     1       2.264   2.278  19.150  0.00  0.00    +0.000 C 
ATOM     14  C   UNL     1       0.989   2.836  19.764  0.00  0.00    +0.000 C 
ATOM     15  C   UNL     1       1.241   2.734  21.246  0.00  0.00    +0.000 C 
ATOM     16  C   UNL     1       2.743   2.858  21.363  0.00  0.00    +0.000 C 
ATOM     17  O   UNL     1       3.315   2.419  20.125  0.00  0.00    +0.000 OA
ENDBRANCH  12  13
ENDBRANCH  10  12
ENDBRANCH   5   7
BRANCH   1  18
ATOM     18  C   UNL     1       0.803  10.248  19.926  0.00  0.00    +0.000 C 
BRANCH  18  23
ATOM     19  C   UNL     1      -3.457  10.281  17.335  0.00  0.00    +0.000 C 
ATOM     20  C   UNL     1      -2.467  10.798  18.314  0.00  0.00    +0.000 A 
ATOM     21  C   UNL     1      -2.647  11.882  19.151  0.00  0.00    +0.000 A 
ATOM     22  S   UNL     1      -1.267  12.109  20.131  0.00  0.00    +0.000 S 
ATOM     23  C   UNL     1      -0.519  10.744  19.389  0.00  0.00    +0.000 A 
ATOM     24  N   UNL     1      -1.242  10.151  18.454  0.00  0.00    +0.000 NA
ENDBRANCH  18  23
ENDBRANCH   1  18
TORSDOF 5
ENDMDL
MODEL 3
REMARK VINA RESULT:      -6.5      2.799      3.953
REMARK  Name = 
REMARK  7 active torsions:
REMARK  status: ('A' for Active; 'I' for Inactive)
REMARK    1  A    between atoms: C_1  and  C_2
REMARK    2  A    between atoms: C_5  and  C_6
REMARK    3  A    between atoms: C_6  and  N_7
REMARK    4  A    between atoms: N_7  and  C_8
REMARK    5  A    between atoms: N_11  and  C_12
REMARK    6  A    between atoms: N_15  and  C_16
REMARK    7  A    between atoms: C_16  and  C_17
REMARK                            x       y       z     vdW  Elec       q    Type
REMARK                         _______ _______ _______ _____ _____    ______ ____
ROOT
ATOM      1  N   UNL     1       0.976   9.838  19.314  0.00  0.00    +0.000 N 
ATOM      2  C   UNL     1       0.588   9.599  20.697  0.00  0.00    +0.000 C 
ATOM      3  C   UNL     1       1.756   8.973  18.541  0.00  0.00    +0.000 C 
ATOM      4  O   UNL     1       2.039   9.213  17.370  0.00  0.00    +0.000 OA
ATOM      5  N   UNL     1       2.193   7.863  19.228  0.00  0.00    +0.000 N 
ATOM      6  H   UNL     1       1.881   7.724  20.172  0.00  0.00    +0.000 HD
ENDROOT
BRANCH   5   7
ATOM      7  C   UNL     1       3.015   6.867  18.737  0.00  0.00    +0.000 A 
ATOM      8  C   UNL     1       3.787   6.728  17.566  0.00  0.00    +0.000 A 
ATOM      9  N   UNL     1       4.423   5.542  17.514  0.00  0.00    +0.000 NA
ATOM     10  N   UNL     1       4.027   4.922  18.644  0.00  0.00    +0.000 N 
ATOM     11  C   UNL     1       3.229   5.700  19.427  0.00  0.00    +0.000 A 
BRANCH  10  12
ATOM     12  C   UNL     1       4.456   3.568  18.944  0.00  0.00    +0.000 C 
BRANCH  12  13
ATOM     13  C   UNL     1       3.305   2.564  19.053  0.00  0.00    +0.000 C 
ATOM     14  C   UNL     1       2.189   2.735  18.034  0.00  0.00    +0.000 C 
ATOM     15  C   UNL     1       0.963   2.272  18.776  0.00  0.00    +0.000 C 
ATOM     16  C   UNL     1       1.281   2.585  20.221  0.00  0.00    +0.000 C 
ATOM     17  O   UNL     1       2.706   2.590  20.363  0.00  0.00    +0.000 OA
ENDBRANCH  12  13
ENDBRANCH  10  12
ENDBRANCH   5   7
BRANCH   1  18
ATOM     18  C   UNL     1       0.431  11.038  18.674  0.00  0.00    +0.000 C 
BRANCH  18  23
ATOM     19  C   UNL     1       4.034  14.454  18.203  0.00  0.00    +0.000 C 
ATOM     20  C   UNL     1       2.782  13.878  18.757  0.00  0.00    +0.000 A 
ATOM     21  C   UNL     1       1.916  14.510  19.629  0.00  0.00    +0.000 A 
ATOM     22  S   UNL     1       0.591  13.496  19.987  0.00  0.00    +0.000 S 
ATOM     23  C   UNL     1       1.244  12.281  18.952  0.00  0.00    +0.000 A 
ATOM     24  N   UNL     1       2.391  12.597  18.376  0.00  0.00    +0.000 NA
ENDBRANCH  18  23
ENDBRANCH   1  18
TORSDOF 5
ENDMDL
MODEL 4
REMARK VINA RESULT:      -6.4      1.444      1.832
REMARK  Name = 
REMARK  7 active torsions:
REMARK  status: ('A' for Active; 'I' for Inactive)
REMARK    1  A    between atoms: C_1  and  C_2
REMARK    2  A    between atoms: C_5  and  C_6
REMARK    3  A    between atoms: C_6  and  N_7
REMARK    4  A    between atoms: N_7  and  C_8
REMARK    5  A    between atoms: N_11  and  C_12
REMARK    6  A    between atoms: N_15  and  C_16
REMARK    7  A    between atoms: C_16  and  C_17
REMARK                            x       y       z     vdW  Elec       q    Type
REMARK                         _______ _______ _______ _____ _____    ______ ____
ROOT
ATOM      1  N   UNL     1       1.301   9.614  19.834  0.00  0.00    +0.000 N 
ATOM      2  C   UNL     1       0.941   9.626  21.245  0.00  0.00    +0.000 C 
ATOM      3  C   UNL     1       1.795   8.505  19.142  0.00  0.00    +0.000 C 
ATOM      4  O   UNL     1       2.064   8.543  17.944  0.00  0.00    +0.000 OA
ATOM      5  N   UNL     1       1.975   7.395  19.938  0.00  0.00    +0.000 N 
ATOM      6  H   UNL     1       1.690   7.438  20.899  0.00  0.00    +0.000 HD
ENDROOT
BRANCH   5   7
ATOM      7  C   UNL     1       2.492   6.178  19.540  0.00  0.00    +0.000 A 
ATOM      8  C   UNL     1       1.930   4.905  19.317  0.00  0.00    +0.000 A 
ATOM      9  N   UNL     1       2.854   3.998  18.947  0.00  0.00    +0.000 NA
ATOM     10  N   UNL     1       4.006   4.698  18.965  0.00  0.00    +0.000 N 
ATOM     11  C   UNL     1       3.826   6.015  19.261  0.00  0.00    +0.000 A 
BRANCH  10  12
ATOM     12  C   UNL     1       5.276   4.057  18.671  0.00  0.00    +0.000 C 
BRANCH  12  13
ATOM     13  C   UNL     1       5.646   4.067  17.185  0.00  0.00    +0.000 C 
ATOM     14  C   UNL     1       7.054   4.545  16.866  0.00  0.00    +0.000 C 
ATOM     15  C   UNL     1       6.904   5.197  15.516  0.00  0.00    +0.000 C 
ATOM     16  C   UNL     1       5.476   5.693  15.515  0.00  0.00    +0.000 C 
ATOM     17  O   UNL     1       4.729   4.872  16.421  0.00  0.00    +0.000 OA
ENDBRANCH  12  13
ENDBRANCH  10  12
ENDBRANCH   5   7
BRANCH   1  18
ATOM     18  C   UNL     1       1.042  10.843  19.078  0.00  0.00    +0.000 C 
BRANCH  18  23
ATOM     19  C   UNL     1      -3.420   9.769  17.128  0.00  0.00    +0.000 C 
ATOM     20  C   UNL     1      -2.445  10.570  17.912  0.00  0.00    +0.000 A 
ATOM     21  C   UNL     1      -2.741  11.680  18.678  0.00  0.00    +0.000 A 
ATOM     22  S   UNL     1      -1.328  12.275  19.429  0.00  0.00    +0.000 S 
ATOM     23  C   UNL     1      -0.411  11.011  18.698  0.00  0.00    +0.000 A 
ATOM     24  N   UNL     1      -1.105  10.193  17.926  0.00  0.00    +0.000 NA
ENDBRANCH  18  23
ENDBRANCH   1  18
TORSDOF 5
ENDMDL
MODEL 5
REMARK VINA RESULT:      -6.4      2.034      2.502
REMARK  Name = 
REMARK  7 active torsions:
REMARK  status: ('A' for Active; 'I' for Inactive)
REMARK    1  A    between atoms: C_1  and  C_2
REMARK    2  A    between atoms: C_5  and  C_6
REMARK    3  A    between atoms: C_6  and  N_7
REMARK    4  A    between atoms: N_7  and  C_8
REMARK    5  A    between atoms: N_11  and  C_12
REMARK    6  A    between atoms: N_15  and  C_16
REMARK    7  A    between atoms: C_16  and  C_17
REMARK                            x       y       z     vdW  Elec       q    Type
REMARK                         _______ _______ _______ _____ _____    ______ ____
ROOT
ATOM      1  N   UNL     1       1.461   9.308  19.308  0.00  0.00    +0.000 N 
ATOM      2  C   UNL     1       1.088   8.884  20.651  0.00  0.00    +0.000 C 
ATOM      3  C   UNL     1       2.065   8.490  18.349  0.00  0.00    +0.000 C 
ATOM      4  O   UNL     1       2.341   8.893  17.222  0.00  0.00    +0.000 OA
ATOM      5  N   UNL     1       2.343   7.220  18.804  0.00  0.00    +0.000 N 
ATOM      6  H   UNL     1       2.046   6.962  19.727  0.00  0.00    +0.000 HD
ENDROOT
BRANCH   5   7
ATOM      7  C   UNL     1       2.978   6.218  18.096  0.00  0.00    +0.000 A 
ATOM      8  C   UNL     1       2.708   4.851  17.885  0.00  0.00    +0.000 A 
ATOM      9  N   UNL     1       3.645   4.261  17.119  0.00  0.00    +0.000 NA
ATOM     10  N   UNL     1       4.522   5.254  16.872  0.00  0.00    +0.000 N 
ATOM     11  C   UNL     1       4.133   6.451  17.393  0.00  0.00    +0.000 A 
BRANCH  10  12
ATOM     12  C   UNL     1       5.732   5.011  16.107  0.00  0.00    +0.000 C 
BRANCH  12  13
ATOM     13  C   UNL     1       7.022   5.306  16.879  0.00  0.00    +0.000 C 
ATOM     14  C   UNL     1       6.958   5.058  18.378  0.00  0.00    +0.000 C 
ATOM     15  C   UNL     1       7.902   6.087  18.943  0.00  0.00    +0.000 C 
ATOM     16  C   UNL     1       7.835   7.220  17.945  0.00  0.00    +0.000 C 
ATOM     17  O   UNL     1       7.454   6.665  16.680  0.00  0.00    +0.000 OA
ENDBRANCH  12  13
ENDBRANCH  10  12
ENDBRANCH   5   7
BRANCH   1  18
ATOM     18  C   UNL     1       1.093  10.672  18.922  0.00  0.00    +0.000 C 
BRANCH  18  23
ATOM     19  C   UNL     1      -0.941  13.211  22.702  0.00  0.00    +0.000 C 
ATOM     20  C   UNL     1      -0.949  12.444  21.429  0.00  0.00    +0.000 A 
ATOM     21  C   UNL     1      -2.046  12.237  20.616  0.00  0.00    +0.000 A 
ATOM     22  S   UNL     1      -1.602  11.327  19.243  0.00  0.00    +0.000 S 
ATOM     23  C   UNL     1       0.026  11.273  19.808  0.00  0.00    +0.000 A 
ATOM     24  N   UNL     1       0.236  11.885  20.961  0.00  0.00    +0.000 NA
ENDBRANCH  18  23
ENDBRANCH   1  18
TORSDOF 5
ENDMDL
MODEL 6
REMARK VINA RESULT:      -6.3      2.201      3.425
REMARK  Name = 
REMARK  7 active torsions:
REMARK  status: ('A' for Active; 'I' for Inactive)
REMARK    1  A    between atoms: C_1  and  C_2
REMARK    2  A    between atoms: C_5  and  C_6
REMARK    3  A    between atoms: C_6  and  N_7
REMARK    4  A    between atoms: N_7  and  C_8
REMARK    5  A    between atoms: N_11  and  C_12
REMARK    6  A    between atoms: N_15  and  C_16
REMARK    7  A    between atoms: C_16  and  C_17
REMARK                            x       y       z     vdW  Elec       q    Type
REMARK                         _______ _______ _______ _____ _____    ______ ____
ROOT
ATOM      1  N   UNL     1       1.556   9.292  18.965  0.00  0.00    +0.000 N 
ATOM      2  C   UNL     1       1.928  10.228  17.913  0.00  0.00    +0.000 C 
ATOM      3  C   UNL     1       2.101   8.015  19.131  0.00  0.00    +0.000 C 
ATOM      4  O   UNL     1       1.766   7.272  20.049  0.00  0.00    +0.000 OA
ATOM      5  N   UNL     1       3.011   7.674  18.155  0.00  0.00    +0.000 N 
ATOM      6  H   UNL     1       3.258   8.359  17.463  0.00  0.00    +0.000 HD
ENDROOT
BRANCH   5   7
ATOM      7  C   UNL     1       3.669   6.466  18.036  0.00  0.00    +0.000 A 
ATOM      8  C   UNL     1       4.456   5.878  17.025  0.00  0.00    +0.000 A 
ATOM      9  N   UNL     1       4.879   4.645  17.362  0.00  0.00    +0.000 NA
ATOM     10  N   UNL     1       4.331   4.445  18.578  0.00  0.00    +0.000 N 
ATOM     11  C   UNL     1       3.646   5.528  19.039  0.00  0.00    +0.000 A 
BRANCH  10  12
ATOM     12  C   UNL     1       4.505   3.186  19.279  0.00  0.00    +0.000 C 
BRANCH  12  13
ATOM     13  C   UNL     1       3.211   2.380  19.435  0.00  0.00    +0.000 C 
ATOM     14  C   UNL     1       2.291   2.381  18.224  0.00  0.00    +0.000 C 
ATOM     15  C   UNL     1       0.916   2.276  18.830  0.00  0.00    +0.000 C 
ATOM     16  C   UNL     1       1.068   2.941  20.179  0.00  0.00    +0.000 C 
ATOM     17  O   UNL     1       2.444   2.833  20.566  0.00  0.00    +0.000 OA
ENDBRANCH  12  13
ENDBRANCH  10  12
ENDBRANCH   5   7
BRANCH   1  18
ATOM     18  C   UNL     1       0.598   9.771  19.965  0.00  0.00    +0.000 C 
BRANCH  18  23
ATOM     19  C   UNL     1      -3.563  10.414  17.292  0.00  0.00    +0.000 C 
ATOM     20  C   UNL     1      -2.491  10.811  18.240  0.00  0.00    +0.000 A 
ATOM     21  C   UNL     1      -2.450  11.983  18.970  0.00  0.00    +0.000 A 
ATOM     22  S   UNL     1      -1.055  12.020  19.954  0.00  0.00    +0.000 S 
ATOM     23  C   UNL     1      -0.596  10.469  19.356  0.00  0.00    +0.000 A 
ATOM     24  N   UNL     1      -1.422   9.948  18.465  0.00  0.00    +0.000 NA
ENDBRANCH  18  23
ENDBRANCH   1  18
TORSDOF 5
ENDMDL
MODEL 7
REMARK VINA RESULT:      -6.3      2.543      3.287
REMARK  Name = 
REMARK  7 active torsions:
REMARK  status: ('A' for Active; 'I' for Inactive)
REMARK    1  A    between atoms: C_1  and  C_2
REMARK    2  A    between atoms: C_5  and  C_6
REMARK    3  A    between atoms: C_6  and  N_7
REMARK    4  A    between atoms: N_7  and  C_8
REMARK    5  A    between atoms: N_11  and  C_12
REMARK    6  A    between atoms: N_15  and  C_16
REMARK    7  A    between atoms: C_16  and  C_17
REMARK                            x       y       z     vdW  Elec       q    Type
REMARK                         _______ _______ _______ _____ _____    ______ ____
ROOT
ATOM      1  N   UNL     1       1.057   9.642  19.631  0.00  0.00    +0.000 N 
ATOM      2  C   UNL     1       0.803   9.472  21.056  0.00  0.00    +0.000 C 
ATOM      3  C   UNL     1       1.645   8.682  18.803  0.00  0.00    +0.000 C 
ATOM      4  O   UNL     1       1.819   8.868  17.602  0.00  0.00    +0.000 OA
ATOM      5  N   UNL     1       2.032   7.541  19.471  0.00  0.00    +0.000 N 
ATOM      6  H   UNL     1       1.815   7.455  20.447  0.00  0.00    +0.000 HD
ENDROOT
BRANCH   5   7
ATOM      7  C   UNL     1       2.679   6.451  18.921  0.00  0.00    +0.000 A 
ATOM      8  C   UNL     1       2.312   5.473  17.976  0.00  0.00    +0.000 A 
ATOM      9  N   UNL     1       3.294   4.576  17.765  0.00  0.00    +0.000 NA
ATOM     10  N   UNL     1       4.271   4.975  18.604  0.00  0.00    +0.000 N 
ATOM     11  C   UNL     1       3.965   6.121  19.272  0.00  0.00    +0.000 A 
BRANCH  10  12
ATOM     12  C   UNL     1       5.508   4.225  18.723  0.00  0.00    +0.000 C 
BRANCH  12  13
ATOM     13  C   UNL     1       6.738   4.971  18.198  0.00  0.00    +0.000 C 
ATOM     14  C   UNL     1       7.508   5.773  19.236  0.00  0.00    +0.000 C 
ATOM     15  C   UNL     1       8.059   6.931  18.445  0.00  0.00    +0.000 C 
ATOM     16  C   UNL     1       7.046   7.123  17.339  0.00  0.00    +0.000 C 
ATOM     17  O   UNL     1       6.391   5.867  17.125  0.00  0.00    +0.000 OA
ENDBRANCH  12  13
ENDBRANCH  10  12
ENDBRANCH   5   7
BRANCH   1  18
ATOM     18  C   UNL     1       0.579  10.885  19.020  0.00  0.00    +0.000 C 
BRANCH  18  23
ATOM     19  C   UNL     1       4.020  14.384  18.135  0.00  0.00    +0.000 C 
ATOM     20  C   UNL     1       2.972  13.689  18.925  0.00  0.00    +0.000 A 
ATOM     21  C   UNL     1       2.444  14.121  20.126  0.00  0.00    +0.000 A 
ATOM     22  S   UNL     1       1.246  13.034  20.672  0.00  0.00    +0.000 S 
ATOM     23  C   UNL     1       1.495  12.060  19.271  0.00  0.00    +0.000 A 
ATOM     24  N   UNL     1       2.424  12.504  18.441  0.00  0.00    +0.000 NA
ENDBRANCH  18  23
ENDBRANCH   1  18
TORSDOF 5
ENDMDL
MODEL 8
REMARK VINA RESULT:      -6.3      2.225      3.472
REMARK  Name = 
REMARK  7 active torsions:
REMARK  status: ('A' for Active; 'I' for Inactive)
REMARK    1  A    between atoms: C_1  and  C_2
REMARK    2  A    between atoms: C_5  and  C_6
REMARK    3  A    between atoms: C_6  and  N_7
REMARK    4  A    between atoms: N_7  and  C_8
REMARK    5  A    between atoms: N_11  and  C_12
REMARK    6  A    between atoms: N_15  and  C_16
REMARK    7  A    between atoms: C_16  and  C_17
REMARK                            x       y       z     vdW  Elec       q    Type
REMARK                         _______ _______ _______ _____ _____    ______ ____
ROOT
ATOM      1  N   UNL     1       1.724   9.059  18.900  0.00  0.00    +0.000 N 
ATOM      2  C   UNL     1       1.996   9.908  17.747  0.00  0.00    +0.000 C 
ATOM      3  C   UNL     1       2.241   7.774  19.088  0.00  0.00    +0.000 C 
ATOM      4  O   UNL     1       1.996   7.108  20.090  0.00  0.00    +0.000 OA
ATOM      5  N   UNL     1       3.012   7.331  18.037  0.00  0.00    +0.000 N 
ATOM      6  H   UNL     1       3.196   7.958  17.274  0.00  0.00    +0.000 HD
ENDROOT
BRANCH   5   7
ATOM      7  C   UNL     1       3.609   6.090  17.925  0.00  0.00    +0.000 A 
ATOM      8  C   UNL     1       4.929   5.660  17.685  0.00  0.00    +0.000 A 
ATOM      9  N   UNL     1       5.027   4.318  17.643  0.00  0.00    +0.000 NA
ATOM     10  N   UNL     1       3.757   3.904  17.830  0.00  0.00    +0.000 N 
ATOM     11  C   UNL     1       2.889   4.928  18.055  0.00  0.00    +0.000 A 
BRANCH  10  12
ATOM     12  C   UNL     1       3.418   2.492  17.798  0.00  0.00    +0.000 C 
BRANCH  12  13
ATOM     13  C   UNL     1       2.807   1.972  19.103  0.00  0.00    +0.000 C 
ATOM     14  C   UNL     1       1.370   2.395  19.364  0.00  0.00    +0.000 C 
ATOM     15  C   UNL     1       1.299   2.483  20.867  0.00  0.00    +0.000 C 
ATOM     16  C   UNL     1       2.712   2.840  21.270  0.00  0.00    +0.000 C 
ATOM     17  O   UNL     1       3.592   2.367  20.244  0.00  0.00    +0.000 OA
ENDBRANCH  12  13
ENDBRANCH  10  12
ENDBRANCH   5   7
BRANCH   1  18
ATOM     18  C   UNL     1       0.913   9.643  19.971  0.00  0.00    +0.000 C 
BRANCH  18  23
ATOM     19  C   UNL     1      -0.363  14.347  18.915  0.00  0.00    +0.000 C 
ATOM     20  C   UNL     1      -0.545  12.873  18.952  0.00  0.00    +0.000 A 
ATOM     21  C   UNL     1      -1.573  12.169  18.355  0.00  0.00    +0.000 A 
ATOM     22  S   UNL     1      -1.379  10.495  18.624  0.00  0.00    +0.000 S 
ATOM     23  C   UNL     1       0.068  10.808  19.509  0.00  0.00    +0.000 A 
ATOM     24  N   UNL     1       0.392  12.085  19.614  0.00  0.00    +0.000 NA
ENDBRANCH  18  23
ENDBRANCH   1  18
TORSDOF 5
ENDMDL
MODEL 9
REMARK VINA RESULT:      -6.2      1.436      1.870
REMARK  Name = 
REMARK  7 active torsions:
REMARK  status: ('A' for Active; 'I' for Inactive)
REMARK    1  A    between atoms: C_1  and  C_2
REMARK    2  A    between atoms: C_5  and  C_6
REMARK    3  A    between atoms: C_6  and  N_7
REMARK    4  A    between atoms: N_7  and  C_8
REMARK    5  A    between atoms: N_11  and  C_12
REMARK    6  A    between atoms: N_15  and  C_16
REMARK    7  A    between atoms: C_16  and  C_17
REMARK                            x       y       z     vdW  Elec       q    Type
REMARK                         _______ _______ _______ _____ _____    ______ ____
ROOT
ATOM      1  N   UNL     1       0.749   8.899  20.877  0.00  0.00    +0.000 N 
ATOM      2  C   UNL     1      -0.228   8.693  21.938  0.00  0.00    +0.000 C 
ATOM      3  C   UNL     1       1.517   7.890  20.288  0.00  0.00    +0.000 C 
ATOM      4  O   UNL     1       2.312   8.115  19.380  0.00  0.00    +0.000 OA
ATOM      5  N   UNL     1       1.314   6.647  20.847  0.00  0.00    +0.000 N 
ATOM      6  H   UNL     1       0.614   6.545  21.558  0.00  0.00    +0.000 HD
ENDROOT
BRANCH   5   7
ATOM      7  C   UNL     1       1.966   5.480  20.503  0.00  0.00    +0.000 A 
ATOM      8  C   UNL     1       2.398   4.353  21.229  0.00  0.00    +0.000 A 
ATOM      9  N   UNL     1       3.021   3.451  20.447  0.00  0.00    +0.000 NA
ATOM     10  N   UNL     1       3.006   4.027  19.229  0.00  0.00    +0.000 N 
ATOM     11  C   UNL     1       2.339   5.214  19.208  0.00  0.00    +0.000 A 
BRANCH  10  12
ATOM     12  C   UNL     1       3.641   3.387  18.090  0.00  0.00    +0.000 C 
BRANCH  12  13
ATOM     13  C   UNL     1       4.894   4.113  17.591  0.00  0.00    +0.000 C 
ATOM     14  C   UNL     1       5.753   4.752  18.671  0.00  0.00    +0.000 C 
ATOM     15  C   UNL     1       6.344   5.954  17.982  0.00  0.00    +0.000 C 
ATOM     16  C   UNL     1       5.302   6.323  16.950  0.00  0.00    +0.000 C 
ATOM     17  O   UNL     1       4.561   5.138  16.635  0.00  0.00    +0.000 OA
ENDBRANCH  12  13
ENDBRANCH  10  12
ENDBRANCH   5   7
BRANCH   1  18
ATOM     18  C   UNL     1       0.862  10.258  20.340  0.00  0.00    +0.000 C 
BRANCH  18  23
ATOM     19  C   UNL     1      -2.381  10.004  16.559  0.00  0.00    +0.000 C 
ATOM     20  C   UNL     1      -1.812  10.552  17.817  0.00  0.00    +0.000 A 
ATOM     21  C   UNL     1      -2.381  11.537  18.600  0.00  0.00    +0.000 A 
ATOM     22  S   UNL     1      -1.405  11.843  19.968  0.00  0.00    +0.000 S 
ATOM     23  C   UNL     1      -0.291  10.638  19.439  0.00  0.00    +0.000 A 
ATOM     24  N   UNL     1      -0.611  10.043  18.304  0.00  0.00    +0.000 NA
ENDBRANCH  18  23
ENDBRANCH   1  18
TORSDOF 5
ENDMDL
