MODEL 1
REMARK VINA RESULT:      -7.4      0.000      0.000
REMARK  Name = 
REMARK  3 active torsions:
REMARK  status: ('A' for Active; 'I' for Inactive)
REMARK    1  A    between atoms: C_1  and  N_2
REMARK    2  A    between atoms: N_2  and  C_3
REMARK    3  A    between atoms: C_3  and  C_4
REMARK                            x       y       z     vdW  Elec       q    Type
REMARK                         _______ _______ _______ _____ _____    ______ ____
ROOT
ATOM      1  C   UNL     1       1.061  16.077  20.234  0.00  0.00    +0.000 C 
ATOM      2  C   UNL     1       1.518  14.639  19.977  0.00  0.00    +0.000 C 
ATOM      3  C   UNL     1       0.360  13.948  19.270  0.00  0.00    +0.000 C 
ATOM      4  C   UNL     1      -0.537  13.351  20.341  0.00  0.00    +0.000 C 
ATOM      5  C   UNL     1      -1.053  14.532  21.205  0.00  0.00    +0.000 C 
ATOM      6  C   UNL     1      -0.251  15.923  21.146  0.00  0.00    +0.000 C 
ATOM      7  O   UNL     1       0.212  12.436  21.180  0.00  0.00    +0.000 OA
ATOM      8  C   UNL     1       1.015  11.469  20.459  0.00  0.00    +0.000 C 
ATOM      9  C   UNL     1       0.349  10.800  19.236  0.00  0.00    +0.000 C 
ATOM     10  C   UNL     1      -1.034  11.301  19.010  0.00  0.00    +0.000 A 
ATOM     11  C   UNL     1      -1.498  12.443  19.630  0.00  0.00    +0.000 A 
ATOM     12  N   UNL     1      -2.808  12.613  19.261  0.00  0.00    +0.000 N 
ATOM     13  C   UNL     1      -3.093  11.745  18.210  0.00  0.00    +0.000 A 
ATOM     14  C   UNL     1      -4.226  11.625  17.393  0.00  0.00    +0.000 A 
ATOM     15  C   UNL     1      -4.153  10.749  16.303  0.00  0.00    +0.000 A 
ATOM     16  C   UNL     1      -2.998  10.012  16.055  0.00  0.00    +0.000 A 
ATOM     17  F   UNL     1      -2.932   9.231  14.968  0.00  0.00    +0.000 F 
ATOM     18  C   UNL     1      -1.902  10.081  16.906  0.00  0.00    +0.000 A 
ATOM     19  C   UNL     1      -1.959  10.952  18.006  0.00  0.00    +0.000 A 
ATOM     20  H   UNL     1      -3.432  13.339  19.582  0.00  0.00    +0.000 HD
ENDROOT
BRANCH   1  21
ATOM     21  C   UNL     1       0.868  16.701  18.816  0.00  0.00    +0.000 A 
ATOM     22  C   UNL     1      -0.433  17.163  18.438  0.00  0.00    +0.000 A 
ATOM     23  C   UNL     1      -0.647  18.040  17.372  0.00  0.00    +0.000 A 
ATOM     24  C   UNL     1       0.437  18.404  16.575  0.00  0.00    +0.000 A 
ATOM     25  C   UNL     1       1.690  17.853  16.834  0.00  0.00    +0.000 A 
ATOM     26  C   UNL     1       1.908  17.011  17.933  0.00  0.00    +0.000 A 
ENDBRANCH   1  21
BRANCH   1  28
ATOM     27  C   UNL     1       3.229  16.135  21.506  0.00  0.00    +0.000 C 
ATOM     28  N   UNL     1       2.121  16.873  20.903  0.00  0.00    +0.000 NA
ATOM     29  H   UNL     1       2.524  17.496  20.207  0.00  0.00    +0.000 HD
ENDBRANCH   1  28
TORSDOF 2
ENDMDL
MODEL 2
REMARK VINA RESULT:      -7.4      1.221      1.464
REMARK  Name = 
REMARK  3 active torsions:
REMARK  status: ('A' for Active; 'I' for Inactive)
REMARK    1  A    between atoms: C_1  and  N_2
REMARK    2  A    between atoms: N_2  and  C_3
REMARK    3  A    between atoms: C_3  and  C_4
REMARK                            x       y       z     vdW  Elec       q    Type
REMARK                         _______ _______ _______ _____ _____    ______ ____
ROOT
ATOM      1  C   UNL     1       2.247  14.426  20.233  0.00  0.00    +0.000 C 
ATOM      2  C   UNL     1       2.350  13.076  19.523  0.00  0.00    +0.000 C 
ATOM      3  C   UNL     1       0.962  12.784  18.968  0.00  0.00    +0.000 C 
ATOM      4  C   UNL     1       0.192  12.032  20.040  0.00  0.00    +0.000 C 
ATOM      5  C   UNL     1       0.100  12.974  21.270  0.00  0.00    +0.000 C 
ATOM      6  C   UNL     1       1.135  14.198  21.368  0.00  0.00    +0.000 C 
ATOM      7  O   UNL     1       0.894  10.820  20.416  0.00  0.00    +0.000 OA
ATOM      8  C   UNL     1       1.331  10.001  19.304  0.00  0.00    +0.000 C 
ATOM      9  C   UNL     1       0.319   9.811  18.152  0.00  0.00    +0.000 C 
ATOM     10  C   UNL     1      -0.954  10.541  18.401  0.00  0.00    +0.000 A 
ATOM     11  C   UNL     1      -1.051  11.509  19.380  0.00  0.00    +0.000 A 
ATOM     12  N   UNL     1      -2.347  11.956  19.394  0.00  0.00    +0.000 N 
ATOM     13  C   UNL     1      -2.999  11.475  18.261  0.00  0.00    +0.000 A 
ATOM     14  C   UNL     1      -4.271  11.754  17.741  0.00  0.00    +0.000 A 
ATOM     15  C   UNL     1      -4.588  11.227  16.483  0.00  0.00    +0.000 A 
ATOM     16  C   UNL     1      -3.674  10.441  15.786  0.00  0.00    +0.000 A 
ATOM     17  F   UNL     1      -3.978  10.005  14.556  0.00  0.00    +0.000 F 
ATOM     18  C   UNL     1      -2.441  10.111  16.334  0.00  0.00    +0.000 A 
ATOM     19  C   UNL     1      -2.107  10.627  17.597  0.00  0.00    +0.000 A 
ATOM     20  H   UNL     1      -2.739  12.638  20.028  0.00  0.00    +0.000 HD
ENDROOT
BRANCH   1  21
ATOM     21  C   UNL     1       1.908  15.453  19.107  0.00  0.00    +0.000 A 
ATOM     22  C   UNL     1       0.701  16.215  19.209  0.00  0.00    +0.000 A 
ATOM     23  C   UNL     1       0.476  17.383  18.477  0.00  0.00    +0.000 A 
ATOM     24  C   UNL     1       1.420  17.773  17.529  0.00  0.00    +0.000 A 
ATOM     25  C   UNL     1       2.536  16.969  17.307  0.00  0.00    +0.000 A 
ATOM     26  C   UNL     1       2.781  15.824  18.078  0.00  0.00    +0.000 A 
ENDBRANCH   1  21
BRANCH   1  28
ATOM     27  C   UNL     1       3.527  15.792  21.913  0.00  0.00    +0.000 C 
ATOM     28  N   UNL     1       3.555  14.843  20.802  0.00  0.00    +0.000 NA
ATOM     29  H   UNL     1       4.025  14.006  21.137  0.00  0.00    +0.000 HD
ENDBRANCH   1  28
TORSDOF 2
ENDMDL
MODEL 3
REMARK VINA RESULT:      -6.9      1.075      1.211
REMARK  Name = 
REMARK  3 active torsions:
REMARK  status: ('A' for Active; 'I' for Inactive)
REMARK    1  A    between atoms: C_1  and  N_2
REMARK    2  A    between atoms: N_2  and  C_3
REMARK    3  A    between atoms: C_3  and  C_4
REMARK                            x       y       z     vdW  Elec       q    Type
REMARK                         _______ _______ _______ _____ _____    ______ ____
ROOT
ATOM      1  C   UNL     1       0.046  15.623  21.029  0.00  0.00    +0.000 C 
ATOM      2  C   UNL     1       0.538  14.191  20.809  0.00  0.00    +0.000 C 
ATOM      3  C   UNL     1      -0.410  13.570  19.793  0.00  0.00    +0.000 C 
ATOM      4  C   UNL     1      -1.554  12.936  20.566  0.00  0.00    +0.000 C 
ATOM      5  C   UNL     1      -2.260  14.080  21.342  0.00  0.00    +0.000 C 
ATOM      6  C   UNL     1      -1.455  15.451  21.571  0.00  0.00    +0.000 C 
ATOM      7  O   UNL     1      -1.051  11.957  21.509  0.00  0.00    +0.000 OA
ATOM      8  C   UNL     1      -0.102  11.012  20.956  0.00  0.00    +0.000 C 
ATOM      9  C   UNL     1      -0.445  10.429  19.567  0.00  0.00    +0.000 C 
ATOM     10  C   UNL     1      -1.721  10.977  19.031  0.00  0.00    +0.000 A 
ATOM     11  C   UNL     1      -2.314  12.094  19.582  0.00  0.00    +0.000 A 
ATOM     12  N   UNL     1      -3.487  12.317  18.906  0.00  0.00    +0.000 N 
ATOM     13  C   UNL     1      -3.506  11.516  17.767  0.00  0.00    +0.000 A 
ATOM     14  C   UNL     1      -4.397  11.471  16.685  0.00  0.00    +0.000 A 
ATOM     15  C   UNL     1      -4.060  10.656  15.598  0.00  0.00    +0.000 A 
ATOM     16  C   UNL     1      -2.888   9.905  15.604  0.00  0.00    +0.000 A 
ATOM     17  F   UNL     1      -2.557   9.185  14.524  0.00  0.00    +0.000 F 
ATOM     18  C   UNL     1      -2.041   9.899  16.706  0.00  0.00    +0.000 A 
ATOM     19  C   UNL     1      -2.365  10.708  17.807  0.00  0.00    +0.000 A 
ATOM     20  H   UNL     1      -4.164  13.039  19.103  0.00  0.00    +0.000 HD
ENDROOT
BRANCH   1  21
ATOM     21  C   UNL     1       0.223  16.330  19.649  0.00  0.00    +0.000 A 
ATOM     22  C   UNL     1      -0.916  16.942  19.037  0.00  0.00    +0.000 A 
ATOM     23  C   UNL     1      -0.813  17.886  18.012  0.00  0.00    +0.000 A 
ATOM     24  C   UNL     1       0.447  18.172  17.489  0.00  0.00    +0.000 A 
ATOM     25  C   UNL     1       1.558  17.483  17.969  0.00  0.00    +0.000 A 
ATOM     26  C   UNL     1       1.455  16.571  19.029  0.00  0.00    +0.000 A 
ENDBRANCH   1  21
BRANCH   1  28
ATOM     27  C   UNL     1       0.286  17.417  22.774  0.00  0.00    +0.000 C 
ATOM     28  N   UNL     1       0.911  16.354  21.990  0.00  0.00    +0.000 NA
ATOM     29  H   UNL     1       1.280  15.674  22.651  0.00  0.00    +0.000 HD
ENDBRANCH   1  28
TORSDOF 2
ENDMDL
MODEL 4
REMARK VINA RESULT:      -6.9      1.225      1.762
REMARK  Name = 
REMARK  3 active torsions:
REMARK  status: ('A' for Active; 'I' for Inactive)
REMARK    1  A    between atoms: C_1  and  N_2
REMARK    2  A    between atoms: N_2  and  C_3
REMARK    3  A    between atoms: C_3  and  C_4
REMARK                            x       y       z     vdW  Elec       q    Type
REMARK                         _______ _______ _______ _____ _____    ______ ____
ROOT
ATOM      1  C   UNL     1       1.307  14.499  21.368  0.00  0.00    +0.000 C 
ATOM      2  C   UNL     1       1.646  13.269  20.524  0.00  0.00    +0.000 C 
ATOM      3  C   UNL     1       0.394  12.951  19.718  0.00  0.00    +0.000 C 
ATOM      4  C   UNL     1      -0.454  12.004  20.550  0.00  0.00    +0.000 C 
ATOM      5  C   UNL     1      -0.823  12.760  21.854  0.00  0.00    +0.000 C 
ATOM      6  C   UNL     1       0.062  14.034  22.269  0.00  0.00    +0.000 C 
ATOM      7  O   UNL     1       0.296  10.809  20.884  0.00  0.00    +0.000 OA
ATOM      8  C   UNL     1       0.975  10.184  19.767  0.00  0.00    +0.000 C 
ATOM      9  C   UNL     1       0.173  10.077  18.451  0.00  0.00    +0.000 C 
ATOM     10  C   UNL     1      -1.188  10.667  18.576  0.00  0.00    +0.000 A 
ATOM     11  C   UNL     1      -1.526  11.483  19.636  0.00  0.00    +0.000 A 
ATOM     12  N   UNL     1      -2.846  11.824  19.493  0.00  0.00    +0.000 N 
ATOM     13  C   UNL     1      -3.269  11.454  18.219  0.00  0.00    +0.000 A 
ATOM     14  C   UNL     1      -4.467  11.703  17.535  0.00  0.00    +0.000 A 
ATOM     15  C   UNL     1      -4.537  11.330  16.187  0.00  0.00    +0.000 A 
ATOM     16  C   UNL     1      -3.456  10.718  15.558  0.00  0.00    +0.000 A 
ATOM     17  F   UNL     1      -3.525  10.432  14.251  0.00  0.00    +0.000 F 
ATOM     18  C   UNL     1      -2.295  10.411  16.257  0.00  0.00    +0.000 A 
ATOM     19  C   UNL     1      -2.209  10.774  17.611  0.00  0.00    +0.000 A 
ATOM     20  H   UNL     1      -3.394  12.381  20.133  0.00  0.00    +0.000 HD
ENDROOT
BRANCH   1  21
ATOM     21  C   UNL     1       1.045  15.640  20.336  0.00  0.00    +0.000 A 
ATOM     22  C   UNL     1       2.075  15.972  19.399  0.00  0.00    +0.000 A 
ATOM     23  C   UNL     1       1.834  16.702  18.232  0.00  0.00    +0.000 A 
ATOM     24  C   UNL     1       0.559  17.219  18.016  0.00  0.00    +0.000 A 
ATOM     25  C   UNL     1      -0.426  17.034  18.984  0.00  0.00    +0.000 A 
ATOM     26  C   UNL     1      -0.192  16.261  20.130  0.00  0.00    +0.000 A 
ENDBRANCH   1  21
BRANCH   1  28
ATOM     27  C   UNL     1       3.764  14.338  21.875  0.00  0.00    +0.000 C 
ATOM     28  N   UNL     1       2.466  14.932  22.189  0.00  0.00    +0.000 NA
ATOM     29  H   UNL     1       2.564  15.938  22.077  0.00  0.00    +0.000 HD
ENDBRANCH   1  28
TORSDOF 2
ENDMDL
MODEL 5
REMARK VINA RESULT:      -6.9      3.213      4.668
REMARK  Name = 
REMARK  3 active torsions:
REMARK  status: ('A' for Active; 'I' for Inactive)
REMARK    1  A    between atoms: C_1  and  N_2
REMARK    2  A    between atoms: N_2  and  C_3
REMARK    3  A    between atoms: C_3  and  C_4
REMARK                            x       y       z     vdW  Elec       q    Type
REMARK                         _______ _______ _______ _____ _____    ______ ____
ROOT
ATOM      1  C   UNL     1       1.923  15.223  19.969  0.00  0.00    +0.000 C 
ATOM      2  C   UNL     1       1.481  14.199  21.016  0.00  0.00    +0.000 C 
ATOM      3  C   UNL     1       1.717  12.830  20.393  0.00  0.00    +0.000 C 
ATOM      4  C   UNL     1       0.451  12.444  19.647  0.00  0.00    +0.000 C 
ATOM      5  C   UNL     1       0.235  13.515  18.544  0.00  0.00    +0.000 C 
ATOM      6  C   UNL     1       0.990  14.924  18.698  0.00  0.00    +0.000 C 
ATOM      7  O   UNL     1      -0.689  12.445  20.544  0.00  0.00    +0.000 OA
ATOM      8  C   UNL     1      -0.483  11.732  21.789  0.00  0.00    +0.000 C 
ATOM      9  C   UNL     1       0.238  10.370  21.688  0.00  0.00    +0.000 C 
ATOM     10  C   UNL     1       0.612  10.038  20.286  0.00  0.00    +0.000 A 
ATOM     11  C   UNL     1       0.595  10.993  19.290  0.00  0.00    +0.000 A 
ATOM     12  N   UNL     1       0.940  10.374  18.116  0.00  0.00    +0.000 N 
ATOM     13  C   UNL     1       1.432   9.104  18.407  0.00  0.00    +0.000 A 
ATOM     14  C   UNL     1       2.039   8.140  17.590  0.00  0.00    +0.000 A 
ATOM     15  C   UNL     1       2.578   7.007  18.211  0.00  0.00    +0.000 A 
ATOM     16  C   UNL     1       2.496   6.841  19.591  0.00  0.00    +0.000 A 
ATOM     17  F   UNL     1       3.077   5.780  20.167  0.00  0.00    +0.000 F 
ATOM     18  C   UNL     1       1.833   7.765  20.390  0.00  0.00    +0.000 A 
ATOM     19  C   UNL     1       1.283   8.906  19.783  0.00  0.00    +0.000 A 
ATOM     20  H   UNL     1       0.977  10.801  17.201  0.00  0.00    +0.000 HD
ENDROOT
BRANCH   1  21
ATOM     21  C   UNL     1       3.456  14.987  19.792  0.00  0.00    +0.000 A 
ATOM     22  C   UNL     1       3.969  14.749  18.477  0.00  0.00    +0.000 A 
ATOM     23  C   UNL     1       5.323  14.880  18.155  0.00  0.00    +0.000 A 
ATOM     24  C   UNL     1       6.231  15.154  19.176  0.00  0.00    +0.000 A 
ATOM     25  C   UNL     1       5.776  15.246  20.489  0.00  0.00    +0.000 A 
ATOM     26  C   UNL     1       4.411  15.161  20.800  0.00  0.00    +0.000 A 
ENDBRANCH   1  21
BRANCH   1  28
ATOM     27  C   UNL     1       1.589  17.665  19.468  0.00  0.00    +0.000 C 
ATOM     28  N   UNL     1       1.767  16.613  20.468  0.00  0.00    +0.000 NA
ATOM     29  H   UNL     1       0.948  16.634  21.070  0.00  0.00    +0.000 HD
ENDBRANCH   1  28
TORSDOF 2
ENDMDL
MODEL 6
REMARK VINA RESULT:      -6.9      1.114      1.696
REMARK  Name = 
REMARK  3 active torsions:
REMARK  status: ('A' for Active; 'I' for Inactive)
REMARK    1  A    between atoms: C_1  and  N_2
REMARK    2  A    between atoms: N_2  and  C_3
REMARK    3  A    between atoms: C_3  and  C_4
REMARK                            x       y       z     vdW  Elec       q    Type
REMARK                         _______ _______ _______ _____ _____    ______ ____
ROOT
ATOM      1  C   UNL     1       0.484  15.106  21.738  0.00  0.00    +0.000 C 
ATOM      2  C   UNL     1       1.005  13.779  21.184  0.00  0.00    +0.000 C 
ATOM      3  C   UNL     1      -0.046  13.293  20.195  0.00  0.00    +0.000 C 
ATOM      4  C   UNL     1      -1.043  12.448  20.969  0.00  0.00    +0.000 C 
ATOM      5  C   UNL     1      -1.686  13.374  22.034  0.00  0.00    +0.000 C 
ATOM      6  C   UNL     1      -0.919  14.732  22.421  0.00  0.00    +0.000 C 
ATOM      7  O   UNL     1      -0.372  11.347  21.633  0.00  0.00    +0.000 OA
ATOM      8  C   UNL     1       0.533  10.591  20.792  0.00  0.00    +0.000 C 
ATOM      9  C   UNL     1       0.029  10.255  19.371  0.00  0.00    +0.000 C 
ATOM     10  C   UNL     1      -1.332  10.802  19.117  0.00  0.00    +0.000 A 
ATOM     11  C   UNL     1      -1.893  11.752  19.944  0.00  0.00    +0.000 A 
ATOM     12  N   UNL     1      -3.156  12.014  19.478  0.00  0.00    +0.000 N 
ATOM     13  C   UNL     1      -3.296  11.440  18.217  0.00  0.00    +0.000 A 
ATOM     14  C   UNL     1      -4.324  11.535  17.269  0.00  0.00    +0.000 A 
ATOM     15  C   UNL     1      -4.104  10.962  16.011  0.00  0.00    +0.000 A 
ATOM     16  C   UNL     1      -2.910  10.307  15.723  0.00  0.00    +0.000 A 
ATOM     17  F   UNL     1      -2.698   9.826  14.490  0.00  0.00    +0.000 F 
ATOM     18  C   UNL     1      -1.920  10.156  16.686  0.00  0.00    +0.000 A 
ATOM     19  C   UNL     1      -2.126  10.721  17.956  0.00  0.00    +0.000 A 
ATOM     20  H   UNL     1      -3.832  12.638  19.896  0.00  0.00    +0.000 HD
ENDROOT
BRANCH   1  21
ATOM     21  C   UNL     1       0.438  16.069  20.510  0.00  0.00    +0.000 A 
ATOM     22  C   UNL     1       1.647  16.324  19.788  0.00  0.00    +0.000 A 
ATOM     23  C   UNL     1       1.663  16.862  18.499  0.00  0.00    +0.000 A 
ATOM     24  C   UNL     1       0.458  17.264  17.925  0.00  0.00    +0.000 A 
ATOM     25  C   UNL     1      -0.718  17.160  18.664  0.00  0.00    +0.000 A 
ATOM     26  C   UNL     1      -0.735  16.576  19.939  0.00  0.00    +0.000 A 
ENDBRANCH   1  21
BRANCH   1  28
ATOM     27  C   UNL     1       0.985  16.875  23.454  0.00  0.00    +0.000 C 
ATOM     28  N   UNL     1       1.439  15.704  22.705  0.00  0.00    +0.000 NA
ATOM     29  H   UNL     1       1.676  14.988  23.387  0.00  0.00    +0.000 HD
ENDBRANCH   1  28
TORSDOF 2
ENDMDL
MODEL 7
REMARK VINA RESULT:      -6.8      6.153      8.796
REMARK  Name = 
REMARK  3 active torsions:
REMARK  status: ('A' for Active; 'I' for Inactive)
REMARK    1  A    between atoms: C_1  and  N_2
REMARK    2  A    between atoms: N_2  and  C_3
REMARK    3  A    between atoms: C_3  and  C_4
REMARK                            x       y       z     vdW  Elec       q    Type
REMARK                         _______ _______ _______ _____ _____    ______ ____
ROOT
ATOM      1  C   UNL     1      10.035  14.562  19.098  0.00  0.00    +0.000 C 
ATOM      2  C   UNL     1       9.116  14.968  20.252  0.00  0.00    +0.000 C 
ATOM      3  C   UNL     1       7.719  14.506  19.860  0.00  0.00    +0.000 C 
ATOM      4  C   UNL     1       7.064  15.640  19.091  0.00  0.00    +0.000 C 
ATOM      5  C   UNL     1       7.930  15.885  17.827  0.00  0.00    +0.000 C 
ATOM      6  C   UNL     1       9.437  15.329  17.822  0.00  0.00    +0.000 C 
ATOM      7  O   UNL     1       7.032  16.848  19.892  0.00  0.00    +0.000 OA
ATOM      8  C   UNL     1       6.535  16.671  21.241  0.00  0.00    +0.000 C 
ATOM      9  C   UNL     1       5.284  15.779  21.399  0.00  0.00    +0.000 C 
ATOM     10  C   UNL     1       4.815  15.238  20.094  0.00  0.00    +0.000 A 
ATOM     11  C   UNL     1       5.610  15.283  18.967  0.00  0.00    +0.000 A 
ATOM     12  N   UNL     1       4.887  14.757  17.927  0.00  0.00    +0.000 N 
ATOM     13  C   UNL     1       3.749  14.138  18.441  0.00  0.00    +0.000 A 
ATOM     14  C   UNL     1       2.773  13.343  17.825  0.00  0.00    +0.000 A 
ATOM     15  C   UNL     1       1.822  12.726  18.647  0.00  0.00    +0.000 A 
ATOM     16  C   UNL     1       1.841  12.914  20.026  0.00  0.00    +0.000 A 
ATOM     17  F   UNL     1       0.960  12.260  20.796  0.00  0.00    +0.000 F 
ATOM     18  C   UNL     1       2.767  13.758  20.627  0.00  0.00    +0.000 A 
ATOM     19  C   UNL     1       3.727  14.388  19.817  0.00  0.00    +0.000 A 
ATOM     20  H   UNL     1       5.184  14.688  16.964  0.00  0.00    +0.000 HD
ENDROOT
BRANCH   1  21
ATOM     21  C   UNL     1       9.989  13.002  19.071  0.00  0.00    +0.000 A 
ATOM     22  C   UNL     1      10.144  12.286  20.300  0.00  0.00    +0.000 A 
ATOM     23  C   UNL     1       9.771  10.949  20.453  0.00  0.00    +0.000 A 
ATOM     24  C   UNL     1       9.324  10.246  19.336  0.00  0.00    +0.000 A 
ATOM     25  C   UNL     1       9.301  10.879  18.095  0.00  0.00    +0.000 A 
ATOM     26  C   UNL     1       9.631  12.235  17.957  0.00  0.00    +0.000 A 
ENDBRANCH   1  21
BRANCH   1  28
ATOM     27  C   UNL     1      11.831  16.322  19.110  0.00  0.00    +0.000 C 
ATOM     28  N   UNL     1      11.446  14.936  19.370  0.00  0.00    +0.000 NA
ATOM     29  H   UNL     1      11.628  14.757  20.354  0.00  0.00    +0.000 HD
ENDBRANCH   1  28
TORSDOF 2
ENDMDL
MODEL 8
REMARK VINA RESULT:      -6.6      4.282      7.117
REMARK  Name = 
REMARK  3 active torsions:
REMARK  status: ('A' for Active; 'I' for Inactive)
REMARK    1  A    between atoms: C_1  and  N_2
REMARK    2  A    between atoms: N_2  and  C_3
REMARK    3  A    between atoms: C_3  and  C_4
REMARK                            x       y       z     vdW  Elec       q    Type
REMARK                         _______ _______ _______ _____ _____    ______ ____
ROOT
ATOM      1  C   UNL     1      -6.007  13.664  22.611  0.00  0.00    +0.000 C 
ATOM      2  C   UNL     1      -4.705  14.266  22.079  0.00  0.00    +0.000 C 
ATOM      3  C   UNL     1      -3.733  13.103  21.930  0.00  0.00    +0.000 C 
ATOM      4  C   UNL     1      -2.993  12.957  23.249  0.00  0.00    +0.000 C 
ATOM      5  C   UNL     1      -4.060  12.640  24.330  0.00  0.00    +0.000 C 
ATOM      6  C   UNL     1      -5.595  12.988  24.007  0.00  0.00    +0.000 C 
ATOM      7  O   UNL     1      -2.316  14.192  23.592  0.00  0.00    +0.000 OA
ATOM      8  C   UNL     1      -1.530  14.773  22.523  0.00  0.00    +0.000 C 
ATOM      9  C   UNL     1      -0.670  13.792  21.695  0.00  0.00    +0.000 C 
ATOM     10  C   UNL     1      -0.825  12.386  22.156  0.00  0.00    +0.000 A 
ATOM     11  C   UNL     1      -1.855  12.011  22.994  0.00  0.00    +0.000 A 
ATOM     12  N   UNL     1      -1.700  10.677  23.272  0.00  0.00    +0.000 N 
ATOM     13  C   UNL     1      -0.742  10.149  22.410  0.00  0.00    +0.000 A 
ATOM     14  C   UNL     1      -0.326   8.828  22.191  0.00  0.00    +0.000 A 
ATOM     15  C   UNL     1       0.558   8.591  21.131  0.00  0.00    +0.000 A 
ATOM     16  C   UNL     1       1.017   9.638  20.337  0.00  0.00    +0.000 A 
ATOM     17  F   UNL     1       1.810   9.376  19.289  0.00  0.00    +0.000 F 
ATOM     18  C   UNL     1       0.657  10.954  20.599  0.00  0.00    +0.000 A 
ATOM     19  C   UNL     1      -0.226  11.211  21.661  0.00  0.00    +0.000 A 
ATOM     20  H   UNL     1      -2.275  10.123  23.890  0.00  0.00    +0.000 HD
ENDROOT
BRANCH   1  21
ATOM     21  C   UNL     1      -6.505  12.708  21.482  0.00  0.00    +0.000 A 
ATOM     22  C   UNL     1      -5.977  12.868  20.161  0.00  0.00    +0.000 A 
ATOM     23  C   UNL     1      -6.068  11.876  19.181  0.00  0.00    +0.000 A 
ATOM     24  C   UNL     1      -6.793  10.720  19.463  0.00  0.00    +0.000 A 
ATOM     25  C   UNL     1      -7.439  10.602  20.691  0.00  0.00    +0.000 A 
ATOM     26  C   UNL     1      -7.305  11.578  21.689  0.00  0.00    +0.000 A 
ENDBRANCH   1  21
BRANCH   1  28
ATOM     27  C   UNL     1      -7.917  14.598  23.955  0.00  0.00    +0.000 C 
ATOM     28  N   UNL     1      -7.058  14.701  22.777  0.00  0.00    +0.000 NA
ATOM     29  H   UNL     1      -6.594  15.604  22.825  0.00  0.00    +0.000 HD
ENDBRANCH   1  28
TORSDOF 2
ENDMDL
MODEL 9
REMARK VINA RESULT:      -6.6      4.570      7.580
REMARK  Name = 
REMARK  3 active torsions:
REMARK  status: ('A' for Active; 'I' for Inactive)
REMARK    1  A    between atoms: C_1  and  N_2
REMARK    2  A    between atoms: N_2  and  C_3
REMARK    3  A    between atoms: C_3  and  C_4
REMARK                            x       y       z     vdW  Elec       q    Type
REMARK                         _______ _______ _______ _____ _____    ______ ____
ROOT
ATOM      1  C   UNL     1      -2.967  10.640  17.410  0.00  0.00    +0.000 C 
ATOM      2  C   UNL     1      -3.930  11.806  17.184  0.00  0.00    +0.000 C 
ATOM      3  C   UNL     1      -4.571  12.092  18.536  0.00  0.00    +0.000 C 
ATOM      4  C   UNL     1      -5.818  11.231  18.639  0.00  0.00    +0.000 C 
ATOM      5  C   UNL     1      -5.352   9.753  18.559  0.00  0.00    +0.000 C 
ATOM      6  C   UNL     1      -3.899   9.449  17.945  0.00  0.00    +0.000 C 
ATOM      7  O   UNL     1      -6.722  11.508  17.539  0.00  0.00    +0.000 OA
ATOM      8  C   UNL     1      -6.980  12.914  17.303  0.00  0.00    +0.000 C 
ATOM      9  C   UNL     1      -7.226  13.785  18.555  0.00  0.00    +0.000 C 
ATOM     10  C   UNL     1      -7.136  12.994  19.813  0.00  0.00    +0.000 A 
ATOM     11  C   UNL     1      -6.580  11.731  19.832  0.00  0.00    +0.000 A 
ATOM     12  N   UNL     1      -6.686  11.251  21.112  0.00  0.00    +0.000 N 
ATOM     13  C   UNL     1      -7.057  12.297  21.954  0.00  0.00    +0.000 A 
ATOM     14  C   UNL     1      -7.159  12.367  23.350  0.00  0.00    +0.000 A 
ATOM     15  C   UNL     1      -7.409  13.620  23.923  0.00  0.00    +0.000 A 
ATOM     16  C   UNL     1      -7.566  14.751  23.126  0.00  0.00    +0.000 A 
ATOM     17  F   UNL     1      -7.738  15.948  23.703  0.00  0.00    +0.000 F 
ATOM     18  C   UNL     1      -7.532  14.667  21.740  0.00  0.00    +0.000 A 
ATOM     19  C   UNL     1      -7.287  13.417  21.148  0.00  0.00    +0.000 A 
ATOM     20  H   UNL     1      -6.404  10.337  21.435  0.00  0.00    +0.000 HD
ENDROOT
BRANCH   1  21
ATOM     21  C   UNL     1      -1.887  11.190  18.395  0.00  0.00    +0.000 A 
ATOM     22  C   UNL     1      -1.385  10.327  19.419  0.00  0.00    +0.000 A 
ATOM     23  C   UNL     1      -0.196  10.578  20.109  0.00  0.00    +0.000 A 
ATOM     24  C   UNL     1       0.481  11.771  19.865  0.00  0.00    +0.000 A 
ATOM     25  C   UNL     1      -0.064  12.697  18.978  0.00  0.00    +0.000 A 
ATOM     26  C   UNL     1      -1.232  12.419  18.253  0.00  0.00    +0.000 A 
ENDBRANCH   1  21
BRANCH   1  28
ATOM     27  C   UNL     1      -3.031  10.254  14.926  0.00  0.00    +0.000 C 
ATOM     28  N   UNL     1      -2.250  10.277  16.161  0.00  0.00    +0.000 NA
ATOM     29  H   UNL     1      -1.502  10.954  16.027  0.00  0.00    +0.000 HD
ENDBRANCH   1  28
TORSDOF 2
ENDMDL
