MODEL 1
REMARK VINA RESULT:      -7.5      0.000      0.000
REMARK  Name = 
REMARK  8 active torsions:
REMARK  status: ('A' for Active; 'I' for Inactive)
REMARK    1  A    between atoms: C_1  and  C_2
REMARK    2  A    between atoms: C_3  and  C_4
REMARK    3  A    between atoms: C_4  and  O_6
REMARK    4  A    between atoms: O_6  and  C_7
REMARK    5  A    between atoms: C_7  and  C_8
REMARK    6  A    between atoms: C_14  and  C_15
REMARK    7  A    between atoms: C_18  and  N_19
REMARK    8  A    between atoms: N_27  and  C_28
REMARK                            x       y       z     vdW  Elec       q    Type
REMARK                         _______ _______ _______ _____ _____    ______ ____
ROOT
ATOM      1  C   UNL     1       5.306   3.790  14.271  0.00  0.00    +0.000 C 
ATOM      2  C   UNL     1       5.544   4.505  15.581  0.00  0.00    +0.000 C 
ATOM      3  C   UNL     1       4.806   4.340  16.708  0.00  0.00    +0.000 C 
ATOM      4  C   UNL     1       5.104   5.119  17.964  0.00  0.00    +0.000 C 
ATOM      5  N   UNL     1       6.375   5.788  17.893  0.00  0.00    +0.000 N 
ATOM      6  C   UNL     1       7.061   6.054  16.757  0.00  0.00    +0.000 C 
ATOM      7  O   UNL     1       8.020   6.819  16.817  0.00  0.00    +0.000 OA
ATOM      8  N   UNL     1       6.633   5.403  15.607  0.00  0.00    +0.000 N 
ATOM      9  C   UNL     1       7.436   5.631  14.406  0.00  0.00    +0.000 C 
ATOM     10  H   UNL     1       6.696   6.310  18.696  0.00  0.00    +0.000 HD
ENDROOT
BRANCH   4  11
ATOM     11  C   UNL     1       4.016   6.131  18.309  0.00  0.00    +0.000 A 
ATOM     12  C   UNL     1       3.773   7.217  17.450  0.00  0.00    +0.000 A 
ATOM     13  C   UNL     1       2.800   8.170  17.762  0.00  0.00    +0.000 A 
ATOM     14  C   UNL     1       2.060   8.038  18.945  0.00  0.00    +0.000 A 
ATOM     15  C   UNL     1       2.280   6.957  19.806  0.00  0.00    +0.000 A 
ATOM     16  C   UNL     1       3.251   6.007  19.482  0.00  0.00    +0.000 A 
BRANCH  14  17
ATOM     17  N   UNL     1       1.051   9.046  19.288  0.00  0.00    +0.000 N 
ATOM     18  O   UNL     1       0.743   9.169  20.483  0.00  0.00    +0.000 OA
ATOM     19  O   UNL     1       0.563   9.714  18.366  0.00  0.00    +0.000 OA
ENDBRANCH  14  17
ENDBRANCH   4  11
BRANCH   3  20
ATOM     20  C   UNL     1       3.659   3.406  16.926  0.00  0.00    +0.000 C 
ATOM     21  O   UNL     1       2.539   3.646  16.492  0.00  0.00    +0.000 OA
BRANCH  20  22
ATOM     22  O   UNL     1       4.010   2.283  17.583  0.00  0.00    +0.000 OA
BRANCH  22  23
ATOM     23  C   UNL     1       2.938   1.486  18.117  0.00  0.00    +0.000 C 
BRANCH  23  24
ATOM     24  C   UNL     1       2.401   2.165  19.350  0.00  0.00    +0.000 A 
ATOM     25  C   UNL     1       1.094   2.673  19.371  0.00  0.00    +0.000 A 
ATOM     26  C   UNL     1       0.610   3.335  20.501  0.00  0.00    +0.000 A 
ATOM     27  C   UNL     1       1.425   3.490  21.621  0.00  0.00    +0.000 A 
ATOM     28  C   UNL     1       2.719   2.973  21.618  0.00  0.00    +0.000 A 
ATOM     29  C   UNL     1       3.204   2.311  20.489  0.00  0.00    +0.000 A 
ENDBRANCH  23  24
ENDBRANCH  22  23
ENDBRANCH  20  22
ENDBRANCH   3  20
TORSDOF 6
ENDMDL
MODEL 2
REMARK VINA RESULT:      -7.5      2.041      5.650
REMARK  Name = 
REMARK  8 active torsions:
REMARK  status: ('A' for Active; 'I' for Inactive)
REMARK    1  A    between atoms: C_1  and  C_2
REMARK    2  A    between atoms: C_3  and  C_4
REMARK    3  A    between atoms: C_4  and  O_6
REMARK    4  A    between atoms: O_6  and  C_7
REMARK    5  A    between atoms: C_7  and  C_8
REMARK    6  A    between atoms: C_14  and  C_15
REMARK    7  A    between atoms: C_18  and  N_19
REMARK    8  A    between atoms: N_27  and  C_28
REMARK                            x       y       z     vdW  Elec       q    Type
REMARK                         _______ _______ _______ _____ _____    ______ ____
ROOT
ATOM      1  C   UNL     1       1.173   8.432  21.842  0.00  0.00    +0.000 C 
ATOM      2  C   UNL     1       1.539   8.092  20.415  0.00  0.00    +0.000 C 
ATOM      3  C   UNL     1       1.785   6.841  19.948  0.00  0.00    +0.000 C 
ATOM      4  C   UNL     1       2.169   6.601  18.510  0.00  0.00    +0.000 C 
ATOM      5  N   UNL     1       1.958   7.767  17.695  0.00  0.00    +0.000 N 
ATOM      6  C   UNL     1       1.825   9.033  18.154  0.00  0.00    +0.000 C 
ATOM      7  O   UNL     1       1.870   9.957  17.346  0.00  0.00    +0.000 OA
ATOM      8  N   UNL     1       1.615   9.179  19.519  0.00  0.00    +0.000 N 
ATOM      9  C   UNL     1       1.386  10.545  19.989  0.00  0.00    +0.000 C 
ATOM     10  H   UNL     1       2.146   7.709  16.704  0.00  0.00    +0.000 HD
ENDROOT
BRANCH   4  11
ATOM     11  C   UNL     1       3.609   6.124  18.351  0.00  0.00    +0.000 A 
ATOM     12  C   UNL     1       4.207   6.117  17.078  0.00  0.00    +0.000 A 
ATOM     13  C   UNL     1       5.515   5.658  16.908  0.00  0.00    +0.000 A 
ATOM     14  C   UNL     1       6.237   5.202  18.019  0.00  0.00    +0.000 A 
ATOM     15  C   UNL     1       5.662   5.213  19.295  0.00  0.00    +0.000 A 
ATOM     16  C   UNL     1       4.355   5.679  19.456  0.00  0.00    +0.000 A 
BRANCH  14  17
ATOM     17  N   UNL     1       7.605   4.700  17.843  0.00  0.00    +0.000 N 
ATOM     18  O   UNL     1       8.331   4.647  18.847  0.00  0.00    +0.000 OA
ATOM     19  O   UNL     1       7.955   4.361  16.704  0.00  0.00    +0.000 OA
ENDBRANCH  14  17
ENDBRANCH   4  11
BRANCH   3  20
ATOM     20  C   UNL     1       1.701   5.549  20.695  0.00  0.00    +0.000 C 
ATOM     21  O   UNL     1       2.468   5.282  21.612  0.00  0.00    +0.000 OA
BRANCH  20  22
ATOM     22  O   UNL     1       0.679   4.770  20.289  0.00  0.00    +0.000 OA
BRANCH  22  23
ATOM     23  C   UNL     1       0.850   3.349  20.444  0.00  0.00    +0.000 C 
BRANCH  23  24
ATOM     24  C   UNL     1       1.887   2.880  19.457  0.00  0.00    +0.000 A 
ATOM     25  C   UNL     1       3.069   2.268  19.903  0.00  0.00    +0.000 A 
ATOM     26  C   UNL     1       4.046   1.866  18.990  0.00  0.00    +0.000 A 
ATOM     27  C   UNL     1       3.850   2.067  17.625  0.00  0.00    +0.000 A 
ATOM     28  C   UNL     1       2.672   2.656  17.169  0.00  0.00    +0.000 A 
ATOM     29  C   UNL     1       1.694   3.059  18.081  0.00  0.00    +0.000 A 
ENDBRANCH  23  24
ENDBRANCH  22  23
ENDBRANCH  20  22
ENDBRANCH   3  20
TORSDOF 6
ENDMDL
MODEL 3
REMARK VINA RESULT:      -7.5      2.617      6.376
REMARK  Name = 
REMARK  8 active torsions:
REMARK  status: ('A' for Active; 'I' for Inactive)
REMARK    1  A    between atoms: C_1  and  C_2
REMARK    2  A    between atoms: C_3  and  C_4
REMARK    3  A    between atoms: C_4  and  O_6
REMARK    4  A    between atoms: O_6  and  C_7
REMARK    5  A    between atoms: C_7  and  C_8
REMARK    6  A    between atoms: C_14  and  C_15
REMARK    7  A    between atoms: C_18  and  N_19
REMARK    8  A    between atoms: N_27  and  C_28
REMARK                            x       y       z     vdW  Elec       q    Type
REMARK                         _______ _______ _______ _____ _____    ______ ____
ROOT
ATOM      1  C   UNL     1       1.229   4.585  19.190  0.00  0.00    +0.000 C 
ATOM      2  C   UNL     1       2.720   4.343  19.138  0.00  0.00    +0.000 C 
ATOM      3  C   UNL     1       3.646   5.249  18.732  0.00  0.00    +0.000 C 
ATOM      4  C   UNL     1       5.113   4.908  18.690  0.00  0.00    +0.000 C 
ATOM      5  N   UNL     1       5.399   3.678  19.377  0.00  0.00    +0.000 N 
ATOM      6  C   UNL     1       4.494   2.720  19.685  0.00  0.00    +0.000 C 
ATOM      7  O   UNL     1       4.903   1.629  20.074  0.00  0.00    +0.000 OA
ATOM      8  N   UNL     1       3.155   3.069  19.560  0.00  0.00    +0.000 N 
ATOM      9  C   UNL     1       2.187   2.055  19.978  0.00  0.00    +0.000 C 
ATOM     10  H   UNL     1       6.359   3.370  19.446  0.00  0.00    +0.000 HD
ENDROOT
BRANCH   4  11
ATOM     11  C   UNL     1       5.667   4.836  17.270  0.00  0.00    +0.000 A 
ATOM     12  C   UNL     1       6.848   5.526  16.944  0.00  0.00    +0.000 A 
ATOM     13  C   UNL     1       7.356   5.494  15.643  0.00  0.00    +0.000 A 
ATOM     14  C   UNL     1       6.680   4.765  14.656  0.00  0.00    +0.000 A 
ATOM     15  C   UNL     1       5.510   4.061  14.965  0.00  0.00    +0.000 A 
ATOM     16  C   UNL     1       5.013   4.095  16.270  0.00  0.00    +0.000 A 
BRANCH  14  17
ATOM     17  N   UNL     1       7.198   4.744  13.283  0.00  0.00    +0.000 N 
ATOM     18  O   UNL     1       8.037   5.601  12.971  0.00  0.00    +0.000 OA
ATOM     19  O   UNL     1       6.766   3.872  12.515  0.00  0.00    +0.000 OA
ENDBRANCH  14  17
ENDBRANCH   4  11
BRANCH   3  20
ATOM     20  C   UNL     1       3.420   6.665  18.307  0.00  0.00    +0.000 C 
ATOM     21  O   UNL     1       3.745   7.065  17.196  0.00  0.00    +0.000 OA
BRANCH  20  22
ATOM     22  O   UNL     1       2.787   7.401  19.241  0.00  0.00    +0.000 OA
BRANCH  22  23
ATOM     23  C   UNL     1       1.865   8.397  18.762  0.00  0.00    +0.000 C 
BRANCH  23  24
ATOM     24  C   UNL     1       1.177   9.025  19.946  0.00  0.00    +0.000 A 
ATOM     25  C   UNL     1       0.676  10.333  19.867  0.00  0.00    +0.000 A 
ATOM     26  C   UNL     1       0.071  10.927  20.976  0.00  0.00    +0.000 A 
ATOM     27  C   UNL     1      -0.043  10.219  22.172  0.00  0.00    +0.000 A 
ATOM     28  C   UNL     1       0.434   8.913  22.256  0.00  0.00    +0.000 A 
ATOM     29  C   UNL     1       1.039   8.317  21.147  0.00  0.00    +0.000 A 
ENDBRANCH  23  24
ENDBRANCH  22  23
ENDBRANCH  20  22
ENDBRANCH   3  20
TORSDOF 6
ENDMDL
MODEL 4
REMARK VINA RESULT:      -7.4      2.640      6.423
REMARK  Name = 
REMARK  8 active torsions:
REMARK  status: ('A' for Active; 'I' for Inactive)
REMARK    1  A    between atoms: C_1  and  C_2
REMARK    2  A    between atoms: C_3  and  C_4
REMARK    3  A    between atoms: C_4  and  O_6
REMARK    4  A    between atoms: O_6  and  C_7
REMARK    5  A    between atoms: C_7  and  C_8
REMARK    6  A    between atoms: C_14  and  C_15
REMARK    7  A    between atoms: C_18  and  N_19
REMARK    8  A    between atoms: N_27  and  C_28
REMARK                            x       y       z     vdW  Elec       q    Type
REMARK                         _______ _______ _______ _____ _____    ______ ____
ROOT
ATOM      1  C   UNL     1       1.193   4.532  19.296  0.00  0.00    +0.000 C 
ATOM      2  C   UNL     1       2.689   4.329  19.228  0.00  0.00    +0.000 C 
ATOM      3  C   UNL     1       3.588   5.266  18.834  0.00  0.00    +0.000 C 
ATOM      4  C   UNL     1       5.064   4.964  18.774  0.00  0.00    +0.000 C 
ATOM      5  N   UNL     1       5.386   3.727  19.433  0.00  0.00    +0.000 N 
ATOM      6  C   UNL     1       4.508   2.740  19.727  0.00  0.00    +0.000 C 
ATOM      7  O   UNL     1       4.948   1.653  20.090  0.00  0.00    +0.000 OA
ATOM      8  N   UNL     1       3.160   3.057  19.620  0.00  0.00    +0.000 N 
ATOM      9  C   UNL     1       2.222   2.010  20.023  0.00  0.00    +0.000 C 
ATOM     10  H   UNL     1       6.354   3.443  19.488  0.00  0.00    +0.000 HD
ENDROOT
BRANCH   4  11
ATOM     11  C   UNL     1       5.608   4.936  17.349  0.00  0.00    +0.000 A 
ATOM     12  C   UNL     1       4.918   4.229  16.350  0.00  0.00    +0.000 A 
ATOM     13  C   UNL     1       5.415   4.169  15.045  0.00  0.00    +0.000 A 
ATOM     14  C   UNL     1       6.614   4.823  14.734  0.00  0.00    +0.000 A 
ATOM     15  C   UNL     1       7.309   5.543  15.713  0.00  0.00    +0.000 A 
ATOM     16  C   UNL     1       6.801   5.601  17.013  0.00  0.00    +0.000 A 
BRANCH  14  17
ATOM     17  N   UNL     1       7.152   4.748  13.371  0.00  0.00    +0.000 N 
ATOM     18  O   UNL     1       8.012   5.580  13.044  0.00  0.00    +0.000 OA
ATOM     19  O   UNL     1       6.716   3.860  12.625  0.00  0.00    +0.000 OA
ENDBRANCH  14  17
ENDBRANCH   4  11
BRANCH   3  20
ATOM     20  C   UNL     1       3.324   6.685  18.441  0.00  0.00    +0.000 C 
ATOM     21  O   UNL     1       3.663   7.127  17.351  0.00  0.00    +0.000 OA
BRANCH  20  22
ATOM     22  O   UNL     1       2.641   7.373  19.378  0.00  0.00    +0.000 OA
BRANCH  22  23
ATOM     23  C   UNL     1       1.802   8.443  18.907  0.00  0.00    +0.000 C 
BRANCH  23  24
ATOM     24  C   UNL     1       1.100   9.059  20.090  0.00  0.00    +0.000 A 
ATOM     25  C   UNL     1       1.240   8.501  21.370  0.00  0.00    +0.000 A 
ATOM     26  C   UNL     1       0.560   9.050  22.459  0.00  0.00    +0.000 A 
ATOM     27  C   UNL     1      -0.260  10.163  22.281  0.00  0.00    +0.000 A 
ATOM     28  C   UNL     1      -0.391  10.737  21.018  0.00  0.00    +0.000 A 
ATOM     29  C   UNL     1       0.288  10.189  19.927  0.00  0.00    +0.000 A 
ENDBRANCH  23  24
ENDBRANCH  22  23
ENDBRANCH  20  22
ENDBRANCH   3  20
TORSDOF 6
ENDMDL
MODEL 5
REMARK VINA RESULT:      -7.4      2.653      6.389
REMARK  Name = 
REMARK  8 active torsions:
REMARK  status: ('A' for Active; 'I' for Inactive)
REMARK    1  A    between atoms: C_1  and  C_2
REMARK    2  A    between atoms: C_3  and  C_4
REMARK    3  A    between atoms: C_4  and  O_6
REMARK    4  A    between atoms: O_6  and  C_7
REMARK    5  A    between atoms: C_7  and  C_8
REMARK    6  A    between atoms: C_14  and  C_15
REMARK    7  A    between atoms: C_18  and  N_19
REMARK    8  A    between atoms: N_27  and  C_28
REMARK                            x       y       z     vdW  Elec       q    Type
REMARK                         _______ _______ _______ _____ _____    ______ ____
ROOT
ATOM      1  C   UNL     1       1.187   4.563  19.379  0.00  0.00    +0.000 C 
ATOM      2  C   UNL     1       2.681   4.353  19.299  0.00  0.00    +0.000 C 
ATOM      3  C   UNL     1       3.581   5.284  18.893  0.00  0.00    +0.000 C 
ATOM      4  C   UNL     1       5.055   4.974  18.821  0.00  0.00    +0.000 C 
ATOM      5  N   UNL     1       5.377   3.739  19.483  0.00  0.00    +0.000 N 
ATOM      6  C   UNL     1       4.496   2.758  19.789  0.00  0.00    +0.000 C 
ATOM      7  O   UNL     1       4.935   1.670  20.153  0.00  0.00    +0.000 OA
ATOM      8  N   UNL     1       3.149   3.081  19.692  0.00  0.00    +0.000 N 
ATOM      9  C   UNL     1       2.210   2.041  20.109  0.00  0.00    +0.000 C 
ATOM     10  H   UNL     1       6.344   3.450  19.531  0.00  0.00    +0.000 HD
ENDROOT
BRANCH   4  11
ATOM     11  C   UNL     1       5.586   4.937  17.392  0.00  0.00    +0.000 A 
ATOM     12  C   UNL     1       4.890   4.219  16.404  0.00  0.00    +0.000 A 
ATOM     13  C   UNL     1       5.376   4.151  15.096  0.00  0.00    +0.000 A 
ATOM     14  C   UNL     1       6.570   4.807  14.768  0.00  0.00    +0.000 A 
ATOM     15  C   UNL     1       7.270   5.537  15.735  0.00  0.00    +0.000 A 
ATOM     16  C   UNL     1       6.773   5.604  17.039  0.00  0.00    +0.000 A 
BRANCH  14  17
ATOM     17  N   UNL     1       7.095   4.723  13.401  0.00  0.00    +0.000 N 
ATOM     18  O   UNL     1       6.632   3.844  12.659  0.00  0.00    +0.000 OA
ATOM     19  O   UNL     1       7.972   5.533  13.067  0.00  0.00    +0.000 OA
ENDBRANCH  14  17
ENDBRANCH   4  11
BRANCH   3  20
ATOM     20  C   UNL     1       3.320   6.702  18.495  0.00  0.00    +0.000 C 
ATOM     21  O   UNL     1       3.665   7.141  17.406  0.00  0.00    +0.000 OA
BRANCH  20  22
ATOM     22  O   UNL     1       2.633   7.393  19.426  0.00  0.00    +0.000 OA
BRANCH  22  23
ATOM     23  C   UNL     1       1.752   8.424  18.945  0.00  0.00    +0.000 C 
BRANCH  23  24
ATOM     24  C   UNL     1       1.063   9.057  20.125  0.00  0.00    +0.000 A 
ATOM     25  C   UNL     1       0.307  10.228  19.965  0.00  0.00    +0.000 A 
ATOM     26  C   UNL     1      -0.301  10.835  21.066  0.00  0.00    +0.000 A 
ATOM     27  C   UNL     1      -0.164  10.275  22.335  0.00  0.00    +0.000 A 
ATOM     28  C   UNL     1       0.569   9.102  22.503  0.00  0.00    +0.000 A 
ATOM     29  C   UNL     1       1.178   8.494  21.403  0.00  0.00    +0.000 A 
ENDBRANCH  23  24
ENDBRANCH  22  23
ENDBRANCH  20  22
ENDBRANCH   3  20
TORSDOF 6
ENDMDL
MODEL 6
REMARK VINA RESULT:      -7.4      0.102      1.424
REMARK  Name = 
REMARK  8 active torsions:
REMARK  status: ('A' for Active; 'I' for Inactive)
REMARK    1  A    between atoms: C_1  and  C_2
REMARK    2  A    between atoms: C_3  and  C_4
REMARK    3  A    between atoms: C_4  and  O_6
REMARK    4  A    between atoms: O_6  and  C_7
REMARK    5  A    between atoms: C_7  and  C_8
REMARK    6  A    between atoms: C_14  and  C_15
REMARK    7  A    between atoms: C_18  and  N_19
REMARK    8  A    between atoms: N_27  and  C_28
REMARK                            x       y       z     vdW  Elec       q    Type
REMARK                         _______ _______ _______ _____ _____    ______ ____
ROOT
ATOM      1  C   UNL     1       5.217   3.734  14.201  0.00  0.00    +0.000 C 
ATOM      2  C   UNL     1       5.500   4.451  15.501  0.00  0.00    +0.000 C 
ATOM      3  C   UNL     1       4.784   4.308  16.645  0.00  0.00    +0.000 C 
ATOM      4  C   UNL     1       5.127   5.087  17.889  0.00  0.00    +0.000 C 
ATOM      5  N   UNL     1       6.410   5.728  17.786  0.00  0.00    +0.000 N 
ATOM      6  C   UNL     1       7.077   5.972  16.633  0.00  0.00    +0.000 C 
ATOM      7  O   UNL     1       8.053   6.716  16.668  0.00  0.00    +0.000 OA
ATOM      8  N   UNL     1       6.609   5.325  15.497  0.00  0.00    +0.000 N 
ATOM      9  C   UNL     1       7.389   5.528  14.277  0.00  0.00    +0.000 C 
ATOM     10  H   UNL     1       6.761   6.247  18.579  0.00  0.00    +0.000 HD
ENDROOT
BRANCH   4  11
ATOM     11  C   UNL     1       4.070   6.125  18.252  0.00  0.00    +0.000 A 
ATOM     12  C   UNL     1       3.331   5.986  19.440  0.00  0.00    +0.000 A 
ATOM     13  C   UNL     1       2.340   6.912  19.776  0.00  0.00    +0.000 A 
ATOM     14  C   UNL     1       2.083   7.989  18.919  0.00  0.00    +0.000 A 
ATOM     15  C   UNL     1       2.818   8.151  17.738  0.00  0.00    +0.000 A 
ATOM     16  C   UNL     1       3.810   7.224  17.413  0.00  0.00    +0.000 A 
BRANCH  14  17
ATOM     17  N   UNL     1       1.030   8.954  19.257  0.00  0.00    +0.000 N 
ATOM     18  O   UNL     1       0.601   9.680  18.347  0.00  0.00    +0.000 OA
ATOM     19  O   UNL     1       0.633   8.990  20.429  0.00  0.00    +0.000 OA
ENDBRANCH  14  17
ENDBRANCH   4  11
BRANCH   3  20
ATOM     20  C   UNL     1       3.622   3.401  16.894  0.00  0.00    +0.000 C 
ATOM     21  O   UNL     1       2.494   3.674  16.503  0.00  0.00    +0.000 OA
BRANCH  20  22
ATOM     22  O   UNL     1       3.968   2.262  17.526  0.00  0.00    +0.000 OA
BRANCH  22  23
ATOM     23  C   UNL     1       2.897   1.497  18.108  0.00  0.00    +0.000 C 
BRANCH  23  24
ATOM     24  C   UNL     1       2.394   2.225  19.328  0.00  0.00    +0.000 A 
ATOM     25  C   UNL     1       3.201   2.346  20.468  0.00  0.00    +0.000 A 
ATOM     26  C   UNL     1       2.721   2.990  21.611  0.00  0.00    +0.000 A 
ATOM     27  C   UNL     1       1.433   3.522  21.622  0.00  0.00    +0.000 A 
ATOM     28  C   UNL     1       0.629   3.425  20.488  0.00  0.00    +0.000 A 
ATOM     29  C   UNL     1       1.108   2.782  19.345  0.00  0.00    +0.000 A 
ENDBRANCH  23  24
ENDBRANCH  22  23
ENDBRANCH  20  22
ENDBRANCH   3  20
TORSDOF 6
ENDMDL
MODEL 7
REMARK VINA RESULT:      -7.3      2.572      6.438
REMARK  Name = 
REMARK  8 active torsions:
REMARK  status: ('A' for Active; 'I' for Inactive)
REMARK    1  A    between atoms: C_1  and  C_2
REMARK    2  A    between atoms: C_3  and  C_4
REMARK    3  A    between atoms: C_4  and  O_6
REMARK    4  A    between atoms: O_6  and  C_7
REMARK    5  A    between atoms: C_7  and  C_8
REMARK    6  A    between atoms: C_14  and  C_15
REMARK    7  A    between atoms: C_18  and  N_19
REMARK    8  A    between atoms: N_27  and  C_28
REMARK                            x       y       z     vdW  Elec       q    Type
REMARK                         _______ _______ _______ _____ _____    ______ ____
ROOT
ATOM      1  C   UNL     1       1.404   4.918  19.278  0.00  0.00    +0.000 C 
ATOM      2  C   UNL     1       2.865   4.567  19.121  0.00  0.00    +0.000 C 
ATOM      3  C   UNL     1       3.805   5.365  18.552  0.00  0.00    +0.000 C 
ATOM      4  C   UNL     1       5.238   4.918  18.416  0.00  0.00    +0.000 C 
ATOM      5  N   UNL     1       5.508   3.736  19.189  0.00  0.00    +0.000 N 
ATOM      6  C   UNL     1       4.576   2.876  19.663  0.00  0.00    +0.000 C 
ATOM      7  O   UNL     1       4.951   1.798  20.116  0.00  0.00    +0.000 OA
ATOM      8  N   UNL     1       3.257   3.307  19.622  0.00  0.00    +0.000 N 
ATOM      9  C   UNL     1       2.270   2.405  20.215  0.00  0.00    +0.000 C 
ATOM     10  H   UNL     1       6.449   3.368  19.203  0.00  0.00    +0.000 HD
ENDROOT
BRANCH   4  11
ATOM     11  C   UNL     1       5.652   4.681  16.967  0.00  0.00    +0.000 A 
ATOM     12  C   UNL     1       6.929   5.076  16.531  0.00  0.00    +0.000 A 
ATOM     13  C   UNL     1       7.317   4.893  15.201  0.00  0.00    +0.000 A 
ATOM     14  C   UNL     1       6.423   4.308  14.296  0.00  0.00    +0.000 A 
ATOM     15  C   UNL     1       5.152   3.897  14.715  0.00  0.00    +0.000 A 
ATOM     16  C   UNL     1       4.775   4.080  16.047  0.00  0.00    +0.000 A 
BRANCH  14  17
ATOM     17  N   UNL     1       6.817   4.131  12.894  0.00  0.00    +0.000 N 
ATOM     18  O   UNL     1       6.279   3.214  12.256  0.00  0.00    +0.000 OA
ATOM     19  O   UNL     1       7.665   4.906  12.429  0.00  0.00    +0.000 OA
ENDBRANCH  14  17
ENDBRANCH   4  11
BRANCH   3  20
ATOM     20  C   UNL     1       3.630   6.750  18.017  0.00  0.00    +0.000 C 
ATOM     21  O   UNL     1       4.562   7.374  17.524  0.00  0.00    +0.000 OA
BRANCH  20  22
ATOM     22  O   UNL     1       2.358   7.187  18.089  0.00  0.00    +0.000 OA
BRANCH  22  23
ATOM     23  C   UNL     1       2.164   8.613  18.070  0.00  0.00    +0.000 C 
BRANCH  23  24
ATOM     24  C   UNL     1       1.348   9.003  19.275  0.00  0.00    +0.000 A 
ATOM     25  C   UNL     1       1.529   8.345  20.500  0.00  0.00    +0.000 A 
ATOM     26  C   UNL     1       0.748   8.682  21.608  0.00  0.00    +0.000 A 
ATOM     27  C   UNL     1      -0.217   9.682  21.502  0.00  0.00    +0.000 A 
ATOM     28  C   UNL     1      -0.393  10.356  20.294  0.00  0.00    +0.000 A 
ATOM     29  C   UNL     1       0.388  10.020  19.186  0.00  0.00    +0.000 A 
ENDBRANCH  23  24
ENDBRANCH  22  23
ENDBRANCH  20  22
ENDBRANCH   3  20
TORSDOF 6
ENDMDL
MODEL 8
REMARK VINA RESULT:      -7.1      2.515      6.322
REMARK  Name = 
REMARK  8 active torsions:
REMARK  status: ('A' for Active; 'I' for Inactive)
REMARK    1  A    between atoms: C_1  and  C_2
REMARK    2  A    between atoms: C_3  and  C_4
REMARK    3  A    between atoms: C_4  and  O_6
REMARK    4  A    between atoms: O_6  and  C_7
REMARK    5  A    between atoms: C_7  and  C_8
REMARK    6  A    between atoms: C_14  and  C_15
REMARK    7  A    between atoms: C_18  and  N_19
REMARK    8  A    between atoms: N_27  and  C_28
REMARK                            x       y       z     vdW  Elec       q    Type
REMARK                         _______ _______ _______ _____ _____    ______ ____
ROOT
ATOM      1  C   UNL     1       0.920   3.700  19.349  0.00  0.00    +0.000 C 
ATOM      2  C   UNL     1       2.429   3.770  19.400  0.00  0.00    +0.000 C 
ATOM      3  C   UNL     1       3.173   4.854  19.063  0.00  0.00    +0.000 C 
ATOM      4  C   UNL     1       4.679   4.823  19.121  0.00  0.00    +0.000 C 
ATOM      5  N   UNL     1       5.166   3.665  19.822  0.00  0.00    +0.000 N 
ATOM      6  C   UNL     1       4.459   2.536  20.062  0.00  0.00    +0.000 C 
ATOM      7  O   UNL     1       5.058   1.546  20.474  0.00  0.00    +0.000 OA
ATOM      8  N   UNL     1       3.088   2.605  19.846  0.00  0.00    +0.000 N 
ATOM      9  C   UNL     1       2.325   1.406  20.192  0.00  0.00    +0.000 C 
ATOM     10  H   UNL     1       6.162   3.560  19.956  0.00  0.00    +0.000 HD
ENDROOT
BRANCH   4  11
ATOM     11  C   UNL     1       5.330   4.892  17.744  0.00  0.00    +0.000 A 
ATOM     12  C   UNL     1       4.872   4.057  16.710  0.00  0.00    +0.000 A 
ATOM     13  C   UNL     1       5.475   4.086  15.450  0.00  0.00    +0.000 A 
ATOM     14  C   UNL     1       6.544   4.960  15.216  0.00  0.00    +0.000 A 
ATOM     15  C   UNL     1       7.005   5.809  16.230  0.00  0.00    +0.000 A 
ATOM     16  C   UNL     1       6.393   5.776  17.485  0.00  0.00    +0.000 A 
BRANCH  14  17
ATOM     17  N   UNL     1       7.193   4.982  13.900  0.00  0.00    +0.000 N 
ATOM     18  O   UNL     1       6.707   4.273  13.007  0.00  0.00    +0.000 OA
ATOM     19  O   UNL     1       8.189   5.706  13.758  0.00  0.00    +0.000 OA
ENDBRANCH  14  17
ENDBRANCH   4  11
BRANCH   3  20
ATOM     20  C   UNL     1       2.689   6.201  18.629  0.00  0.00    +0.000 C 
ATOM     21  O   UNL     1       2.212   6.388  17.517  0.00  0.00    +0.000 OA
BRANCH  20  22
ATOM     22  O   UNL     1       2.788   7.134  19.596  0.00  0.00    +0.000 OA
BRANCH  22  23
ATOM     23  C   UNL     1       1.805   7.080  20.646  0.00  0.00    +0.000 C 
BRANCH  23  24
ATOM     24  C   UNL     1       1.131   8.424  20.743  0.00  0.00    +0.000 A 
ATOM     25  C   UNL     1       0.488   8.814  21.927  0.00  0.00    +0.000 A 
ATOM     26  C   UNL     1      -0.167  10.045  22.005  0.00  0.00    +0.000 A 
ATOM     27  C   UNL     1      -0.181  10.898  20.902  0.00  0.00    +0.000 A 
ATOM     28  C   UNL     1       0.472  10.529  19.728  0.00  0.00    +0.000 A 
ATOM     29  C   UNL     1       1.127   9.299  19.649  0.00  0.00    +0.000 A 
ENDBRANCH  23  24
ENDBRANCH  22  23
ENDBRANCH  20  22
ENDBRANCH   3  20
TORSDOF 6
ENDMDL
MODEL 9
REMARK VINA RESULT:      -7.0      2.585      6.521
REMARK  Name = 
REMARK  8 active torsions:
REMARK  status: ('A' for Active; 'I' for Inactive)
REMARK    1  A    between atoms: C_1  and  C_2
REMARK    2  A    between atoms: C_3  and  C_4
REMARK    3  A    between atoms: C_4  and  O_6
REMARK    4  A    between atoms: O_6  and  C_7
REMARK    5  A    between atoms: C_7  and  C_8
REMARK    6  A    between atoms: C_14  and  C_15
REMARK    7  A    between atoms: C_18  and  N_19
REMARK    8  A    between atoms: N_27  and  C_28
REMARK                            x       y       z     vdW  Elec       q    Type
REMARK                         _______ _______ _______ _____ _____    ______ ____
ROOT
ATOM      1  C   UNL     1       1.550   5.074  19.278  0.00  0.00    +0.000 C 
ATOM      2  C   UNL     1       2.997   4.694  19.066  0.00  0.00    +0.000 C 
ATOM      3  C   UNL     1       3.929   5.470  18.457  0.00  0.00    +0.000 C 
ATOM      4  C   UNL     1       5.347   4.995  18.268  0.00  0.00    +0.000 C 
ATOM      5  N   UNL     1       5.625   3.812  19.037  0.00  0.00    +0.000 N 
ATOM      6  C   UNL     1       4.696   2.973  19.552  0.00  0.00    +0.000 C 
ATOM      7  O   UNL     1       5.067   1.890  19.997  0.00  0.00    +0.000 OA
ATOM      8  N   UNL     1       3.384   3.429  19.560  0.00  0.00    +0.000 N 
ATOM      9  C   UNL     1       2.404   2.550  20.196  0.00  0.00    +0.000 C 
ATOM     10  H   UNL     1       6.558   3.426  19.017  0.00  0.00    +0.000 HD
ENDROOT
BRANCH   4  11
ATOM     11  C   UNL     1       5.701   4.743  16.806  0.00  0.00    +0.000 A 
ATOM     12  C   UNL     1       4.768   4.123  15.957  0.00  0.00    +0.000 A 
ATOM     13  C   UNL     1       5.084   3.859  14.622  0.00  0.00    +0.000 A 
ATOM     14  C   UNL     1       6.343   4.219  14.127  0.00  0.00    +0.000 A 
ATOM     15  C   UNL     1       7.280   4.849  14.954  0.00  0.00    +0.000 A 
ATOM     16  C   UNL     1       6.953   5.114  16.286  0.00  0.00    +0.000 A 
BRANCH  14  17
ATOM     17  N   UNL     1       6.688   3.927  12.730  0.00  0.00    +0.000 N 
ATOM     18  O   UNL     1       7.538   4.647  12.185  0.00  0.00    +0.000 OA
ATOM     19  O   UNL     1       6.110   2.981  12.177  0.00  0.00    +0.000 OA
ENDBRANCH  14  17
ENDBRANCH   4  11
BRANCH   3  20
ATOM     20  C   UNL     1       3.761   6.856  17.921  0.00  0.00    +0.000 C 
ATOM     21  O   UNL     1       4.696   7.479  17.435  0.00  0.00    +0.000 OA
BRANCH  20  22
ATOM     22  O   UNL     1       2.488   7.295  17.983  0.00  0.00    +0.000 OA
BRANCH  22  23
ATOM     23  C   UNL     1       2.280   8.702  17.768  0.00  0.00    +0.000 C 
BRANCH  23  24
ATOM     24  C   UNL     1       1.222   9.183  18.727  0.00  0.00    +0.000 A 
ATOM     25  C   UNL     1       0.147   9.961  18.270  0.00  0.00    +0.000 A 
ATOM     26  C   UNL     1      -0.813  10.437  19.164  0.00  0.00    +0.000 A 
ATOM     27  C   UNL     1      -0.712  10.136  20.522  0.00  0.00    +0.000 A 
ATOM     28  C   UNL     1       0.340   9.348  20.984  0.00  0.00    +0.000 A 
ATOM     29  C   UNL     1       1.302   8.872  20.091  0.00  0.00    +0.000 A 
ENDBRANCH  23  24
ENDBRANCH  22  23
ENDBRANCH  20  22
ENDBRANCH   3  20
TORSDOF 6
ENDMDL
