MODEL 1
REMARK VINA RESULT:      -8.3      0.000      0.000
REMARK  Name = 
REMARK  7 active torsions:
REMARK  status: ('A' for Active; 'I' for Inactive)
REMARK    1  A    between atoms: C_1  and  O_2
REMARK    2  A    between atoms: O_2  and  C_3
REMARK    3  A    between atoms: C_6  and  C_7
REMARK    4  A    between atoms: N_9  and  C_10
REMARK    5  A    between atoms: N_14  and  C_15
REMARK    6  A    between atoms: C_15  and  C_16
REMARK    7  A    between atoms: C_28  and  O_29
REMARK                            x       y       z     vdW  Elec       q    Type
REMARK                         _______ _______ _______ _____ _____    ______ ____
ROOT
ATOM      1  C   UNL     1       4.084   3.925  18.740  0.00  0.00    +0.000 C 
ATOM      2  C   UNL     1       2.793   3.116  18.930  0.00  0.00    +0.000 C 
ATOM      3  C   UNL     1       1.822   4.074  19.596  0.00  0.00    +0.000 C 
ATOM      4  O   UNL     1       0.660   3.806  19.849  0.00  0.00    +0.000 OA
ATOM      5  N   UNL     1       2.504   5.233  19.912  0.00  0.00    +0.000 N 
ATOM      6  C   UNL     1       3.921   5.085  19.729  0.00  0.00    +0.000 C 
ENDROOT
BRANCH   1   9
ATOM      7  C   UNL     1       5.640   4.560  16.925  0.00  0.00    +0.000 C 
ATOM      8  O   UNL     1       6.577   4.689  17.709  0.00  0.00    +0.000 OA
ATOM      9  N   UNL     1       4.333   4.322  17.345  0.00  0.00    +0.000 N 
ATOM     10  H   UNL     1       3.718   3.912  16.654  0.00  0.00    +0.000 HD
BRANCH   7  14
ATOM     11  C   UNL     1       6.883   4.193  12.819  0.00  0.00    +0.000 A 
ATOM     12  C   UNL     1       5.711   3.555  13.258  0.00  0.00    +0.000 A 
ATOM     13  C   UNL     1       5.238   3.695  14.568  0.00  0.00    +0.000 A 
ATOM     14  C   UNL     1       5.932   4.507  15.462  0.00  0.00    +0.000 A 
ATOM     15  C   UNL     1       7.028   5.249  14.997  0.00  0.00    +0.000 A 
ATOM     16  C   UNL     1       7.525   5.065  13.698  0.00  0.00    +0.000 A 
BRANCH  11  18
ATOM     17  C   UNL     1       7.291   2.442  11.188  0.00  0.00    +0.000 C 
ATOM     18  O   UNL     1       7.234   3.810  11.557  0.00  0.00    +0.000 OA
ENDBRANCH  11  18
BRANCH  16  19
ATOM     19  O   UNL     1       8.666   5.731  13.354  0.00  0.00    +0.000 OA
ATOM     20  H   UNL     1       8.943   6.273  14.114  0.00  0.00    +0.000 HD
ENDBRANCH  16  19
ENDBRANCH   7  14
ENDBRANCH   1   9
BRANCH   5  21
ATOM     21  C   UNL     1       1.983   6.312  20.738  0.00  0.00    +0.000 C 
BRANCH  21  22
ATOM     22  C   UNL     1       1.782   7.616  19.993  0.00  0.00    +0.000 A 
ATOM     23  C   UNL     1       2.325   7.666  18.693  0.00  0.00    +0.000 A 
ATOM     24  C   UNL     1       2.157   8.775  17.878  0.00  0.00    +0.000 A 
ATOM     25  C   UNL     1       1.440   9.866  18.348  0.00  0.00    +0.000 A 
ATOM     26  C   UNL     1       0.898   9.872  19.640  0.00  0.00    +0.000 A 
ATOM     27  C   UNL     1       0.177  11.004  20.055  0.00  0.00    +0.000 A 
ATOM     28  C   UNL     1      -0.387  11.069  21.322  0.00  0.00    +0.000 A 
ATOM     29  C   UNL     1      -0.238   9.995  22.189  0.00  0.00    +0.000 A 
ATOM     30  C   UNL     1       0.475   8.851  21.785  0.00  0.00    +0.000 A 
ATOM     31  C   UNL     1       1.060   8.748  20.497  0.00  0.00    +0.000 A 
ENDBRANCH  21  22
ENDBRANCH   5  21
TORSDOF 6
ENDMDL
MODEL 2
REMARK VINA RESULT:      -8.3      1.381      1.821
REMARK  Name = 
REMARK  7 active torsions:
REMARK  status: ('A' for Active; 'I' for Inactive)
REMARK    1  A    between atoms: C_1  and  O_2
REMARK    2  A    between atoms: O_2  and  C_3
REMARK    3  A    between atoms: C_6  and  C_7
REMARK    4  A    between atoms: N_9  and  C_10
REMARK    5  A    between atoms: N_14  and  C_15
REMARK    6  A    between atoms: C_15  and  C_16
REMARK    7  A    between atoms: C_28  and  O_29
REMARK                            x       y       z     vdW  Elec       q    Type
REMARK                         _______ _______ _______ _____ _____    ______ ____
ROOT
ATOM      1  C   UNL     1       3.766   2.371  19.359  0.00  0.00    +0.000 C 
ATOM      2  C   UNL     1       2.302   2.058  19.016  0.00  0.00    +0.000 C 
ATOM      3  C   UNL     1       1.526   3.289  19.445  0.00  0.00    +0.000 C 
ATOM      4  O   UNL     1       0.328   3.440  19.271  0.00  0.00    +0.000 OA
ATOM      5  N   UNL     1       2.391   4.139  20.107  0.00  0.00    +0.000 N 
ATOM      6  C   UNL     1       3.654   3.510  20.378  0.00  0.00    +0.000 C 
ENDROOT
BRANCH   1   9
ATOM      7  C   UNL     1       4.064   3.406  17.133  0.00  0.00    +0.000 C 
ATOM      8  O   UNL     1       2.861   3.631  17.024  0.00  0.00    +0.000 OA
ATOM      9  N   UNL     1       4.600   2.663  18.182  0.00  0.00    +0.000 N 
ATOM     10  H   UNL     1       5.584   2.809  18.365  0.00  0.00    +0.000 HD
BRANCH   7  14
ATOM     11  C   UNL     1       7.128   5.187  14.687  0.00  0.00    +0.000 A 
ATOM     12  C   UNL     1       6.299   4.185  14.156  0.00  0.00    +0.000 A 
ATOM     13  C   UNL     1       5.253   3.620  14.895  0.00  0.00    +0.000 A 
ATOM     14  C   UNL     1       5.006   4.076  16.189  0.00  0.00    +0.000 A 
ATOM     15  C   UNL     1       5.745   5.164  16.679  0.00  0.00    +0.000 A 
ATOM     16  C   UNL     1       6.823   5.690  15.951  0.00  0.00    +0.000 A 
BRANCH  11  18
ATOM     17  C   UNL     1       8.008   5.469  12.443  0.00  0.00    +0.000 C 
ATOM     18  O   UNL     1       8.163   5.493  13.852  0.00  0.00    +0.000 OA
ENDBRANCH  11  18
BRANCH  16  19
ATOM     19  O   UNL     1       7.571   6.668  16.543  0.00  0.00    +0.000 OA
ATOM     20  H   UNL     1       7.472   7.484  16.021  0.00  0.00    +0.000 HD
ENDBRANCH  16  19
ENDBRANCH   7  14
ENDBRANCH   1   9
BRANCH   5  21
ATOM     21  C   UNL     1       1.994   5.328  20.847  0.00  0.00    +0.000 C 
BRANCH  21  22
ATOM     22  C   UNL     1       2.037   6.604  20.032  0.00  0.00    +0.000 A 
ATOM     23  C   UNL     1       2.756   6.530  18.821  0.00  0.00    +0.000 A 
ATOM     24  C   UNL     1       2.820   7.605  17.948  0.00  0.00    +0.000 A 
ATOM     25  C   UNL     1       2.167   8.787  18.270  0.00  0.00    +0.000 A 
ATOM     26  C   UNL     1       1.457   8.915  19.470  0.00  0.00    +0.000 A 
ATOM     27  C   UNL     1       0.811  10.135  19.735  0.00  0.00    +0.000 A 
ATOM     28  C   UNL     1       0.089  10.324  20.906  0.00  0.00    +0.000 A 
ATOM     29  C   UNL     1       0.002   9.288  21.826  0.00  0.00    +0.000 A 
ATOM     30  C   UNL     1       0.637   8.057  21.571  0.00  0.00    +0.000 A 
ATOM     31  C   UNL     1       1.379   7.828  20.385  0.00  0.00    +0.000 A 
ENDBRANCH  21  22
ENDBRANCH   5  21
TORSDOF 6
ENDMDL
MODEL 3
REMARK VINA RESULT:      -8.3      3.107      9.035
REMARK  Name = 
REMARK  7 active torsions:
REMARK  status: ('A' for Active; 'I' for Inactive)
REMARK    1  A    between atoms: C_1  and  O_2
REMARK    2  A    between atoms: O_2  and  C_3
REMARK    3  A    between atoms: C_6  and  C_7
REMARK    4  A    between atoms: N_9  and  C_10
REMARK    5  A    between atoms: N_14  and  C_15
REMARK    6  A    between atoms: C_15  and  C_16
REMARK    7  A    between atoms: C_28  and  O_29
REMARK                            x       y       z     vdW  Elec       q    Type
REMARK                         _______ _______ _______ _____ _____    ______ ____
ROOT
ATOM      1  C   UNL     1       1.839   5.549  19.568  0.00  0.00    +0.000 C 
ATOM      2  C   UNL     1       1.469   4.204  20.210  0.00  0.00    +0.000 C 
ATOM      3  C   UNL     1       2.786   3.464  20.360  0.00  0.00    +0.000 C 
ATOM      4  O   UNL     1       2.904   2.375  20.895  0.00  0.00    +0.000 OA
ATOM      5  N   UNL     1       3.772   4.202  19.732  0.00  0.00    +0.000 N 
ATOM      6  C   UNL     1       3.222   5.282  18.962  0.00  0.00    +0.000 C 
ENDROOT
BRANCH   1   9
ATOM      7  C   UNL     1       1.623   7.976  19.992  0.00  0.00    +0.000 C 
ATOM      8  O   UNL     1       1.783   8.246  18.804  0.00  0.00    +0.000 OA
ATOM      9  N   UNL     1       1.772   6.687  20.498  0.00  0.00    +0.000 N 
ATOM     10  H   UNL     1       1.313   6.507  21.382  0.00  0.00    +0.000 HD
BRANCH   7  14
ATOM     11  C   UNL     1      -0.264  11.025  22.375  0.00  0.00    +0.000 A 
ATOM     12  C   UNL     1       0.119   9.809  22.965  0.00  0.00    +0.000 A 
ATOM     13  C   UNL     1       0.789   8.814  22.243  0.00  0.00    +0.000 A 
ATOM     14  C   UNL     1       1.106   9.038  20.905  0.00  0.00    +0.000 A 
ATOM     15  C   UNL     1       0.843  10.297  20.344  0.00  0.00    +0.000 A 
ATOM     16  C   UNL     1       0.129  11.270  21.060  0.00  0.00    +0.000 A 
BRANCH  11  18
ATOM     17  C   UNL     1      -2.429  11.878  23.066  0.00  0.00    +0.000 C 
ATOM     18  O   UNL     1      -1.022  11.787  23.216  0.00  0.00    +0.000 OA
ENDBRANCH  11  18
BRANCH  16  19
ATOM     19  O   UNL     1      -0.195  12.426  20.409  0.00  0.00    +0.000 OA
ATOM     20  H   UNL     1      -1.055  12.298  19.970  0.00  0.00    +0.000 HD
ENDBRANCH  16  19
ENDBRANCH   7  14
ENDBRANCH   1   9
BRANCH   5  21
ATOM     21  C   UNL     1       5.129   3.740  19.478  0.00  0.00    +0.000 C 
BRANCH  21  22
ATOM     22  C   UNL     1       5.945   4.673  18.608  0.00  0.00    +0.000 A 
ATOM     23  C   UNL     1       6.749   5.603  19.298  0.00  0.00    +0.000 A 
ATOM     24  C   UNL     1       7.594   6.473  18.626  0.00  0.00    +0.000 A 
ATOM     25  C   UNL     1       7.654   6.433  17.240  0.00  0.00    +0.000 A 
ATOM     26  C   UNL     1       6.860   5.540  16.509  0.00  0.00    +0.000 A 
ATOM     27  C   UNL     1       6.971   5.544  15.108  0.00  0.00    +0.000 A 
ATOM     28  C   UNL     1       6.213   4.681  14.327  0.00  0.00    +0.000 A 
ATOM     29  C   UNL     1       5.336   3.799  14.944  0.00  0.00    +0.000 A 
ATOM     30  C   UNL     1       5.220   3.778  16.347  0.00  0.00    +0.000 A 
ATOM     31  C   UNL     1       5.981   4.641  17.175  0.00  0.00    +0.000 A 
ENDBRANCH  21  22
ENDBRANCH   5  21
TORSDOF 6
ENDMDL
MODEL 4
REMARK VINA RESULT:      -8.2      4.746      7.205
REMARK  Name = 
REMARK  7 active torsions:
REMARK  status: ('A' for Active; 'I' for Inactive)
REMARK    1  A    between atoms: C_1  and  O_2
REMARK    2  A    between atoms: O_2  and  C_3
REMARK    3  A    between atoms: C_6  and  C_7
REMARK    4  A    between atoms: N_9  and  C_10
REMARK    5  A    between atoms: N_14  and  C_15
REMARK    6  A    between atoms: C_15  and  C_16
REMARK    7  A    between atoms: C_28  and  O_29
REMARK                            x       y       z     vdW  Elec       q    Type
REMARK                         _______ _______ _______ _____ _____    ______ ____
ROOT
ATOM      1  C   UNL     1       7.453   5.848  18.736  0.00  0.00    +0.000 C 
ATOM      2  C   UNL     1       7.495   5.103  17.394  0.00  0.00    +0.000 C 
ATOM      3  C   UNL     1       6.170   5.422  16.726  0.00  0.00    +0.000 C 
ATOM      4  O   UNL     1       5.862   5.055  15.605  0.00  0.00    +0.000 OA
ATOM      5  N   UNL     1       5.386   6.117  17.627  0.00  0.00    +0.000 N 
ATOM      6  C   UNL     1       5.959   6.118  18.944  0.00  0.00    +0.000 C 
ENDROOT
BRANCH   1   9
ATOM      7  C   UNL     1       8.004   8.138  17.980  0.00  0.00    +0.000 C 
ATOM      8  O   UNL     1       7.185   8.084  17.065  0.00  0.00    +0.000 OA
ATOM      9  N   UNL     1       8.316   7.040  18.778  0.00  0.00    +0.000 N 
ATOM     10  H   UNL     1       8.729   7.254  19.677  0.00  0.00    +0.000 HD
BRANCH   7  14
ATOM     11  C   UNL     1       9.222  12.113  19.099  0.00  0.00    +0.000 A 
ATOM     12  C   UNL     1       9.595  11.015  19.891  0.00  0.00    +0.000 A 
ATOM     13  C   UNL     1       9.272   9.700  19.534  0.00  0.00    +0.000 A 
ATOM     14  C   UNL     1       8.579   9.465  18.349  0.00  0.00    +0.000 A 
ATOM     15  C   UNL     1       8.317  10.543  17.489  0.00  0.00    +0.000 A 
ATOM     16  C   UNL     1       8.600  11.861  17.877  0.00  0.00    +0.000 A 
BRANCH  11  18
ATOM     17  C   UNL     1      10.815  13.582  20.195  0.00  0.00    +0.000 C 
ATOM     18  O   UNL     1       9.515  13.302  19.700  0.00  0.00    +0.000 OA
ENDBRANCH  11  18
BRANCH  16  19
ATOM     19  O   UNL     1       8.208  12.867  17.041  0.00  0.00    +0.000 OA
ATOM     20  H   UNL     1       8.043  13.662  17.578  0.00  0.00    +0.000 HD
ENDBRANCH  16  19
ENDBRANCH   7  14
ENDBRANCH   1   9
BRANCH   5  21
ATOM     21  C   UNL     1       3.976   6.428  17.443  0.00  0.00    +0.000 C 
BRANCH  21  22
ATOM     22  C   UNL     1       3.072   5.851  18.513  0.00  0.00    +0.000 A 
ATOM     23  C   UNL     1       2.658   6.754  19.513  0.00  0.00    +0.000 A 
ATOM     24  C   UNL     1       1.778   6.374  20.515  0.00  0.00    +0.000 A 
ATOM     25  C   UNL     1       1.292   5.074  20.541  0.00  0.00    +0.000 A 
ATOM     26  C   UNL     1       1.690   4.136  19.580  0.00  0.00    +0.000 A 
ATOM     27  C   UNL     1       1.158   2.837  19.657  0.00  0.00    +0.000 A 
ATOM     28  C   UNL     1       1.510   1.863  18.733  0.00  0.00    +0.000 A 
ATOM     29  C   UNL     1       2.401   2.180  17.716  0.00  0.00    +0.000 A 
ATOM     30  C   UNL     1       2.936   3.479  17.622  0.00  0.00    +0.000 A 
ATOM     31  C   UNL     1       2.595   4.500  18.545  0.00  0.00    +0.000 A 
ENDBRANCH  21  22
ENDBRANCH   5  21
TORSDOF 6
ENDMDL
MODEL 5
REMARK VINA RESULT:      -8.2      4.249      6.742
REMARK  Name = 
REMARK  7 active torsions:
REMARK  status: ('A' for Active; 'I' for Inactive)
REMARK    1  A    between atoms: C_1  and  O_2
REMARK    2  A    between atoms: O_2  and  C_3
REMARK    3  A    between atoms: C_6  and  C_7
REMARK    4  A    between atoms: N_9  and  C_10
REMARK    5  A    between atoms: N_14  and  C_15
REMARK    6  A    between atoms: C_15  and  C_16
REMARK    7  A    between atoms: C_28  and  O_29
REMARK                            x       y       z     vdW  Elec       q    Type
REMARK                         _______ _______ _______ _____ _____    ______ ____
ROOT
ATOM      1  C   UNL     1       1.335   9.252  21.995  0.00  0.00    +0.000 C 
ATOM      2  C   UNL     1       0.340   9.548  23.127  0.00  0.00    +0.000 C 
ATOM      3  C   UNL     1      -0.687  10.482  22.512  0.00  0.00    +0.000 C 
ATOM      4  O   UNL     1      -1.679  10.888  23.094  0.00  0.00    +0.000 OA
ATOM      5  N   UNL     1      -0.258  10.825  21.244  0.00  0.00    +0.000 N 
ATOM      6  C   UNL     1       1.090  10.393  21.002  0.00  0.00    +0.000 C 
ENDROOT
BRANCH   1   9
ATOM      7  C   UNL     1       1.787   7.609  20.203  0.00  0.00    +0.000 C 
ATOM      8  O   UNL     1       2.196   8.482  19.441  0.00  0.00    +0.000 OA
ATOM      9  N   UNL     1       1.208   7.896  21.436  0.00  0.00    +0.000 N 
ATOM     10  H   UNL     1       1.210   7.140  22.109  0.00  0.00    +0.000 HD
BRANCH   7  14
ATOM     11  C   UNL     1       2.098   3.451  19.128  0.00  0.00    +0.000 A 
ATOM     12  C   UNL     1       2.796   4.421  18.390  0.00  0.00    +0.000 A 
ATOM     13  C   UNL     1       2.772   5.777  18.740  0.00  0.00    +0.000 A 
ATOM     14  C   UNL     1       2.053   6.180  19.863  0.00  0.00    +0.000 A 
ATOM     15  C   UNL     1       1.461   5.203  20.679  0.00  0.00    +0.000 A 
ATOM     16  C   UNL     1       1.449   3.854  20.295  0.00  0.00    +0.000 A 
BRANCH  11  18
ATOM     17  C   UNL     1       3.272   1.809  17.780  0.00  0.00    +0.000 C 
ATOM     18  O   UNL     1       2.145   2.223  18.535  0.00  0.00    +0.000 OA
ENDBRANCH  11  18
BRANCH  16  19
ATOM     19  O   UNL     1       0.750   2.978  21.076  0.00  0.00    +0.000 OA
ATOM     20  H   UNL     1      -0.189   3.031  20.828  0.00  0.00    +0.000 HD
ENDBRANCH  16  19
ENDBRANCH   7  14
ENDBRANCH   1   9
BRANCH   5  21
ATOM     21  C   UNL     1      -0.857  11.856  20.409  0.00  0.00    +0.000 C 
BRANCH  21  22
ATOM     22  C   UNL     1      -1.656  11.316  19.241  0.00  0.00    +0.000 A 
ATOM     23  C   UNL     1      -0.962  10.442  18.379  0.00  0.00    +0.000 A 
ATOM     24  C   UNL     1      -1.592   9.825  17.309  0.00  0.00    +0.000 A 
ATOM     25  C   UNL     1      -2.937  10.073  17.073  0.00  0.00    +0.000 A 
ATOM     26  C   UNL     1      -3.664  10.949  17.889  0.00  0.00    +0.000 A 
ATOM     27  C   UNL     1      -5.024  11.153  17.602  0.00  0.00    +0.000 A 
ATOM     28  C   UNL     1      -5.799  12.007  18.375  0.00  0.00    +0.000 A 
ATOM     29  C   UNL     1      -5.219  12.665  19.451  0.00  0.00    +0.000 A 
ATOM     30  C   UNL     1      -3.859  12.465  19.756  0.00  0.00    +0.000 A 
ATOM     31  C   UNL     1      -3.039  11.597  18.991  0.00  0.00    +0.000 A 
ENDBRANCH  21  22
ENDBRANCH   5  21
TORSDOF 6
ENDMDL
MODEL 6
REMARK VINA RESULT:      -8.1      2.855      7.597
REMARK  Name = 
REMARK  7 active torsions:
REMARK  status: ('A' for Active; 'I' for Inactive)
REMARK    1  A    between atoms: C_1  and  O_2
REMARK    2  A    between atoms: O_2  and  C_3
REMARK    3  A    between atoms: C_6  and  C_7
REMARK    4  A    between atoms: N_9  and  C_10
REMARK    5  A    between atoms: N_14  and  C_15
REMARK    6  A    between atoms: C_15  and  C_16
REMARK    7  A    between atoms: C_28  and  O_29
REMARK                            x       y       z     vdW  Elec       q    Type
REMARK                         _______ _______ _______ _____ _____    ______ ____
ROOT
ATOM      1  C   UNL     1       1.948   3.830  20.132  0.00  0.00    +0.000 C 
ATOM      2  C   UNL     1       2.815   2.947  21.042  0.00  0.00    +0.000 C 
ATOM      3  C   UNL     1       4.015   2.568  20.194  0.00  0.00    +0.000 C 
ATOM      4  O   UNL     1       4.964   1.918  20.600  0.00  0.00    +0.000 OA
ATOM      5  N   UNL     1       3.799   3.022  18.907  0.00  0.00    +0.000 N 
ATOM      6  C   UNL     1       2.453   3.489  18.726  0.00  0.00    +0.000 C 
ENDROOT
BRANCH   1   9
ATOM      7  C   UNL     1       2.371   6.188  19.519  0.00  0.00    +0.000 C 
ATOM      8  O   UNL     1       2.907   5.867  18.462  0.00  0.00    +0.000 OA
ATOM      9  N   UNL     1       1.988   5.259  20.483  0.00  0.00    +0.000 N 
ATOM     10  H   UNL     1       1.282   5.571  21.138  0.00  0.00    +0.000 HD
BRANCH   7  14
ATOM     11  C   UNL     1       0.908  10.230  19.775  0.00  0.00    +0.000 A 
ATOM     12  C   UNL     1       0.856   9.391  20.901  0.00  0.00    +0.000 A 
ATOM     13  C   UNL     1       1.374   8.091  20.880  0.00  0.00    +0.000 A 
ATOM     14  C   UNL     1       1.979   7.615  19.719  0.00  0.00    +0.000 A 
ATOM     15  C   UNL     1       2.152   8.489  18.634  0.00  0.00    +0.000 A 
ATOM     16  C   UNL     1       1.587   9.772  18.646  0.00  0.00    +0.000 A 
BRANCH  11  18
ATOM     17  C   UNL     1       0.895  12.593  20.331  0.00  0.00    +0.000 C 
ATOM     18  O   UNL     1       0.226  11.395  19.971  0.00  0.00    +0.000 OA
ENDBRANCH  11  18
BRANCH  16  19
ATOM     19  O   UNL     1       1.692  10.523  17.509  0.00  0.00    +0.000 OA
ATOM     20  H   UNL     1       2.273  11.280  17.697  0.00  0.00    +0.000 HD
ENDBRANCH  16  19
ENDBRANCH   7  14
ENDBRANCH   1   9
BRANCH   5  21
ATOM     21  C   UNL     1       4.617   2.685  17.752  0.00  0.00    +0.000 C 
BRANCH  21  22
ATOM     22  C   UNL     1       5.209   3.886  17.044  0.00  0.00    +0.000 A 
ATOM     23  C   UNL     1       4.762   4.098  15.724  0.00  0.00    +0.000 A 
ATOM     24  C   UNL     1       5.173   5.196  14.985  0.00  0.00    +0.000 A 
ATOM     25  C   UNL     1       6.049   6.112  15.551  0.00  0.00    +0.000 A 
ATOM     26  C   UNL     1       6.536   5.935  16.853  0.00  0.00    +0.000 A 
ATOM     27  C   UNL     1       7.415   6.901  17.372  0.00  0.00    +0.000 A 
ATOM     28  C   UNL     1       7.930   6.783  18.656  0.00  0.00    +0.000 A 
ATOM     29  C   UNL     1       7.567   5.695  19.438  0.00  0.00    +0.000 A 
ATOM     30  C   UNL     1       6.681   4.724  18.934  0.00  0.00    +0.000 A 
ATOM     31  C   UNL     1       6.132   4.814  17.630  0.00  0.00    +0.000 A 
ENDBRANCH  21  22
ENDBRANCH   5  21
TORSDOF 6
ENDMDL
MODEL 7
REMARK VINA RESULT:      -8.1      2.859      8.344
REMARK  Name = 
REMARK  7 active torsions:
REMARK  status: ('A' for Active; 'I' for Inactive)
REMARK    1  A    between atoms: C_1  and  O_2
REMARK    2  A    between atoms: O_2  and  C_3
REMARK    3  A    between atoms: C_6  and  C_7
REMARK    4  A    between atoms: N_9  and  C_10
REMARK    5  A    between atoms: N_14  and  C_15
REMARK    6  A    between atoms: C_15  and  C_16
REMARK    7  A    between atoms: C_28  and  O_29
REMARK                            x       y       z     vdW  Elec       q    Type
REMARK                         _______ _______ _______ _____ _____    ______ ____
ROOT
ATOM      1  C   UNL     1       1.338   4.349  20.535  0.00  0.00    +0.000 C 
ATOM      2  C   UNL     1       2.005   3.356  21.498  0.00  0.00    +0.000 C 
ATOM      3  C   UNL     1       3.245   2.873  20.768  0.00  0.00    +0.000 C 
ATOM      4  O   UNL     1       4.071   2.115  21.248  0.00  0.00    +0.000 OA
ATOM      5  N   UNL     1       3.217   3.380  19.483  0.00  0.00    +0.000 N 
ATOM      6  C   UNL     1       1.954   3.993  19.178  0.00  0.00    +0.000 C 
ENDROOT
BRANCH   1   9
ATOM      7  C   UNL     1       1.890   6.699  19.998  0.00  0.00    +0.000 C 
ATOM      8  O   UNL     1       2.360   6.389  18.906  0.00  0.00    +0.000 OA
ATOM      9  N   UNL     1       1.486   5.757  20.940  0.00  0.00    +0.000 N 
ATOM     10  H   UNL     1       0.831   6.086  21.637  0.00  0.00    +0.000 HD
BRANCH   7  14
ATOM     11  C   UNL     1       0.656  10.786  20.560  0.00  0.00    +0.000 A 
ATOM     12  C   UNL     1       0.862   9.955  21.674  0.00  0.00    +0.000 A 
ATOM     13  C   UNL     1       1.320   8.639  21.541  0.00  0.00    +0.000 A 
ATOM     14  C   UNL     1       1.603   8.138  20.272  0.00  0.00    +0.000 A 
ATOM     15  C   UNL     1       1.524   9.001  19.168  0.00  0.00    +0.000 A 
ATOM     16  C   UNL     1       1.018  10.302  19.303  0.00  0.00    +0.000 A 
BRANCH  11  18
ATOM     17  C   UNL     1       0.844  13.161  21.026  0.00  0.00    +0.000 C 
ATOM     18  O   UNL     1       0.079  11.973  20.906  0.00  0.00    +0.000 OA
ENDBRANCH  11  18
BRANCH  16  19
ATOM     19  O   UNL     1       0.858  11.043  18.167  0.00  0.00    +0.000 OA
ATOM     20  H   UNL     1      -0.096  11.130  17.993  0.00  0.00    +0.000 HD
ENDBRANCH  16  19
ENDBRANCH   7  14
ENDBRANCH   1   9
BRANCH   5  21
ATOM     21  C   UNL     1       4.117   2.988  18.408  0.00  0.00    +0.000 C 
BRANCH  21  22
ATOM     22  C   UNL     1       5.183   4.016  18.090  0.00  0.00    +0.000 A 
ATOM     23  C   UNL     1       5.690   4.730  19.195  0.00  0.00    +0.000 A 
ATOM     24  C   UNL     1       6.715   5.653  19.055  0.00  0.00    +0.000 A 
ATOM     25  C   UNL     1       7.257   5.887  17.798  0.00  0.00    +0.000 A 
ATOM     26  C   UNL     1       6.773   5.217  16.668  0.00  0.00    +0.000 A 
ATOM     27  C   UNL     1       7.367   5.493  15.424  0.00  0.00    +0.000 A 
ATOM     28  C   UNL     1       6.934   4.859  14.267  0.00  0.00    +0.000 A 
ATOM     29  C   UNL     1       5.900   3.936  14.343  0.00  0.00    +0.000 A 
ATOM     30  C   UNL     1       5.300   3.643  15.583  0.00  0.00    +0.000 A 
ATOM     31  C   UNL     1       5.719   4.268  16.785  0.00  0.00    +0.000 A 
ENDBRANCH  21  22
ENDBRANCH   5  21
TORSDOF 6
ENDMDL
MODEL 8
REMARK VINA RESULT:      -8.0      3.148      8.069
REMARK  Name = 
REMARK  7 active torsions:
REMARK  status: ('A' for Active; 'I' for Inactive)
REMARK    1  A    between atoms: C_1  and  O_2
REMARK    2  A    between atoms: O_2  and  C_3
REMARK    3  A    between atoms: C_6  and  C_7
REMARK    4  A    between atoms: N_9  and  C_10
REMARK    5  A    between atoms: N_14  and  C_15
REMARK    6  A    between atoms: C_15  and  C_16
REMARK    7  A    between atoms: C_28  and  O_29
REMARK                            x       y       z     vdW  Elec       q    Type
REMARK                         _______ _______ _______ _____ _____    ______ ____
ROOT
ATOM      1  C   UNL     1       1.489   4.470  20.285  0.00  0.00    +0.000 C 
ATOM      2  C   UNL     1       1.800   3.420  21.361  0.00  0.00    +0.000 C 
ATOM      3  C   UNL     1       3.147   2.841  20.968  0.00  0.00    +0.000 C 
ATOM      4  O   UNL     1       3.756   2.015  21.627  0.00  0.00    +0.000 OA
ATOM      5  N   UNL     1       3.498   3.357  19.736  0.00  0.00    +0.000 N 
ATOM      6  C   UNL     1       2.411   4.073  19.128  0.00  0.00    +0.000 C 
ENDROOT
BRANCH   1   9
ATOM      7  C   UNL     1       1.901   6.866  19.831  0.00  0.00    +0.000 C 
ATOM      8  O   UNL     1       2.259   6.635  18.678  0.00  0.00    +0.000 OA
ATOM      9  N   UNL     1       1.634   5.858  20.754  0.00  0.00    +0.000 N 
ATOM     10  H   UNL     1       1.048   6.122  21.535  0.00  0.00    +0.000 HD
BRANCH   7  14
ATOM     11  C   UNL     1       0.616  10.877  20.727  0.00  0.00    +0.000 A 
ATOM     12  C   UNL     1       0.866   9.970  21.770  0.00  0.00    +0.000 A 
ATOM     13  C   UNL     1       1.342   8.676  21.527  0.00  0.00    +0.000 A 
ATOM     14  C   UNL     1       1.598   8.275  20.218  0.00  0.00    +0.000 A 
ATOM     15  C   UNL     1       1.474   9.216  19.183  0.00  0.00    +0.000 A 
ATOM     16  C   UNL     1       0.951  10.494  19.428  0.00  0.00    +0.000 A 
BRANCH  11  18
ATOM     17  C   UNL     1      -0.802  12.031  22.324  0.00  0.00    +0.000 C 
ATOM     18  O   UNL     1       0.029  12.024  21.174  0.00  0.00    +0.000 OA
ENDBRANCH  11  18
BRANCH  16  19
ATOM     19  O   UNL     1       0.747  11.313  18.355  0.00  0.00    +0.000 OA
ATOM     20  H   UNL     1       0.180  10.844  17.717  0.00  0.00    +0.000 HD
ENDBRANCH  16  19
ENDBRANCH   7  14
ENDBRANCH   1   9
BRANCH   5  21
ATOM     21  C   UNL     1       4.616   2.898  18.925  0.00  0.00    +0.000 C 
BRANCH  21  22
ATOM     22  C   UNL     1       5.092   3.910  17.902  0.00  0.00    +0.000 A 
ATOM     23  C   UNL     1       4.446   3.860  16.650  0.00  0.00    +0.000 A 
ATOM     24  C   UNL     1       4.738   4.769  15.645  0.00  0.00    +0.000 A 
ATOM     25  C   UNL     1       5.690   5.754  15.871  0.00  0.00    +0.000 A 
ATOM     26  C   UNL     1       6.372   5.832  17.092  0.00  0.00    +0.000 A 
ATOM     27  C   UNL     1       7.320   6.856  17.261  0.00  0.00    +0.000 A 
ATOM     28  C   UNL     1       8.027   6.988  18.449  0.00  0.00    +0.000 A 
ATOM     29  C   UNL     1       7.789   6.096  19.485  0.00  0.00    +0.000 A 
ATOM     30  C   UNL     1       6.837   5.070  19.333  0.00  0.00    +0.000 A 
ATOM     31  C   UNL     1       6.094   4.907  18.137  0.00  0.00    +0.000 A 
ENDBRANCH  21  22
ENDBRANCH   5  21
TORSDOF 6
ENDMDL
MODEL 9
REMARK VINA RESULT:      -7.9      2.895      8.433
REMARK  Name = 
REMARK  7 active torsions:
REMARK  status: ('A' for Active; 'I' for Inactive)
REMARK    1  A    between atoms: C_1  and  O_2
REMARK    2  A    between atoms: O_2  and  C_3
REMARK    3  A    between atoms: C_6  and  C_7
REMARK    4  A    between atoms: N_9  and  C_10
REMARK    5  A    between atoms: N_14  and  C_15
REMARK    6  A    between atoms: C_15  and  C_16
REMARK    7  A    between atoms: C_28  and  O_29
REMARK                            x       y       z     vdW  Elec       q    Type
REMARK                         _______ _______ _______ _____ _____    ______ ____
ROOT
ATOM      1  C   UNL     1       1.270   4.180  20.494  0.00  0.00    +0.000 C 
ATOM      2  C   UNL     1       1.967   3.209  21.458  0.00  0.00    +0.000 C 
ATOM      3  C   UNL     1       3.233   2.780  20.738  0.00  0.00    +0.000 C 
ATOM      4  O   UNL     1       4.084   2.053  21.222  0.00  0.00    +0.000 OA
ATOM      5  N   UNL     1       3.197   3.294  19.456  0.00  0.00    +0.000 N 
ATOM      6  C   UNL     1       1.914   3.857  19.142  0.00  0.00    +0.000 C 
ENDROOT
BRANCH   1   9
ATOM      7  C   UNL     1       1.704   6.558  19.969  0.00  0.00    +0.000 C 
ATOM      8  O   UNL     1       2.172   6.278  18.868  0.00  0.00    +0.000 OA
ATOM      9  N   UNL     1       1.358   5.590  20.909  0.00  0.00    +0.000 N 
ATOM     10  H   UNL     1       0.698   5.882  21.618  0.00  0.00    +0.000 HD
BRANCH   7  14
ATOM     11  C   UNL     1       1.072  10.670  21.077  0.00  0.00    +0.000 A 
ATOM     12  C   UNL     1       1.304  10.332  19.733  0.00  0.00    +0.000 A 
ATOM     13  C   UNL     1       1.455   9.004  19.319  0.00  0.00    +0.000 A 
ATOM     14  C   UNL     1       1.353   7.979  20.258  0.00  0.00    +0.000 A 
ATOM     15  C   UNL     1       0.993   8.299  21.577  0.00  0.00    +0.000 A 
ATOM     16  C   UNL     1       0.892   9.635  21.993  0.00  0.00    +0.000 A 
BRANCH  11  18
ATOM     17  C   UNL     1       1.724  12.895  20.356  0.00  0.00    +0.000 C 
ATOM     18  O   UNL     1       1.095  12.020  21.278  0.00  0.00    +0.000 OA
ENDBRANCH  11  18
BRANCH  16  19
ATOM     19  O   UNL     1       0.658   9.871  23.318  0.00  0.00    +0.000 OA
ATOM     20  H   UNL     1       1.481   9.699  23.808  0.00  0.00    +0.000 HD
ENDBRANCH  16  19
ENDBRANCH   7  14
ENDBRANCH   1   9
BRANCH   5  21
ATOM     21  C   UNL     1       4.123   2.944  18.388  0.00  0.00    +0.000 C 
BRANCH  21  22
ATOM     22  C   UNL     1       5.164   4.006  18.102  0.00  0.00    +0.000 A 
ATOM     23  C   UNL     1       5.616   4.733  19.222  0.00  0.00    +0.000 A 
ATOM     24  C   UNL     1       6.614   5.689  19.112  0.00  0.00    +0.000 A 
ATOM     25  C   UNL     1       7.185   5.943  17.873  0.00  0.00    +0.000 A 
ATOM     26  C   UNL     1       6.756   5.259  16.728  0.00  0.00    +0.000 A 
ATOM     27  C   UNL     1       7.377   5.557  15.502  0.00  0.00    +0.000 A 
ATOM     28  C   UNL     1       6.998   4.912  14.332  0.00  0.00    +0.000 A 
ATOM     29  C   UNL     1       5.992   3.956  14.378  0.00  0.00    +0.000 A 
ATOM     30  C   UNL     1       5.366   3.642  15.599  0.00  0.00    +0.000 A 
ATOM     31  C   UNL     1       5.730   4.277  16.813  0.00  0.00    +0.000 A 
ENDBRANCH  21  22
ENDBRANCH   5  21
TORSDOF 6
ENDMDL
