MODEL 1
REMARK VINA RESULT:      -7.6      0.000      0.000
REMARK  Name = 
REMARK  9 active torsions:
REMARK  status: ('A' for Active; 'I' for Inactive)
REMARK    1  A    between atoms: C_1  and  C_2
REMARK    2  A    between atoms: C_2  and  O_3
REMARK    3  A    between atoms: O_3  and  C_4
REMARK    4  A    between atoms: C_4  and  C_6
REMARK    5  A    between atoms: C_8  and  C_9
REMARK    6  A    between atoms: C_12  and  O_13
REMARK    7  A    between atoms: O_13  and  C_14
REMARK    8  A    between atoms: N_18  and  C_19
REMARK    9  A    between atoms: C_19  and  C_20
REMARK                            x       y       z     vdW  Elec       q    Type
REMARK                         _______ _______ _______ _____ _____    ______ ____
ROOT
ATOM      1  C   UNL     1       2.851   4.308  20.078  0.00  0.00    +0.000 A 
ATOM      2  C   UNL     1       1.875   5.285  20.002  0.00  0.00    +0.000 A 
ATOM      3  C   UNL     1       2.510   6.456  19.542  0.00  0.00    +0.000 A 
ATOM      4  N   UNL     1       3.779   6.196  19.205  0.00  0.00    +0.000 NA
ATOM      5  N   UNL     1       3.972   4.899  19.542  0.00  0.00    +0.000 N 
ENDROOT
BRANCH   3   6
ATOM      6  C   UNL     1       1.938   7.795  19.470  0.00  0.00    +0.000 A 
ATOM      7  C   UNL     1       2.008   8.528  18.280  0.00  0.00    +0.000 A 
ATOM      8  C   UNL     1       1.527   9.837  18.228  0.00  0.00    +0.000 A 
ATOM      9  C   UNL     1       0.951  10.422  19.357  0.00  0.00    +0.000 A 
ATOM     10  C   UNL     1       0.893   9.707  20.552  0.00  0.00    +0.000 A 
ATOM     11  C   UNL     1       1.384   8.399  20.606  0.00  0.00    +0.000 A 
BRANCH   9  12
ATOM     12  O   UNL     1       0.524  11.711  19.196  0.00  0.00    +0.000 OA
ATOM     13  C   UNL     1       1.505  12.620  18.710  0.00  0.00    +0.000 C 
ENDBRANCH   9  12
ENDBRANCH   3   6
BRANCH   1  14
ATOM     14  C   UNL     1       2.727   2.969  20.578  0.00  0.00    +0.000 C 
ATOM     15  O   UNL     1       3.322   2.509  21.549  0.00  0.00    +0.000 OA
BRANCH  14  16
ATOM     16  O   UNL     1       1.902   2.258  19.760  0.00  0.00    +0.000 OA
BRANCH  16  18
ATOM     17  C   UNL     1       3.662   1.198  18.455  0.00  0.00    +0.000 C 
ATOM     18  C   UNL     1       2.374   1.997  18.435  0.00  0.00    +0.000 C 
ENDBRANCH  16  18
ENDBRANCH  14  16
ENDBRANCH   1  14
BRANCH   5  19
ATOM     19  C   UNL     1       5.263   4.293  19.229  0.00  0.00    +0.000 C 
BRANCH  19  20
ATOM     20  C   UNL     1       5.677   4.469  17.788  0.00  0.00    +0.000 A 
ATOM     21  C   UNL     1       7.016   4.739  17.473  0.00  0.00    +0.000 A 
ATOM     22  C   UNL     1       7.441   4.768  16.143  0.00  0.00    +0.000 A 
ATOM     23  C   UNL     1       6.532   4.535  15.112  0.00  0.00    +0.000 A 
ATOM     24  C   UNL     1       5.191   4.296  15.410  0.00  0.00    +0.000 A 
ATOM     25  C   UNL     1       4.765   4.263  16.739  0.00  0.00    +0.000 A 
ENDBRANCH  19  20
ENDBRANCH   5  19
TORSDOF 7
ENDMDL
MODEL 2
REMARK VINA RESULT:      -7.5      0.648      1.495
REMARK  Name = 
REMARK  9 active torsions:
REMARK  status: ('A' for Active; 'I' for Inactive)
REMARK    1  A    between atoms: C_1  and  C_2
REMARK    2  A    between atoms: C_2  and  O_3
REMARK    3  A    between atoms: O_3  and  C_4
REMARK    4  A    between atoms: C_4  and  C_6
REMARK    5  A    between atoms: C_8  and  C_9
REMARK    6  A    between atoms: C_12  and  O_13
REMARK    7  A    between atoms: O_13  and  C_14
REMARK    8  A    between atoms: N_18  and  C_19
REMARK    9  A    between atoms: C_19  and  C_20
REMARK                            x       y       z     vdW  Elec       q    Type
REMARK                         _______ _______ _______ _____ _____    ______ ____
ROOT
ATOM      1  C   UNL     1       2.702   4.425  20.395  0.00  0.00    +0.000 A 
ATOM      2  C   UNL     1       1.802   5.468  20.277  0.00  0.00    +0.000 A 
ATOM      3  C   UNL     1       2.476   6.511  19.612  0.00  0.00    +0.000 A 
ATOM      4  N   UNL     1       3.681   6.100  19.202  0.00  0.00    +0.000 NA
ATOM      5  N   UNL     1       3.807   4.842  19.689  0.00  0.00    +0.000 N 
ENDROOT
BRANCH   3   6
ATOM      6  C   UNL     1       2.004   7.876  19.416  0.00  0.00    +0.000 A 
ATOM      7  C   UNL     1       1.336   8.545  20.448  0.00  0.00    +0.000 A 
ATOM      8  C   UNL     1       0.818   9.824  20.240  0.00  0.00    +0.000 A 
ATOM      9  C   UNL     1       0.980  10.460  19.008  0.00  0.00    +0.000 A 
ATOM     10  C   UNL     1       1.628   9.795  17.969  0.00  0.00    +0.000 A 
ATOM     11  C   UNL     1       2.138   8.509  18.173  0.00  0.00    +0.000 A 
BRANCH   9  12
ATOM     12  O   UNL     1       0.424  11.705  18.913  0.00  0.00    +0.000 OA
ATOM     13  C   UNL     1       1.214  12.765  19.439  0.00  0.00    +0.000 C 
ENDBRANCH   9  12
ENDBRANCH   3   6
BRANCH   1  14
ATOM     14  C   UNL     1       2.527   3.175  21.077  0.00  0.00    +0.000 C 
ATOM     15  O   UNL     1       2.407   3.030  22.290  0.00  0.00    +0.000 OA
BRANCH  14  16
ATOM     16  O   UNL     1       2.592   2.157  20.173  0.00  0.00    +0.000 OA
BRANCH  16  18
ATOM     17  C   UNL     1       2.237   2.063  17.767  0.00  0.00    +0.000 C 
ATOM     18  C   UNL     1       1.601   2.145  19.140  0.00  0.00    +0.000 C 
ENDBRANCH  16  18
ENDBRANCH  14  16
ENDBRANCH   1  14
BRANCH   5  19
ATOM     19  C   UNL     1       5.010   4.090  19.345  0.00  0.00    +0.000 C 
BRANCH  19  20
ATOM     20  C   UNL     1       5.568   4.435  17.986  0.00  0.00    +0.000 A 
ATOM     21  C   UNL     1       4.898   4.016  16.827  0.00  0.00    +0.000 A 
ATOM     22  C   UNL     1       5.324   4.441  15.567  0.00  0.00    +0.000 A 
ATOM     23  C   UNL     1       6.428   5.284  15.449  0.00  0.00    +0.000 A 
ATOM     24  C   UNL     1       7.122   5.683  16.589  0.00  0.00    +0.000 A 
ATOM     25  C   UNL     1       6.696   5.262  17.851  0.00  0.00    +0.000 A 
ENDBRANCH  19  20
ENDBRANCH   5  19
TORSDOF 7
ENDMDL
MODEL 3
REMARK VINA RESULT:      -7.5      0.671      1.245
REMARK  Name = 
REMARK  9 active torsions:
REMARK  status: ('A' for Active; 'I' for Inactive)
REMARK    1  A    between atoms: C_1  and  C_2
REMARK    2  A    between atoms: C_2  and  O_3
REMARK    3  A    between atoms: O_3  and  C_4
REMARK    4  A    between atoms: C_4  and  C_6
REMARK    5  A    between atoms: C_8  and  C_9
REMARK    6  A    between atoms: C_12  and  O_13
REMARK    7  A    between atoms: O_13  and  C_14
REMARK    8  A    between atoms: N_18  and  C_19
REMARK    9  A    between atoms: C_19  and  C_20
REMARK                            x       y       z     vdW  Elec       q    Type
REMARK                         _______ _______ _______ _____ _____    ______ ____
ROOT
ATOM      1  C   UNL     1       2.588   4.322  20.360  0.00  0.00    +0.000 A 
ATOM      2  C   UNL     1       1.693   5.373  20.277  0.00  0.00    +0.000 A 
ATOM      3  C   UNL     1       2.392   6.455  19.707  0.00  0.00    +0.000 A 
ATOM      4  N   UNL     1       3.611   6.068  19.316  0.00  0.00    +0.000 NA
ATOM      5  N   UNL     1       3.718   4.781  19.723  0.00  0.00    +0.000 N 
ENDROOT
BRANCH   3   6
ATOM      6  C   UNL     1       1.928   7.832  19.583  0.00  0.00    +0.000 A 
ATOM      7  C   UNL     1       1.291   8.459  20.660  0.00  0.00    +0.000 A 
ATOM      8  C   UNL     1       0.781   9.751  20.521  0.00  0.00    +0.000 A 
ATOM      9  C   UNL     1       0.919  10.439  19.315  0.00  0.00    +0.000 A 
ATOM     10  C   UNL     1       1.535   9.816  18.231  0.00  0.00    +0.000 A 
ATOM     11  C   UNL     1       2.038   8.518  18.366  0.00  0.00    +0.000 A 
BRANCH   9  12
ATOM     12  O   UNL     1       0.372  11.692  19.288  0.00  0.00    +0.000 OA
ATOM     13  C   UNL     1      -0.951  11.789  19.803  0.00  0.00    +0.000 C 
ENDBRANCH   9  12
ENDBRANCH   3   6
BRANCH   1  14
ATOM     14  C   UNL     1       2.386   3.031  20.952  0.00  0.00    +0.000 C 
ATOM     15  O   UNL     1       2.823   2.664  22.039  0.00  0.00    +0.000 OA
BRANCH  14  16
ATOM     16  O   UNL     1       1.697   2.240  20.082  0.00  0.00    +0.000 OA
BRANCH  16  18
ATOM     17  C   UNL     1       2.143   2.159  17.690  0.00  0.00    +0.000 C 
ATOM     18  C   UNL     1       2.457   1.589  19.059  0.00  0.00    +0.000 C 
ENDBRANCH  16  18
ENDBRANCH  14  16
ENDBRANCH   1  14
BRANCH   5  19
ATOM     19  C   UNL     1       4.932   4.049  19.376  0.00  0.00    +0.000 C 
BRANCH  19  20
ATOM     20  C   UNL     1       5.489   4.415  18.022  0.00  0.00    +0.000 A 
ATOM     21  C   UNL     1       6.721   5.077  17.927  0.00  0.00    +0.000 A 
ATOM     22  C   UNL     1       7.314   5.299  16.683  0.00  0.00    +0.000 A 
ATOM     23  C   UNL     1       6.681   4.869  15.518  0.00  0.00    +0.000 A 
ATOM     24  C   UNL     1       5.442   4.237  15.595  0.00  0.00    +0.000 A 
ATOM     25  C   UNL     1       4.848   4.010  16.838  0.00  0.00    +0.000 A 
ENDBRANCH  19  20
ENDBRANCH   5  19
TORSDOF 7
ENDMDL
MODEL 4
REMARK VINA RESULT:      -7.4      1.168      1.993
REMARK  Name = 
REMARK  9 active torsions:
REMARK  status: ('A' for Active; 'I' for Inactive)
REMARK    1  A    between atoms: C_1  and  C_2
REMARK    2  A    between atoms: C_2  and  O_3
REMARK    3  A    between atoms: O_3  and  C_4
REMARK    4  A    between atoms: C_4  and  C_6
REMARK    5  A    between atoms: C_8  and  C_9
REMARK    6  A    between atoms: C_12  and  O_13
REMARK    7  A    between atoms: O_13  and  C_14
REMARK    8  A    between atoms: N_18  and  C_19
REMARK    9  A    between atoms: C_19  and  C_20
REMARK                            x       y       z     vdW  Elec       q    Type
REMARK                         _______ _______ _______ _____ _____    ______ ____
ROOT
ATOM      1  C   UNL     1       2.838   4.238  18.346  0.00  0.00    +0.000 A 
ATOM      2  C   UNL     1       1.910   5.259  18.450  0.00  0.00    +0.000 A 
ATOM      3  C   UNL     1       2.640   6.457  18.584  0.00  0.00    +0.000 A 
ATOM      4  N   UNL     1       3.948   6.225  18.425  0.00  0.00    +0.000 NA
ATOM      5  N   UNL     1       4.053   4.882  18.290  0.00  0.00    +0.000 N 
ENDROOT
BRANCH   3   6
ATOM      6  C   UNL     1       2.110   7.776  18.904  0.00  0.00    +0.000 A 
ATOM      7  C   UNL     1       1.629   8.049  20.190  0.00  0.00    +0.000 A 
ATOM      8  C   UNL     1       1.053   9.287  20.479  0.00  0.00    +0.000 A 
ATOM      9  C   UNL     1       0.969  10.274  19.496  0.00  0.00    +0.000 A 
ATOM     10  C   UNL     1       1.429  10.005  18.208  0.00  0.00    +0.000 A 
ATOM     11  C   UNL     1       1.996   8.761  17.914  0.00  0.00    +0.000 A 
BRANCH   9  12
ATOM     12  O   UNL     1       0.377  11.443  19.887  0.00  0.00    +0.000 OA
ATOM     13  C   UNL     1      -1.044  11.412  19.953  0.00  0.00    +0.000 C 
ENDBRANCH   9  12
ENDBRANCH   3   6
BRANCH   1  14
ATOM     14  C   UNL     1       2.599   2.825  18.285  0.00  0.00    +0.000 C 
ATOM     15  O   UNL     1       2.280   2.194  17.281  0.00  0.00    +0.000 OA
BRANCH  14  16
ATOM     16  O   UNL     1       2.704   2.297  19.537  0.00  0.00    +0.000 OA
BRANCH  16  18
ATOM     17  C   UNL     1       1.878   2.948  21.732  0.00  0.00    +0.000 C 
ATOM     18  C   UNL     1       1.543   2.374  20.370  0.00  0.00    +0.000 C 
ENDBRANCH  16  18
ENDBRANCH  14  16
ENDBRANCH   1  14
BRANCH   5  19
ATOM     19  C   UNL     1       5.375   4.320  18.029  0.00  0.00    +0.000 C 
BRANCH  19  20
ATOM     20  C   UNL     1       5.838   4.507  16.605  0.00  0.00    +0.000 A 
ATOM     21  C   UNL     1       7.118   5.018  16.347  0.00  0.00    +0.000 A 
ATOM     22  C   UNL     1       7.613   5.069  15.043  0.00  0.00    +0.000 A 
ATOM     23  C   UNL     1       6.833   4.618  13.979  0.00  0.00    +0.000 A 
ATOM     24  C   UNL     1       5.547   4.137  14.217  0.00  0.00    +0.000 A 
ATOM     25  C   UNL     1       5.051   4.082  15.521  0.00  0.00    +0.000 A 
ENDBRANCH  19  20
ENDBRANCH   5  19
TORSDOF 7
ENDMDL
MODEL 5
REMARK VINA RESULT:      -7.4      2.409      4.412
REMARK  Name = 
REMARK  9 active torsions:
REMARK  status: ('A' for Active; 'I' for Inactive)
REMARK    1  A    between atoms: C_1  and  C_2
REMARK    2  A    between atoms: C_2  and  O_3
REMARK    3  A    between atoms: O_3  and  C_4
REMARK    4  A    between atoms: C_4  and  C_6
REMARK    5  A    between atoms: C_8  and  C_9
REMARK    6  A    between atoms: C_12  and  O_13
REMARK    7  A    between atoms: O_13  and  C_14
REMARK    8  A    between atoms: N_18  and  C_19
REMARK    9  A    between atoms: C_19  and  C_20
REMARK                            x       y       z     vdW  Elec       q    Type
REMARK                         _______ _______ _______ _____ _____    ______ ____
ROOT
ATOM      1  C   UNL     1       4.563   6.051  16.889  0.00  0.00    +0.000 A 
ATOM      2  C   UNL     1       4.212   7.326  17.294  0.00  0.00    +0.000 A 
ATOM      3  C   UNL     1       3.045   7.195  18.074  0.00  0.00    +0.000 A 
ATOM      4  N   UNL     1       2.760   5.903  18.272  0.00  0.00    +0.000 NA
ATOM      5  N   UNL     1       3.679   5.225  17.545  0.00  0.00    +0.000 N 
ENDROOT
BRANCH   3   6
ATOM      6  C   UNL     1       2.198   8.271  18.574  0.00  0.00    +0.000 A 
ATOM      7  C   UNL     1       1.989   9.419  17.800  0.00  0.00    +0.000 A 
ATOM      8  C   UNL     1       1.240  10.483  18.306  0.00  0.00    +0.000 A 
ATOM      9  C   UNL     1       0.673  10.405  19.579  0.00  0.00    +0.000 A 
ATOM     10  C   UNL     1       0.890   9.273  20.363  0.00  0.00    +0.000 A 
ATOM     11  C   UNL     1       1.650   8.212  19.861  0.00  0.00    +0.000 A 
BRANCH   9  12
ATOM     12  O   UNL     1      -0.032  11.508  19.976  0.00  0.00    +0.000 OA
ATOM     13  C   UNL     1      -1.364  11.586  19.484  0.00  0.00    +0.000 C 
ENDBRANCH   9  12
ENDBRANCH   3   6
BRANCH   1  14
ATOM     14  C   UNL     1       5.622   5.663  16.002  0.00  0.00    +0.000 C 
ATOM     15  O   UNL     1       5.492   5.007  14.973  0.00  0.00    +0.000 OA
BRANCH  14  16
ATOM     16  O   UNL     1       6.814   6.070  16.522  0.00  0.00    +0.000 OA
BRANCH  16  18
ATOM     17  C   UNL     1       7.793   6.139  18.750  0.00  0.00    +0.000 C 
ATOM     18  C   UNL     1       7.363   5.277  17.580  0.00  0.00    +0.000 C 
ENDBRANCH  16  18
ENDBRANCH  14  16
ENDBRANCH   1  14
BRANCH   5  19
ATOM     19  C   UNL     1       3.670   3.767  17.614  0.00  0.00    +0.000 C 
BRANCH  19  20
ATOM     20  C   UNL     1       2.894   3.224  18.790  0.00  0.00    +0.000 A 
ATOM     21  C   UNL     1       3.522   3.080  20.035  0.00  0.00    +0.000 A 
ATOM     22  C   UNL     1       2.786   2.711  21.162  0.00  0.00    +0.000 A 
ATOM     23  C   UNL     1       1.416   2.474  21.058  0.00  0.00    +0.000 A 
ATOM     24  C   UNL     1       0.785   2.584  19.821  0.00  0.00    +0.000 A 
ATOM     25  C   UNL     1       1.519   2.957  18.693  0.00  0.00    +0.000 A 
ENDBRANCH  19  20
ENDBRANCH   5  19
TORSDOF 7
ENDMDL
MODEL 6
REMARK VINA RESULT:      -7.4      1.106      1.619
REMARK  Name = 
REMARK  9 active torsions:
REMARK  status: ('A' for Active; 'I' for Inactive)
REMARK    1  A    between atoms: C_1  and  C_2
REMARK    2  A    between atoms: C_2  and  O_3
REMARK    3  A    between atoms: O_3  and  C_4
REMARK    4  A    between atoms: C_4  and  C_6
REMARK    5  A    between atoms: C_8  and  C_9
REMARK    6  A    between atoms: C_12  and  O_13
REMARK    7  A    between atoms: O_13  and  C_14
REMARK    8  A    between atoms: N_18  and  C_19
REMARK    9  A    between atoms: C_19  and  C_20
REMARK                            x       y       z     vdW  Elec       q    Type
REMARK                         _______ _______ _______ _____ _____    ______ ____
ROOT
ATOM      1  C   UNL     1       2.649   4.435  20.447  0.00  0.00    +0.000 A 
ATOM      2  C   UNL     1       1.707   5.447  20.393  0.00  0.00    +0.000 A 
ATOM      3  C   UNL     1       2.329   6.545  19.766  0.00  0.00    +0.000 A 
ATOM      4  N   UNL     1       3.541   6.200  19.318  0.00  0.00    +0.000 NA
ATOM      5  N   UNL     1       3.724   4.928  19.743  0.00  0.00    +0.000 N 
ENDROOT
BRANCH   3   6
ATOM      6  C   UNL     1       1.802   7.898  19.641  0.00  0.00    +0.000 A 
ATOM      7  C   UNL     1       1.932   8.596  18.434  0.00  0.00    +0.000 A 
ATOM      8  C   UNL     1       1.494   9.917  18.333  0.00  0.00    +0.000 A 
ATOM      9  C   UNL     1       0.902  10.551  19.427  0.00  0.00    +0.000 A 
ATOM     10  C   UNL     1       0.785   9.871  20.638  0.00  0.00    +0.000 A 
ATOM     11  C   UNL     1       1.233   8.550  20.743  0.00  0.00    +0.000 A 
BRANCH   9  12
ATOM     12  O   UNL     1       0.521  11.847  19.218  0.00  0.00    +0.000 OA
ATOM     13  C   UNL     1       1.544  12.711  18.738  0.00  0.00    +0.000 C 
ENDBRANCH   9  12
ENDBRANCH   3   6
BRANCH   1  14
ATOM     14  C   UNL     1       2.533   3.150  21.073  0.00  0.00    +0.000 C 
ATOM     15  O   UNL     1       2.373   2.948  22.273  0.00  0.00    +0.000 OA
BRANCH  14  16
ATOM     16  O   UNL     1       2.708   2.176  20.135  0.00  0.00    +0.000 OA
BRANCH  16  18
ATOM     17  C   UNL     1       2.322   2.190  17.732  0.00  0.00    +0.000 C 
ATOM     18  C   UNL     1       1.711   2.075  19.114  0.00  0.00    +0.000 C 
ENDBRANCH  16  18
ENDBRANCH  14  16
ENDBRANCH   1  14
BRANCH   5  19
ATOM     19  C   UNL     1       4.948   4.240  19.346  0.00  0.00    +0.000 C 
BRANCH  19  20
ATOM     20  C   UNL     1       5.940   5.134  18.641  0.00  0.00    +0.000 A 
ATOM     21  C   UNL     1       5.679   5.575  17.336  0.00  0.00    +0.000 A 
ATOM     22  C   UNL     1       6.515   6.510  16.722  0.00  0.00    +0.000 A 
ATOM     23  C   UNL     1       7.626   7.008  17.401  0.00  0.00    +0.000 A 
ATOM     24  C   UNL     1       7.915   6.555  18.686  0.00  0.00    +0.000 A 
ATOM     25  C   UNL     1       7.078   5.623  19.304  0.00  0.00    +0.000 A 
ENDBRANCH  19  20
ENDBRANCH   5  19
TORSDOF 7
ENDMDL
MODEL 7
REMARK VINA RESULT:      -7.4      2.523      4.490
REMARK  Name = 
REMARK  9 active torsions:
REMARK  status: ('A' for Active; 'I' for Inactive)
REMARK    1  A    between atoms: C_1  and  C_2
REMARK    2  A    between atoms: C_2  and  O_3
REMARK    3  A    between atoms: O_3  and  C_4
REMARK    4  A    between atoms: C_4  and  C_6
REMARK    5  A    between atoms: C_8  and  C_9
REMARK    6  A    between atoms: C_12  and  O_13
REMARK    7  A    between atoms: O_13  and  C_14
REMARK    8  A    between atoms: N_18  and  C_19
REMARK    9  A    between atoms: C_19  and  C_20
REMARK                            x       y       z     vdW  Elec       q    Type
REMARK                         _______ _______ _______ _____ _____    ______ ____
ROOT
ATOM      1  C   UNL     1       4.364   6.504  16.998  0.00  0.00    +0.000 A 
ATOM      2  C   UNL     1       3.909   7.733  17.441  0.00  0.00    +0.000 A 
ATOM      3  C   UNL     1       2.767   7.483  18.227  0.00  0.00    +0.000 A 
ATOM      4  N   UNL     1       2.596   6.167  18.395  0.00  0.00    +0.000 NA
ATOM      5  N   UNL     1       3.562   5.589  17.641  0.00  0.00    +0.000 N 
ENDROOT
BRANCH   3   6
ATOM      6  C   UNL     1       1.838   8.470  18.763  0.00  0.00    +0.000 A 
ATOM      7  C   UNL     1       1.493   8.447  20.120  0.00  0.00    +0.000 A 
ATOM      8  C   UNL     1       0.547   9.343  20.622  0.00  0.00    +0.000 A 
ATOM      9  C   UNL     1      -0.048  10.285  19.782  0.00  0.00    +0.000 A 
ATOM     10  C   UNL     1       0.276  10.304  18.426  0.00  0.00    +0.000 A 
ATOM     11  C   UNL     1       1.215   9.399  17.921  0.00  0.00    +0.000 A 
BRANCH   9  12
ATOM     12  O   UNL     1      -0.966  11.105  20.378  0.00  0.00    +0.000 OA
ATOM     13  C   UNL     1      -1.616  12.023  19.506  0.00  0.00    +0.000 C 
ENDBRANCH   9  12
ENDBRANCH   3   6
BRANCH   1  14
ATOM     14  C   UNL     1       5.442   6.231  16.093  0.00  0.00    +0.000 C 
ATOM     15  O   UNL     1       5.356   5.596  15.046  0.00  0.00    +0.000 OA
BRANCH  14  16
ATOM     16  O   UNL     1       6.602   6.722  16.614  0.00  0.00    +0.000 OA
BRANCH  16  18
ATOM     17  C   UNL     1       7.529   4.655  17.503  0.00  0.00    +0.000 C 
ATOM     18  C   UNL     1       7.104   6.081  17.790  0.00  0.00    +0.000 C 
ENDBRANCH  16  18
ENDBRANCH  14  16
ENDBRANCH   1  14
BRANCH   5  19
ATOM     19  C   UNL     1       3.678   4.134  17.672  0.00  0.00    +0.000 C 
BRANCH  19  20
ATOM     20  C   UNL     1       2.877   3.489  18.777  0.00  0.00    +0.000 A 
ATOM     21  C   UNL     1       3.460   3.284  20.035  0.00  0.00    +0.000 A 
ATOM     22  C   UNL     1       2.694   2.816  21.105  0.00  0.00    +0.000 A 
ATOM     23  C   UNL     1       1.339   2.541  20.928  0.00  0.00    +0.000 A 
ATOM     24  C   UNL     1       0.754   2.711  19.675  0.00  0.00    +0.000 A 
ATOM     25  C   UNL     1       1.517   3.182  18.605  0.00  0.00    +0.000 A 
ENDBRANCH  19  20
ENDBRANCH   5  19
TORSDOF 7
ENDMDL
MODEL 8
REMARK VINA RESULT:      -7.4      1.125      1.926
REMARK  Name = 
REMARK  9 active torsions:
REMARK  status: ('A' for Active; 'I' for Inactive)
REMARK    1  A    between atoms: C_1  and  C_2
REMARK    2  A    between atoms: C_2  and  O_3
REMARK    3  A    between atoms: O_3  and  C_4
REMARK    4  A    between atoms: C_4  and  C_6
REMARK    5  A    between atoms: C_8  and  C_9
REMARK    6  A    between atoms: C_12  and  O_13
REMARK    7  A    between atoms: O_13  and  C_14
REMARK    8  A    between atoms: N_18  and  C_19
REMARK    9  A    between atoms: C_19  and  C_20
REMARK                            x       y       z     vdW  Elec       q    Type
REMARK                         _______ _______ _______ _____ _____    ______ ____
ROOT
ATOM      1  C   UNL     1       2.798   4.199  18.363  0.00  0.00    +0.000 A 
ATOM      2  C   UNL     1       1.873   5.227  18.382  0.00  0.00    +0.000 A 
ATOM      3  C   UNL     1       2.600   6.421  18.559  0.00  0.00    +0.000 A 
ATOM      4  N   UNL     1       3.915   6.178  18.505  0.00  0.00    +0.000 NA
ATOM      5  N   UNL     1       4.018   4.833  18.395  0.00  0.00    +0.000 N 
ENDROOT
BRANCH   3   6
ATOM      6  C   UNL     1       2.058   7.749  18.820  0.00  0.00    +0.000 A 
ATOM      7  C   UNL     1       2.091   8.731  17.823  0.00  0.00    +0.000 A 
ATOM      8  C   UNL     1       1.639  10.024  18.093  0.00  0.00    +0.000 A 
ATOM      9  C   UNL     1       1.130  10.347  19.351  0.00  0.00    +0.000 A 
ATOM     10  C   UNL     1       1.110   9.380  20.356  0.00  0.00    +0.000 A 
ATOM     11  C   UNL     1       1.572   8.087  20.090  0.00  0.00    +0.000 A 
BRANCH   9  12
ATOM     12  O   UNL     1       0.727  11.644  19.507  0.00  0.00    +0.000 OA
ATOM     13  C   UNL     1       0.544  12.066  20.853  0.00  0.00    +0.000 C 
ENDBRANCH   9  12
ENDBRANCH   3   6
BRANCH   1  14
ATOM     14  C   UNL     1       2.551   2.787  18.300  0.00  0.00    +0.000 C 
ATOM     15  O   UNL     1       2.234   2.158  17.294  0.00  0.00    +0.000 OA
BRANCH  14  16
ATOM     16  O   UNL     1       2.648   2.257  19.552  0.00  0.00    +0.000 OA
BRANCH  16  18
ATOM     17  C   UNL     1       1.936   2.980  21.765  0.00  0.00    +0.000 C 
ATOM     18  C   UNL     1       1.519   2.430  20.415  0.00  0.00    +0.000 C 
ENDBRANCH  16  18
ENDBRANCH  14  16
ENDBRANCH   1  14
BRANCH   5  19
ATOM     19  C   UNL     1       5.351   4.257  18.244  0.00  0.00    +0.000 C 
BRANCH  19  20
ATOM     20  C   UNL     1       5.889   4.344  16.836  0.00  0.00    +0.000 A 
ATOM     21  C   UNL     1       5.052   4.062  15.748  0.00  0.00    +0.000 A 
ATOM     22  C   UNL     1       5.492   4.270  14.440  0.00  0.00    +0.000 A 
ATOM     23  C   UNL     1       6.777   4.755  14.202  0.00  0.00    +0.000 A 
ATOM     24  C   UNL     1       7.632   5.010  15.273  0.00  0.00    +0.000 A 
ATOM     25  C   UNL     1       7.192   4.806  16.583  0.00  0.00    +0.000 A 
ENDBRANCH  19  20
ENDBRANCH   5  19
TORSDOF 7
ENDMDL
MODEL 9
REMARK VINA RESULT:      -7.4      2.487      4.360
REMARK  Name = 
REMARK  9 active torsions:
REMARK  status: ('A' for Active; 'I' for Inactive)
REMARK    1  A    between atoms: C_1  and  C_2
REMARK    2  A    between atoms: C_2  and  O_3
REMARK    3  A    between atoms: O_3  and  C_4
REMARK    4  A    between atoms: C_4  and  C_6
REMARK    5  A    between atoms: C_8  and  C_9
REMARK    6  A    between atoms: C_12  and  O_13
REMARK    7  A    between atoms: O_13  and  C_14
REMARK    8  A    between atoms: N_18  and  C_19
REMARK    9  A    between atoms: C_19  and  C_20
REMARK                            x       y       z     vdW  Elec       q    Type
REMARK                         _______ _______ _______ _____ _____    ______ ____
ROOT
ATOM      1  C   UNL     1       4.936   5.975  16.729  0.00  0.00    +0.000 A 
ATOM      2  C   UNL     1       4.516   7.223  17.153  0.00  0.00    +0.000 A 
ATOM      3  C   UNL     1       3.350   7.020  17.917  0.00  0.00    +0.000 A 
ATOM      4  N   UNL     1       3.129   5.712  18.091  0.00  0.00    +0.000 NA
ATOM      5  N   UNL     1       4.089   5.094  17.362  0.00  0.00    +0.000 N 
ENDROOT
BRANCH   3   6
ATOM      6  C   UNL     1       2.445   8.043  18.425  0.00  0.00    +0.000 A 
ATOM      7  C   UNL     1       2.162   9.178  17.656  0.00  0.00    +0.000 A 
ATOM      8  C   UNL     1       1.354  10.194  18.169  0.00  0.00    +0.000 A 
ATOM      9  C   UNL     1       0.802  10.081  19.445  0.00  0.00    +0.000 A 
ATOM     10  C   UNL     1       1.092   8.963  20.226  0.00  0.00    +0.000 A 
ATOM     11  C   UNL     1       1.910   7.949  19.717  0.00  0.00    +0.000 A 
BRANCH   9  12
ATOM     12  O   UNL     1       0.037  11.139  19.850  0.00  0.00    +0.000 OA
ATOM     13  C   UNL     1      -0.218  11.204  21.248  0.00  0.00    +0.000 C 
ENDBRANCH   9  12
ENDBRANCH   3   6
BRANCH   1  14
ATOM     14  C   UNL     1       6.022   5.656  15.849  0.00  0.00    +0.000 C 
ATOM     15  O   UNL     1       7.205   5.923  16.043  0.00  0.00    +0.000 OA
BRANCH  14  16
ATOM     16  O   UNL     1       5.529   5.078  14.717  0.00  0.00    +0.000 OA
BRANCH  16  18
ATOM     17  C   UNL     1       5.766   3.584  12.810  0.00  0.00    +0.000 C 
ATOM     18  C   UNL     1       6.253   3.959  14.196  0.00  0.00    +0.000 C 
ENDBRANCH  16  18
ENDBRANCH  14  16
ENDBRANCH   1  14
BRANCH   5  19
ATOM     19  C   UNL     1       4.153   3.636  17.407  0.00  0.00    +0.000 C 
BRANCH  19  20
ATOM     20  C   UNL     1       3.290   3.028  18.486  0.00  0.00    +0.000 A 
ATOM     21  C   UNL     1       3.720   3.047  19.820  0.00  0.00    +0.000 A 
ATOM     22  C   UNL     1       2.876   2.614  20.844  0.00  0.00    +0.000 A 
ATOM     23  C   UNL     1       1.596   2.150  20.548  0.00  0.00    +0.000 A 
ATOM     24  C   UNL     1       1.167   2.096  19.224  0.00  0.00    +0.000 A 
ATOM     25  C   UNL     1       2.007   2.532  18.198  0.00  0.00    +0.000 A 
ENDBRANCH  19  20
ENDBRANCH   5  19
TORSDOF 7
ENDMDL
