MODEL 1
REMARK VINA RESULT:      -6.4      0.000      0.000
REMARK  Name = 
REMARK  6 active torsions:
REMARK  status: ('A' for Active; 'I' for Inactive)
REMARK    1  A    between atoms: C_1  and  C_2
REMARK    2  A    between atoms: C_2  and  C_3
REMARK    3  A    between atoms: C_2  and  N_4
REMARK    4  A    between atoms: C_5  and  S_6
REMARK    5  A    between atoms: N_7  and  C_8
REMARK    6  A    between atoms: C_8  and  C_9
REMARK                            x       y       z     vdW  Elec       q    Type
REMARK                         _______ _______ _______ _____ _____    ______ ____
ROOT
ATOM      1  N   UNL     1       3.146   3.181  19.363  0.00  0.00    +0.000 NA
ATOM      2  C   UNL     1       4.350   2.862  19.669  0.00  0.00    +0.000 C 
ATOM      3  N   UNL     1       5.456   3.521  19.212  0.00  0.00    +0.000 N 
ATOM      4  H   UNL     1       6.313   3.256  19.686  0.00  0.00    +0.000 HD
ENDROOT
BRANCH   3   5
ATOM      5  C   UNL     1       5.519   4.718  18.377  0.00  0.00    +0.000 C 
ATOM      6  C   UNL     1       4.382   5.664  18.794  0.00  0.00    +0.000 C 
ATOM      7  C   UNL     1       6.901   5.371  18.623  0.00  0.00    +0.000 C 
ATOM      8  C   UNL     1       7.098   6.440  17.562  0.00  0.00    +0.000 C 
ATOM      9  S   UNL     1       6.348   5.773  16.090  0.00  0.00    +0.000 S 
ATOM     10  O   UNL     1       7.397   5.241  15.243  0.00  0.00    +0.000 OA
ATOM     11  O   UNL     1       5.374   6.731  15.604  0.00  0.00    +0.000 OA
ATOM     12  C   UNL     1       5.493   4.416  16.872  0.00  0.00    +0.000 C 
ENDBRANCH   3   5
BRANCH   1  14
ATOM     13  C   UNL     1       1.405   3.154  21.049  0.00  0.00    +0.000 C 
ATOM     14  C   UNL     1       1.965   2.449  19.817  0.00  0.00    +0.000 C 
ATOM     15  C   UNL     1       0.929   2.454  18.694  0.00  0.00    +0.000 C 
ENDBRANCH   1  14
BRANCH   2  16
ATOM     16  S   UNL     1       4.828   1.520  20.691  0.00  0.00    +0.000 S 
ATOM     17  H   UNL     1       3.609   1.185  21.126  0.00  0.00    +0.000 HD
ENDBRANCH   2  16
TORSDOF 3
ENDMDL
MODEL 2
REMARK VINA RESULT:      -6.3      2.030      2.743
REMARK  Name = 
REMARK  6 active torsions:
REMARK  status: ('A' for Active; 'I' for Inactive)
REMARK    1  A    between atoms: C_1  and  C_2
REMARK    2  A    between atoms: C_2  and  C_3
REMARK    3  A    between atoms: C_2  and  N_4
REMARK    4  A    between atoms: C_5  and  S_6
REMARK    5  A    between atoms: N_7  and  C_8
REMARK    6  A    between atoms: C_8  and  C_9
REMARK                            x       y       z     vdW  Elec       q    Type
REMARK                         _______ _______ _______ _____ _____    ______ ____
ROOT
ATOM      1  N   UNL     1       2.393   4.046  19.603  0.00  0.00    +0.000 NA
ATOM      2  C   UNL     1       2.763   5.271  19.693  0.00  0.00    +0.000 C 
ATOM      3  N   UNL     1       3.960   5.745  19.234  0.00  0.00    +0.000 N 
ATOM      4  H   UNL     1       4.019   6.758  19.223  0.00  0.00    +0.000 HD
ENDROOT
BRANCH   3   5
ATOM      5  C   UNL     1       5.003   5.025  18.511  0.00  0.00    +0.000 C 
ATOM      6  C   UNL     1       5.182   3.643  19.159  0.00  0.00    +0.000 C 
ATOM      7  C   UNL     1       4.529   4.891  17.043  0.00  0.00    +0.000 C 
ATOM      8  C   UNL     1       5.712   4.408  16.220  0.00  0.00    +0.000 C 
ATOM      9  S   UNL     1       7.131   5.212  16.938  0.00  0.00    +0.000 S 
ATOM     10  O   UNL     1       7.476   6.352  16.112  0.00  0.00    +0.000 OA
ATOM     11  O   UNL     1       8.099   4.191  17.290  0.00  0.00    +0.000 OA
ATOM     12  C   UNL     1       6.330   5.794  18.422  0.00  0.00    +0.000 C 
ENDBRANCH   3   5
BRANCH   1  14
ATOM     13  C   UNL     1       0.543   2.561  19.114  0.00  0.00    +0.000 C 
ATOM     14  C   UNL     1       1.133   3.531  20.133  0.00  0.00    +0.000 C 
ATOM     15  C   UNL     1       1.419   2.803  21.446  0.00  0.00    +0.000 C 
ENDBRANCH   1  14
BRANCH   2  16
ATOM     16  S   UNL     1       1.847   6.567  20.438  0.00  0.00    +0.000 S 
ATOM     17  H   UNL     1       0.860   6.628  19.538  0.00  0.00    +0.000 HD
ENDBRANCH   2  16
TORSDOF 3
ENDMDL
MODEL 3
REMARK VINA RESULT:      -6.2      3.240      5.724
REMARK  Name = 
REMARK  6 active torsions:
REMARK  status: ('A' for Active; 'I' for Inactive)
REMARK    1  A    between atoms: C_1  and  C_2
REMARK    2  A    between atoms: C_2  and  C_3
REMARK    3  A    between atoms: C_2  and  N_4
REMARK    4  A    between atoms: C_5  and  S_6
REMARK    5  A    between atoms: N_7  and  C_8
REMARK    6  A    between atoms: C_8  and  C_9
REMARK                            x       y       z     vdW  Elec       q    Type
REMARK                         _______ _______ _______ _____ _____    ______ ____
ROOT
ATOM      1  N   UNL     1       6.062   5.508  17.914  0.00  0.00    +0.000 NA
ATOM      2  C   UNL     1       5.513   4.821  16.982  0.00  0.00    +0.000 C 
ATOM      3  N   UNL     1       4.231   4.350  17.030  0.00  0.00    +0.000 N 
ATOM      4  H   UNL     1       3.898   3.982  16.144  0.00  0.00    +0.000 HD
ENDROOT
BRANCH   3   5
ATOM      5  C   UNL     1       3.223   4.571  18.062  0.00  0.00    +0.000 C 
ATOM      6  C   UNL     1       2.707   6.013  17.940  0.00  0.00    +0.000 C 
ATOM      7  C   UNL     1       2.084   3.552  17.809  0.00  0.00    +0.000 C 
ATOM      8  C   UNL     1       1.174   3.569  19.027  0.00  0.00    +0.000 C 
ATOM      9  S   UNL     1       2.267   3.805  20.415  0.00  0.00    +0.000 S 
ATOM     10  O   UNL     1       2.493   2.518  21.043  0.00  0.00    +0.000 OA
ATOM     11  O   UNL     1       1.806   4.960  21.162  0.00  0.00    +0.000 OA
ATOM     12  C   UNL     1       3.719   4.256  19.481  0.00  0.00    +0.000 C 
ENDBRANCH   3   5
BRANCH   1  14
ATOM     13  C   UNL     1       7.452   7.445  17.478  0.00  0.00    +0.000 C 
ATOM     14  C   UNL     1       7.447   5.973  17.882  0.00  0.00    +0.000 C 
ATOM     15  C   UNL     1       8.048   5.810  19.277  0.00  0.00    +0.000 C 
ENDBRANCH   1  14
BRANCH   2  16
ATOM     16  S   UNL     1       6.283   4.318  15.488  0.00  0.00    +0.000 S 
ATOM     17  H   UNL     1       5.182   3.908  14.850  0.00  0.00    +0.000 HD
ENDBRANCH   2  16
TORSDOF 3
ENDMDL
MODEL 4
REMARK VINA RESULT:      -6.2      3.058      5.197
REMARK  Name = 
REMARK  6 active torsions:
REMARK  status: ('A' for Active; 'I' for Inactive)
REMARK    1  A    between atoms: C_1  and  C_2
REMARK    2  A    between atoms: C_2  and  C_3
REMARK    3  A    between atoms: C_2  and  N_4
REMARK    4  A    between atoms: C_5  and  S_6
REMARK    5  A    between atoms: N_7  and  C_8
REMARK    6  A    between atoms: C_8  and  C_9
REMARK                            x       y       z     vdW  Elec       q    Type
REMARK                         _______ _______ _______ _____ _____    ______ ____
ROOT
ATOM      1  N   UNL     1       5.289   4.705  16.791  0.00  0.00    +0.000 NA
ATOM      2  C   UNL     1       5.994   4.424  17.824  0.00  0.00    +0.000 C 
ATOM      3  N   UNL     1       5.492   3.872  18.968  0.00  0.00    +0.000 N 
ATOM      4  H   UNL     1       6.206   3.552  19.615  0.00  0.00    +0.000 HD
ENDROOT
BRANCH   3   5
ATOM      5  C   UNL     1       4.126   3.430  19.237  0.00  0.00    +0.000 C 
ATOM      6  C   UNL     1       4.174   2.313  20.291  0.00  0.00    +0.000 C 
ATOM      7  C   UNL     1       3.348   4.659  19.768  0.00  0.00    +0.000 C 
ATOM      8  C   UNL     1       1.871   4.298  19.778  0.00  0.00    +0.000 C 
ATOM      9  S   UNL     1       1.637   3.278  18.336  0.00  0.00    +0.000 S 
ATOM     10  O   UNL     1       1.064   4.097  17.285  0.00  0.00    +0.000 OA
ATOM     11  O   UNL     1       1.031   2.030  18.758  0.00  0.00    +0.000 OA
ATOM     12  C   UNL     1       3.362   3.000  17.977  0.00  0.00    +0.000 C 
ENDBRANCH   3   5
BRANCH   1  14
ATOM     13  C   UNL     1       5.540   4.418  14.398  0.00  0.00    +0.000 C 
ATOM     14  C   UNL     1       5.820   5.335  15.584  0.00  0.00    +0.000 C 
ATOM     15  C   UNL     1       5.115   6.677  15.387  0.00  0.00    +0.000 C 
ENDBRANCH   1  14
BRANCH   2  16
ATOM     16  S   UNL     1       7.715   4.712  18.001  0.00  0.00    +0.000 S 
ATOM     17  H   UNL     1       8.009   3.612  18.700  0.00  0.00    +0.000 HD
ENDBRANCH   2  16
TORSDOF 3
ENDMDL
MODEL 5
REMARK VINA RESULT:      -6.1      3.435      5.749
REMARK  Name = 
REMARK  6 active torsions:
REMARK  status: ('A' for Active; 'I' for Inactive)
REMARK    1  A    between atoms: C_1  and  C_2
REMARK    2  A    between atoms: C_2  and  C_3
REMARK    3  A    between atoms: C_2  and  N_4
REMARK    4  A    between atoms: C_5  and  S_6
REMARK    5  A    between atoms: N_7  and  C_8
REMARK    6  A    between atoms: C_8  and  C_9
REMARK                            x       y       z     vdW  Elec       q    Type
REMARK                         _______ _______ _______ _____ _____    ______ ____
ROOT
ATOM      1  N   UNL     1       6.133   5.100  17.846  0.00  0.00    +0.000 NA
ATOM      2  C   UNL     1       5.694   4.296  16.948  0.00  0.00    +0.000 C 
ATOM      3  N   UNL     1       4.618   3.472  17.118  0.00  0.00    +0.000 N 
ATOM      4  H   UNL     1       4.298   3.037  16.259  0.00  0.00    +0.000 HD
ENDROOT
BRANCH   3   5
ATOM      5  C   UNL     1       3.724   3.374  18.269  0.00  0.00    +0.000 C 
ATOM      6  C   UNL     1       4.563   3.494  19.550  0.00  0.00    +0.000 C 
ATOM      7  C   UNL     1       2.712   4.540  18.158  0.00  0.00    +0.000 C 
ATOM      8  C   UNL     1       1.608   4.289  19.172  0.00  0.00    +0.000 C 
ATOM      9  S   UNL     1       1.384   2.521  19.179  0.00  0.00    +0.000 S 
ATOM     10  O   UNL     1       0.224   2.205  18.369  0.00  0.00    +0.000 OA
ATOM     11  O   UNL     1       1.524   2.052  20.545  0.00  0.00    +0.000 OA
ATOM     12  C   UNL     1       2.858   2.105  18.265  0.00  0.00    +0.000 C 
ENDBRANCH   3   5
BRANCH   1  14
ATOM     13  C   UNL     1       6.846   7.338  17.249  0.00  0.00    +0.000 C 
ATOM     14  C   UNL     1       7.310   5.949  17.679  0.00  0.00    +0.000 C 
ATOM     15  C   UNL     1       8.044   6.032  19.017  0.00  0.00    +0.000 C 
ENDBRANCH   1  14
BRANCH   2  16
ATOM     16  S   UNL     1       6.385   4.062  15.353  0.00  0.00    +0.000 S 
ATOM     17  H   UNL     1       6.110   2.760  15.229  0.00  0.00    +0.000 HD
ENDBRANCH   2  16
TORSDOF 3
ENDMDL
MODEL 6
REMARK VINA RESULT:      -6.1      1.045      1.311
REMARK  Name = 
REMARK  6 active torsions:
REMARK  status: ('A' for Active; 'I' for Inactive)
REMARK    1  A    between atoms: C_1  and  C_2
REMARK    2  A    between atoms: C_2  and  C_3
REMARK    3  A    between atoms: C_2  and  N_4
REMARK    4  A    between atoms: C_5  and  S_6
REMARK    5  A    between atoms: N_7  and  C_8
REMARK    6  A    between atoms: C_8  and  C_9
REMARK                            x       y       z     vdW  Elec       q    Type
REMARK                         _______ _______ _______ _____ _____    ______ ____
ROOT
ATOM      1  N   UNL     1       2.954   3.004  19.221  0.00  0.00    +0.000 NA
ATOM      2  C   UNL     1       4.183   2.763  19.495  0.00  0.00    +0.000 C 
ATOM      3  N   UNL     1       5.239   3.288  18.806  0.00  0.00    +0.000 N 
ATOM      4  H   UNL     1       6.135   3.140  19.259  0.00  0.00    +0.000 HD
ENDROOT
BRANCH   3   5
ATOM      5  C   UNL     1       5.217   4.249  17.707  0.00  0.00    +0.000 C 
ATOM      6  C   UNL     1       4.139   3.816  16.702  0.00  0.00    +0.000 C 
ATOM      7  C   UNL     1       4.881   5.631  18.320  0.00  0.00    +0.000 C 
ATOM      8  C   UNL     1       5.136   6.681  17.251  0.00  0.00    +0.000 C 
ATOM      9  S   UNL     1       6.565   6.095  16.361  0.00  0.00    +0.000 S 
ATOM     10  O   UNL     1       7.729   6.813  16.842  0.00  0.00    +0.000 OA
ATOM     11  O   UNL     1       6.225   6.028  14.953  0.00  0.00    +0.000 OA
ATOM     12  C   UNL     1       6.585   4.443  17.036  0.00  0.00    +0.000 C 
ENDBRANCH   3   5
BRANCH   1  14
ATOM     13  C   UNL     1       1.427   3.338  21.072  0.00  0.00    +0.000 C 
ATOM     14  C   UNL     1       1.824   2.408  19.930  0.00  0.00    +0.000 C 
ATOM     15  C   UNL     1       0.662   2.254  18.951  0.00  0.00    +0.000 C 
ENDBRANCH   1  14
BRANCH   2  16
ATOM     16  S   UNL     1       4.761   1.703  20.767  0.00  0.00    +0.000 S 
ATOM     17  H   UNL     1       5.679   2.527  21.282  0.00  0.00    +0.000 HD
ENDBRANCH   2  16
TORSDOF 3
ENDMDL
MODEL 7
REMARK VINA RESULT:      -6.0      3.354      5.540
REMARK  Name = 
REMARK  6 active torsions:
REMARK  status: ('A' for Active; 'I' for Inactive)
REMARK    1  A    between atoms: C_1  and  C_2
REMARK    2  A    between atoms: C_2  and  C_3
REMARK    3  A    between atoms: C_2  and  N_4
REMARK    4  A    between atoms: C_5  and  S_6
REMARK    5  A    between atoms: N_7  and  C_8
REMARK    6  A    between atoms: C_8  and  C_9
REMARK                            x       y       z     vdW  Elec       q    Type
REMARK                         _______ _______ _______ _____ _____    ______ ____
ROOT
ATOM      1  N   UNL     1       5.197   4.476  16.726  0.00  0.00    +0.000 NA
ATOM      2  C   UNL     1       5.800   4.274  17.840  0.00  0.00    +0.000 C 
ATOM      3  N   UNL     1       5.233   3.654  18.917  0.00  0.00    +0.000 N 
ATOM      4  H   UNL     1       5.897   3.419  19.648  0.00  0.00    +0.000 HD
ENDROOT
BRANCH   3   5
ATOM      5  C   UNL     1       3.910   3.046  19.020  0.00  0.00    +0.000 C 
ATOM      6  C   UNL     1       3.870   1.807  18.112  0.00  0.00    +0.000 C 
ATOM      7  C   UNL     1       3.705   2.653  20.504  0.00  0.00    +0.000 C 
ATOM      8  C   UNL     1       2.240   2.289  20.684  0.00  0.00    +0.000 C 
ATOM      9  S   UNL     1       1.353   3.412  19.623  0.00  0.00    +0.000 S 
ATOM     10  O   UNL     1       0.819   4.485  20.437  0.00  0.00    +0.000 OA
ATOM     11  O   UNL     1       0.517   2.628  18.733  0.00  0.00    +0.000 OA
ATOM     12  C   UNL     1       2.762   4.020  18.714  0.00  0.00    +0.000 C 
ENDBRANCH   3   5
BRANCH   1  14
ATOM     13  C   UNL     1       5.538   4.355  14.330  0.00  0.00    +0.000 C 
ATOM     14  C   UNL     1       5.790   5.178  15.590  0.00  0.00    +0.000 C 
ATOM     15  C   UNL     1       5.123   6.547  15.464  0.00  0.00    +0.000 C 
ENDBRANCH   1  14
BRANCH   2  16
ATOM     16  S   UNL     1       7.438   4.770  18.224  0.00  0.00    +0.000 S 
ATOM     17  H   UNL     1       7.268   6.087  18.066  0.00  0.00    +0.000 HD
ENDBRANCH   2  16
TORSDOF 3
ENDMDL
MODEL 8
REMARK VINA RESULT:      -5.8      2.170      2.772
REMARK  Name = 
REMARK  6 active torsions:
REMARK  status: ('A' for Active; 'I' for Inactive)
REMARK    1  A    between atoms: C_1  and  C_2
REMARK    2  A    between atoms: C_2  and  C_3
REMARK    3  A    between atoms: C_2  and  N_4
REMARK    4  A    between atoms: C_5  and  S_6
REMARK    5  A    between atoms: N_7  and  C_8
REMARK    6  A    between atoms: C_8  and  C_9
REMARK                            x       y       z     vdW  Elec       q    Type
REMARK                         _______ _______ _______ _____ _____    ______ ____
ROOT
ATOM      1  N   UNL     1       3.683   4.511  18.411  0.00  0.00    +0.000 NA
ATOM      2  C   UNL     1       3.695   5.784  18.566  0.00  0.00    +0.000 C 
ATOM      3  N   UNL     1       4.678   6.605  18.091  0.00  0.00    +0.000 N 
ATOM      4  H   UNL     1       4.447   7.592  18.144  0.00  0.00    +0.000 HD
ENDROOT
BRANCH   3   5
ATOM      5  C   UNL     1       5.840   6.253  17.280  0.00  0.00    +0.000 C 
ATOM      6  C   UNL     1       6.846   7.413  17.338  0.00  0.00    +0.000 C 
ATOM      7  C   UNL     1       6.446   4.965  17.890  0.00  0.00    +0.000 C 
ATOM      8  C   UNL     1       7.468   4.425  16.902  0.00  0.00    +0.000 C 
ATOM      9  S   UNL     1       6.777   4.765  15.295  0.00  0.00    +0.000 S 
ATOM     10  O   UNL     1       6.174   3.547  14.791  0.00  0.00    +0.000 OA
ATOM     11  O   UNL     1       7.756   5.515  14.532  0.00  0.00    +0.000 OA
ATOM     12  C   UNL     1       5.485   5.870  15.836  0.00  0.00    +0.000 C 
ENDBRANCH   3   5
BRANCH   1  14
ATOM     13  C   UNL     1       1.530   3.508  17.932  0.00  0.00    +0.000 C 
ATOM     14  C   UNL     1       2.654   3.629  18.957  0.00  0.00    +0.000 C 
ATOM     15  C   UNL     1       3.277   2.259  19.218  0.00  0.00    +0.000 C 
ENDBRANCH   1  14
BRANCH   2  16
ATOM     16  S   UNL     1       2.493   6.723  19.431  0.00  0.00    +0.000 S 
ATOM     17  H   UNL     1       2.498   7.797  18.635  0.00  0.00    +0.000 HD
ENDBRANCH   2  16
TORSDOF 3
ENDMDL
MODEL 9
REMARK VINA RESULT:      -5.8      1.868      2.243
REMARK  Name = 
REMARK  6 active torsions:
REMARK  status: ('A' for Active; 'I' for Inactive)
REMARK    1  A    between atoms: C_1  and  C_2
REMARK    2  A    between atoms: C_2  and  C_3
REMARK    3  A    between atoms: C_2  and  N_4
REMARK    4  A    between atoms: C_5  and  S_6
REMARK    5  A    between atoms: N_7  and  C_8
REMARK    6  A    between atoms: C_8  and  C_9
REMARK                            x       y       z     vdW  Elec       q    Type
REMARK                         _______ _______ _______ _____ _____    ______ ____
ROOT
ATOM      1  N   UNL     1       2.585   4.551  19.521  0.00  0.00    +0.000 NA
ATOM      2  C   UNL     1       2.733   3.683  18.589  0.00  0.00    +0.000 C 
ATOM      3  N   UNL     1       3.704   3.745  17.630  0.00  0.00    +0.000 N 
ATOM      4  H   UNL     1       3.791   2.895  17.082  0.00  0.00    +0.000 HD
ENDROOT
BRANCH   3   5
ATOM      5  C   UNL     1       4.784   4.718  17.496  0.00  0.00    +0.000 C 
ATOM      6  C   UNL     1       4.176   6.066  17.078  0.00  0.00    +0.000 C 
ATOM      7  C   UNL     1       5.473   4.826  18.878  0.00  0.00    +0.000 C 
ATOM      8  C   UNL     1       6.765   5.604  18.688  0.00  0.00    +0.000 C 
ATOM      9  S   UNL     1       7.378   5.096  17.094  0.00  0.00    +0.000 S 
ATOM     10  O   UNL     1       8.420   4.109  17.299  0.00  0.00    +0.000 OA
ATOM     11  O   UNL     1       7.587   6.284  16.289  0.00  0.00    +0.000 OA
ATOM     12  C   UNL     1       5.898   4.268  16.539  0.00  0.00    +0.000 C 
ENDBRANCH   3   5
BRANCH   1  14
ATOM     13  C   UNL     1       1.966   3.600  21.662  0.00  0.00    +0.000 C 
ATOM     14  C   UNL     1       1.520   4.507  20.520  0.00  0.00    +0.000 C 
ATOM     15  C   UNL     1       1.281   5.925  21.038  0.00  0.00    +0.000 C 
ENDBRANCH   1  14
BRANCH   2  16
ATOM     16  S   UNL     1       1.719   2.275  18.329  0.00  0.00    +0.000 S 
ATOM     17  H   UNL     1       1.446   2.488  17.038  0.00  0.00    +0.000 HD
ENDBRANCH   2  16
TORSDOF 3
ENDMDL
