MODEL 1
REMARK VINA RESULT:      -8.5      0.000      0.000
REMARK  Name = 
REMARK  2 active torsions:
REMARK  status: ('A' for Active; 'I' for Inactive)
REMARK    1  A    between atoms: C_6  and  C_7
REMARK    2  A    between atoms: C_13  and  C_14
REMARK                            x       y       z     vdW  Elec       q    Type
REMARK                         _______ _______ _______ _____ _____    ______ ____
ROOT
ATOM      1  C   UNL     1       4.419   3.757  18.659  0.00  0.00    +0.000 A 
ATOM      2  N   UNL     1       4.317   2.571  19.241  0.00  0.00    +0.000 NA
ATOM      3  N   UNL     1       3.371   2.645  20.234  0.00  0.00    +0.000 NA
ATOM      4  C   UNL     1       2.887   3.862  20.235  0.00  0.00    +0.000 A 
ATOM      5  C   UNL     1       1.890   4.499  21.023  0.00  0.00    +0.000 A 
ATOM      6  C   UNL     1       1.568   5.784  20.783  0.00  0.00    +0.000 A 
ATOM      7  C   UNL     1       2.207   6.558  19.723  0.00  0.00    +0.000 A 
ATOM      8  C   UNL     1       3.145   5.944  18.977  0.00  0.00    +0.000 A 
ATOM      9  N   UNL     1       3.497   4.615  19.241  0.00  0.00    +0.000 N 
ENDROOT
BRANCH   1  15
ATOM     10 CL   UNL     1       5.457   3.941  13.574  0.00  0.00    +0.000 Cl
ATOM     11  C   UNL     1       5.904   4.210  15.213  0.00  0.00    +0.000 A 
ATOM     12  C   UNL     1       7.148   4.748  15.518  0.00  0.00    +0.000 A 
ATOM     13  C   UNL     1       7.497   4.964  16.850  0.00  0.00    +0.000 A 
ATOM     14  C   UNL     1       6.602   4.632  17.871  0.00  0.00    +0.000 A 
ATOM     15  C   UNL     1       5.347   4.078  17.572  0.00  0.00    +0.000 A 
ATOM     16  C   UNL     1       5.004   3.894  16.227  0.00  0.00    +0.000 A 
ENDBRANCH   1  15
BRANCH   7  17
ATOM     17  C   UNL     1       1.865   7.957  19.422  0.00  0.00    +0.000 A 
ATOM     18  C   UNL     1       2.192   8.509  18.183  0.00  0.00    +0.000 A 
ATOM     19  C   UNL     1       1.847   9.830  17.941  0.00  0.00    +0.000 A 
ATOM     20  N   UNL     1       1.214  10.617  18.836  0.00  0.00    +0.000 NA
ATOM     21  C   UNL     1       0.908  10.061  20.027  0.00  0.00    +0.000 A 
ATOM     22  C   UNL     1       1.205   8.749  20.364  0.00  0.00    +0.000 A 
ENDBRANCH   7  17
TORSDOF 2
ENDMDL
MODEL 2
REMARK VINA RESULT:      -8.5      0.022      1.003
REMARK  Name = 
REMARK  2 active torsions:
REMARK  status: ('A' for Active; 'I' for Inactive)
REMARK    1  A    between atoms: C_6  and  C_7
REMARK    2  A    between atoms: C_13  and  C_14
REMARK                            x       y       z     vdW  Elec       q    Type
REMARK                         _______ _______ _______ _____ _____    ______ ____
ROOT
ATOM      1  C   UNL     1       4.425   3.759  18.672  0.00  0.00    +0.000 A 
ATOM      2  N   UNL     1       4.325   2.578  19.265  0.00  0.00    +0.000 NA
ATOM      3  N   UNL     1       3.382   2.659  20.259  0.00  0.00    +0.000 NA
ATOM      4  C   UNL     1       2.896   3.876  20.252  0.00  0.00    +0.000 A 
ATOM      5  C   UNL     1       1.901   4.520  21.036  0.00  0.00    +0.000 A 
ATOM      6  C   UNL     1       1.577   5.802  20.786  0.00  0.00    +0.000 A 
ATOM      7  C   UNL     1       2.213   6.568  19.718  0.00  0.00    +0.000 A 
ATOM      8  C   UNL     1       3.150   5.947  18.975  0.00  0.00    +0.000 A 
ATOM      9  N   UNL     1       3.504   4.621  19.250  0.00  0.00    +0.000 N 
ENDROOT
BRANCH   1  15
ATOM     10 CL   UNL     1       5.429   3.955  13.582  0.00  0.00    +0.000 Cl
ATOM     11  C   UNL     1       5.892   4.208  15.219  0.00  0.00    +0.000 A 
ATOM     12  C   UNL     1       7.147   4.724  15.518  0.00  0.00    +0.000 A 
ATOM     13  C   UNL     1       7.508   4.928  16.848  0.00  0.00    +0.000 A 
ATOM     14  C   UNL     1       6.616   4.604  17.874  0.00  0.00    +0.000 A 
ATOM     15  C   UNL     1       5.350   4.072  17.581  0.00  0.00    +0.000 A 
ATOM     16  C   UNL     1       4.995   3.901  16.237  0.00  0.00    +0.000 A 
ENDBRANCH   1  15
BRANCH   7  17
ATOM     17  C   UNL     1       1.869   7.963  19.406  0.00  0.00    +0.000 A 
ATOM     18  C   UNL     1       1.201   8.750  20.344  0.00  0.00    +0.000 A 
ATOM     19  C   UNL     1       0.899  10.061  20.008  0.00  0.00    +0.000 A 
ATOM     20  N   UNL     1       1.212  10.622  18.822  0.00  0.00    +0.000 NA
ATOM     21  C   UNL     1       1.858   9.842  17.930  0.00  0.00    +0.000 A 
ATOM     22  C   UNL     1       2.208   8.523  18.172  0.00  0.00    +0.000 A 
ENDBRANCH   7  17
TORSDOF 2
ENDMDL
MODEL 3
REMARK VINA RESULT:      -7.9      1.425      1.704
REMARK  Name = 
REMARK  2 active torsions:
REMARK  status: ('A' for Active; 'I' for Inactive)
REMARK    1  A    between atoms: C_6  and  C_7
REMARK    2  A    between atoms: C_13  and  C_14
REMARK                            x       y       z     vdW  Elec       q    Type
REMARK                         _______ _______ _______ _____ _____    ______ ____
ROOT
ATOM      1  C   UNL     1       4.280   3.857  18.452  0.00  0.00    +0.000 A 
ATOM      2  N   UNL     1       4.175   2.567  18.736  0.00  0.00    +0.000 NA
ATOM      3  N   UNL     1       3.195   2.399  19.683  0.00  0.00    +0.000 NA
ATOM      4  C   UNL     1       2.693   3.578  19.952  0.00  0.00    +0.000 A 
ATOM      5  C   UNL     1       1.661   4.006  20.831  0.00  0.00    +0.000 A 
ATOM      6  C   UNL     1       1.327   5.309  20.887  0.00  0.00    +0.000 A 
ATOM      7  C   UNL     1       1.991   6.315  20.063  0.00  0.00    +0.000 A 
ATOM      8  C   UNL     1       2.963   5.899  19.228  0.00  0.00    +0.000 A 
ATOM      9  N   UNL     1       3.326   4.547  19.186  0.00  0.00    +0.000 N 
ENDROOT
BRANCH   1  15
ATOM     10 CL   UNL     1       7.807   7.492  17.313  0.00  0.00    +0.000 Cl
ATOM     11  C   UNL     1       6.909   6.084  16.902  0.00  0.00    +0.000 A 
ATOM     12  C   UNL     1       7.097   5.471  15.669  0.00  0.00    +0.000 A 
ATOM     13  C   UNL     1       6.366   4.328  15.350  0.00  0.00    +0.000 A 
ATOM     14  C   UNL     1       5.442   3.811  16.262  0.00  0.00    +0.000 A 
ATOM     15  C   UNL     1       5.239   4.430  17.506  0.00  0.00    +0.000 A 
ATOM     16  C   UNL     1       6.003   5.561  17.819  0.00  0.00    +0.000 A 
ENDBRANCH   1  15
BRANCH   7  17
ATOM     17  C   UNL     1       1.638   7.743  20.085  0.00  0.00    +0.000 A 
ATOM     18  C   UNL     1       1.719   8.506  18.920  0.00  0.00    +0.000 A 
ATOM     19  C   UNL     1       1.374   9.847  18.987  0.00  0.00    +0.000 A 
ATOM     20  N   UNL     1       0.966  10.461  20.117  0.00  0.00    +0.000 NA
ATOM     21  C   UNL     1       0.896   9.703  21.231  0.00  0.00    +0.000 A 
ATOM     22  C   UNL     1       1.214   8.355  21.267  0.00  0.00    +0.000 A 
ENDBRANCH   7  17
TORSDOF 2
ENDMDL
MODEL 4
REMARK VINA RESULT:      -7.9      1.402      1.949
REMARK  Name = 
REMARK  2 active torsions:
REMARK  status: ('A' for Active; 'I' for Inactive)
REMARK    1  A    between atoms: C_6  and  C_7
REMARK    2  A    between atoms: C_13  and  C_14
REMARK                            x       y       z     vdW  Elec       q    Type
REMARK                         _______ _______ _______ _____ _____    ______ ____
ROOT
ATOM      1  C   UNL     1       4.272   3.856  18.460  0.00  0.00    +0.000 A 
ATOM      2  N   UNL     1       4.169   2.571  18.763  0.00  0.00    +0.000 NA
ATOM      3  N   UNL     1       3.195   2.417  19.719  0.00  0.00    +0.000 NA
ATOM      4  C   UNL     1       2.694   3.600  19.974  0.00  0.00    +0.000 A 
ATOM      5  C   UNL     1       1.667   4.041  20.851  0.00  0.00    +0.000 A 
ATOM      6  C   UNL     1       1.334   5.345  20.889  0.00  0.00    +0.000 A 
ATOM      7  C   UNL     1       1.992   6.338  20.046  0.00  0.00    +0.000 A 
ATOM      8  C   UNL     1       2.959   5.910  19.212  0.00  0.00    +0.000 A 
ATOM      9  N   UNL     1       3.322   4.558  19.188  0.00  0.00    +0.000 N 
ENDROOT
BRANCH   1  15
ATOM     10 CL   UNL     1       7.807   7.462  17.251  0.00  0.00    +0.000 Cl
ATOM     11  C   UNL     1       6.898   6.054  16.863  0.00  0.00    +0.000 A 
ATOM     12  C   UNL     1       7.070   5.428  15.634  0.00  0.00    +0.000 A 
ATOM     13  C   UNL     1       6.330   4.286  15.333  0.00  0.00    +0.000 A 
ATOM     14  C   UNL     1       5.413   3.782  16.259  0.00  0.00    +0.000 A 
ATOM     15  C   UNL     1       5.224   4.415  17.499  0.00  0.00    +0.000 A 
ATOM     16  C   UNL     1       5.998   5.545  17.794  0.00  0.00    +0.000 A 
ENDBRANCH   1  15
BRANCH   7  17
ATOM     17  C   UNL     1       1.639   7.766  20.049  0.00  0.00    +0.000 A 
ATOM     18  C   UNL     1       1.219   8.384  21.227  0.00  0.00    +0.000 A 
ATOM     19  C   UNL     1       0.900   9.733  21.185  0.00  0.00    +0.000 A 
ATOM     20  N   UNL     1       0.968  10.485  20.067  0.00  0.00    +0.000 NA
ATOM     21  C   UNL     1       1.376   9.865  18.939  0.00  0.00    +0.000 A 
ATOM     22  C   UNL     1       1.722   8.524  18.879  0.00  0.00    +0.000 A 
ENDBRANCH   7  17
TORSDOF 2
ENDMDL
MODEL 5
REMARK VINA RESULT:      -7.9      3.410      5.595
REMARK  Name = 
REMARK  2 active torsions:
REMARK  status: ('A' for Active; 'I' for Inactive)
REMARK    1  A    between atoms: C_6  and  C_7
REMARK    2  A    between atoms: C_13  and  C_14
REMARK                            x       y       z     vdW  Elec       q    Type
REMARK                         _______ _______ _______ _____ _____    ______ ____
ROOT
ATOM      1  C   UNL     1       6.357   4.531  14.232  0.00  0.00    +0.000 A 
ATOM      2  N   UNL     1       7.493   5.211  14.187  0.00  0.00    +0.000 NA
ATOM      3  N   UNL     1       7.706   5.801  15.408  0.00  0.00    +0.000 NA
ATOM      4  C   UNL     1       6.717   5.458  16.196  0.00  0.00    +0.000 A 
ATOM      5  C   UNL     1       6.421   5.757  17.553  0.00  0.00    +0.000 A 
ATOM      6  C   UNL     1       5.322   5.234  18.129  0.00  0.00    +0.000 A 
ATOM      7  C   UNL     1       4.411   4.354  17.404  0.00  0.00    +0.000 A 
ATOM      8  C   UNL     1       4.704   4.071  16.120  0.00  0.00    +0.000 A 
ATOM      9  N   UNL     1       5.834   4.631  15.514  0.00  0.00    +0.000 N 
ENDROOT
BRANCH   1  15
ATOM     10 CL   UNL     1       6.532   0.482  10.985  0.00  0.00    +0.000 Cl
ATOM     11  C   UNL     1       5.781   1.918  11.563  0.00  0.00    +0.000 A 
ATOM     12  C   UNL     1       4.611   2.380  10.974  0.00  0.00    +0.000 A 
ATOM     13  C   UNL     1       4.011   3.543  11.454  0.00  0.00    +0.000 A 
ATOM     14  C   UNL     1       4.591   4.243  12.515  0.00  0.00    +0.000 A 
ATOM     15  C   UNL     1       5.780   3.789  13.109  0.00  0.00    +0.000 A 
ATOM     16  C   UNL     1       6.352   2.604  12.631  0.00  0.00    +0.000 A 
ENDBRANCH   1  15
BRANCH   7  17
ATOM     17  C   UNL     1       3.213   3.751  18.008  0.00  0.00    +0.000 A 
ATOM     18  C   UNL     1       2.994   2.376  17.914  0.00  0.00    +0.000 A 
ATOM     19  C   UNL     1       1.853   1.851  18.500  0.00  0.00    +0.000 A 
ATOM     20  N   UNL     1       0.938   2.593  19.158  0.00  0.00    +0.000 NA
ATOM     21  C   UNL     1       1.171   3.920  19.237  0.00  0.00    +0.000 A 
ATOM     22  C   UNL     1       2.283   4.540  18.688  0.00  0.00    +0.000 A 
ENDBRANCH   7  17
TORSDOF 2
ENDMDL
MODEL 6
REMARK VINA RESULT:      -7.8      3.665      5.743
REMARK  Name = 
REMARK  2 active torsions:
REMARK  status: ('A' for Active; 'I' for Inactive)
REMARK    1  A    between atoms: C_6  and  C_7
REMARK    2  A    between atoms: C_13  and  C_14
REMARK                            x       y       z     vdW  Elec       q    Type
REMARK                         _______ _______ _______ _____ _____    ______ ____
ROOT
ATOM      1  C   UNL     1       6.459   4.440  14.056  0.00  0.00    +0.000 A 
ATOM      2  N   UNL     1       7.551   5.189  14.020  0.00  0.00    +0.000 NA
ATOM      3  N   UNL     1       7.693   5.826  15.228  0.00  0.00    +0.000 NA
ATOM      4  C   UNL     1       6.704   5.446  15.999  0.00  0.00    +0.000 A 
ATOM      5  C   UNL     1       6.351   5.765  17.338  0.00  0.00    +0.000 A 
ATOM      6  C   UNL     1       5.271   5.192  17.900  0.00  0.00    +0.000 A 
ATOM      7  C   UNL     1       4.437   4.235  17.179  0.00  0.00    +0.000 A 
ATOM      8  C   UNL     1       4.784   3.933  15.912  0.00  0.00    +0.000 A 
ATOM      9  N   UNL     1       5.894   4.546  15.320  0.00  0.00    +0.000 N 
ENDROOT
BRANCH   1  15
ATOM     10 CL   UNL     1       2.878   3.599  10.392  0.00  0.00    +0.000 Cl
ATOM     11  C   UNL     1       4.340   3.177  11.194  0.00  0.00    +0.000 A 
ATOM     12  C   UNL     1       5.068   2.068  10.781  0.00  0.00    +0.000 A 
ATOM     13  C   UNL     1       6.253   1.739  11.437  0.00  0.00    +0.000 A 
ATOM     14  C   UNL     1       6.697   2.516  12.511  0.00  0.00    +0.000 A 
ATOM     15  C   UNL     1       5.961   3.631  12.942  0.00  0.00    +0.000 A 
ATOM     16  C   UNL     1       4.789   3.962  12.252  0.00  0.00    +0.000 A 
ENDBRANCH   1  15
BRANCH   7  17
ATOM     17  C   UNL     1       3.262   3.577  17.769  0.00  0.00    +0.000 A 
ATOM     18  C   UNL     1       3.345   2.258  18.215  0.00  0.00    +0.000 A 
ATOM     19  C   UNL     1       2.214   1.678  18.768  0.00  0.00    +0.000 A 
ATOM     20  N   UNL     1       1.032   2.315  18.897  0.00  0.00    +0.000 NA
ATOM     21  C   UNL     1       0.975   3.590  18.459  0.00  0.00    +0.000 A 
ATOM     22  C   UNL     1       2.050   4.259  17.896  0.00  0.00    +0.000 A 
ENDBRANCH   7  17
TORSDOF 2
ENDMDL
MODEL 7
REMARK VINA RESULT:      -7.7      3.615      5.806
REMARK  Name = 
REMARK  2 active torsions:
REMARK  status: ('A' for Active; 'I' for Inactive)
REMARK    1  A    between atoms: C_6  and  C_7
REMARK    2  A    between atoms: C_13  and  C_14
REMARK                            x       y       z     vdW  Elec       q    Type
REMARK                         _______ _______ _______ _____ _____    ______ ____
ROOT
ATOM      1  C   UNL     1       6.473   4.415  13.988  0.00  0.00    +0.000 A 
ATOM      2  N   UNL     1       7.567   5.160  13.928  0.00  0.00    +0.000 NA
ATOM      3  N   UNL     1       7.734   5.801  15.130  0.00  0.00    +0.000 NA
ATOM      4  C   UNL     1       6.760   5.426  15.922  0.00  0.00    +0.000 A 
ATOM      5  C   UNL     1       6.436   5.751  17.267  0.00  0.00    +0.000 A 
ATOM      6  C   UNL     1       5.365   5.183  17.853  0.00  0.00    +0.000 A 
ATOM      7  C   UNL     1       4.514   4.226  17.151  0.00  0.00    +0.000 A 
ATOM      8  C   UNL     1       4.834   3.920  15.879  0.00  0.00    +0.000 A 
ATOM      9  N   UNL     1       5.934   4.527  15.262  0.00  0.00    +0.000 N 
ENDROOT
BRANCH   1  15
ATOM     10 CL   UNL     1       2.887   3.646  10.312  0.00  0.00    +0.000 Cl
ATOM     11  C   UNL     1       4.325   3.181  11.135  0.00  0.00    +0.000 A 
ATOM     12  C   UNL     1       5.009   2.034  10.751  0.00  0.00    +0.000 A 
ATOM     13  C   UNL     1       6.174   1.671  11.424  0.00  0.00    +0.000 A 
ATOM     14  C   UNL     1       6.643   2.450  12.485  0.00  0.00    +0.000 A 
ATOM     15  C   UNL     1       5.951   3.605  12.886  0.00  0.00    +0.000 A 
ATOM     16  C   UNL     1       4.798   3.969  12.180  0.00  0.00    +0.000 A 
ENDBRANCH   1  15
BRANCH   7  17
ATOM     17  C   UNL     1       3.349   3.573  17.767  0.00  0.00    +0.000 A 
ATOM     18  C   UNL     1       2.178   4.297  17.998  0.00  0.00    +0.000 A 
ATOM     19  C   UNL     1       1.103   3.640  18.578  0.00  0.00    +0.000 A 
ATOM     20  N   UNL     1       1.123   2.339  18.935  0.00  0.00    +0.000 NA
ATOM     21  C   UNL     1       2.266   1.660  18.702  0.00  0.00    +0.000 A 
ATOM     22  C   UNL     1       3.393   2.224  18.124  0.00  0.00    +0.000 A 
ENDBRANCH   7  17
TORSDOF 2
ENDMDL
MODEL 8
REMARK VINA RESULT:      -7.7      3.844      7.897
REMARK  Name = 
REMARK  2 active torsions:
REMARK  status: ('A' for Active; 'I' for Inactive)
REMARK    1  A    between atoms: C_6  and  C_7
REMARK    2  A    between atoms: C_13  and  C_14
REMARK                            x       y       z     vdW  Elec       q    Type
REMARK                         _______ _______ _______ _____ _____    ______ ____
ROOT
ATOM      1  C   UNL     1       1.257   9.482  19.496  0.00  0.00    +0.000 A 
ATOM      2  N   UNL     1       1.384  10.323  18.481  0.00  0.00    +0.000 NA
ATOM      3  N   UNL     1       2.147   9.730  17.505  0.00  0.00    +0.000 NA
ATOM      4  C   UNL     1       2.458   8.526  17.919  0.00  0.00    +0.000 A 
ATOM      5  C   UNL     1       3.206   7.471  17.330  0.00  0.00    +0.000 A 
ATOM      6  C   UNL     1       3.346   6.303  17.986  0.00  0.00    +0.000 A 
ATOM      7  C   UNL     1       2.744   6.073  19.296  0.00  0.00    +0.000 A 
ATOM      8  C   UNL     1       2.030   7.076  19.842  0.00  0.00    +0.000 A 
ATOM      9  N   UNL     1       1.903   8.298  19.171  0.00  0.00    +0.000 N 
ENDROOT
BRANCH   1  15
ATOM     10 CL   UNL     1      -0.906  12.941  22.708  0.00  0.00    +0.000 Cl
ATOM     11  C   UNL     1      -0.512  11.322  22.283  0.00  0.00    +0.000 A 
ATOM     12  C   UNL     1      -0.889  10.271  23.111  0.00  0.00    +0.000 A 
ATOM     13  C   UNL     1      -0.566   8.963  22.753  0.00  0.00    +0.000 A 
ATOM     14  C   UNL     1       0.140   8.714  21.573  0.00  0.00    +0.000 A 
ATOM     15  C   UNL     1       0.534   9.771  20.737  0.00  0.00    +0.000 A 
ATOM     16  C   UNL     1       0.177  11.076  21.099  0.00  0.00    +0.000 A 
ENDBRANCH   1  15
BRANCH   7  17
ATOM     17  C   UNL     1       2.861   4.804  20.030  0.00  0.00    +0.000 A 
ATOM     18  C   UNL     1       2.055   4.557  21.141  0.00  0.00    +0.000 A 
ATOM     19  C   UNL     1       2.197   3.347  21.802  0.00  0.00    +0.000 A 
ATOM     20  N   UNL     1       3.074   2.390  21.433  0.00  0.00    +0.000 NA
ATOM     21  C   UNL     1       3.843   2.650  20.355  0.00  0.00    +0.000 A 
ATOM     22  C   UNL     1       3.774   3.827  19.626  0.00  0.00    +0.000 A 
ENDBRANCH   7  17
TORSDOF 2
ENDMDL
MODEL 9
REMARK VINA RESULT:      -7.6      3.824      7.796
REMARK  Name = 
REMARK  2 active torsions:
REMARK  status: ('A' for Active; 'I' for Inactive)
REMARK    1  A    between atoms: C_6  and  C_7
REMARK    2  A    between atoms: C_13  and  C_14
REMARK                            x       y       z     vdW  Elec       q    Type
REMARK                         _______ _______ _______ _____ _____    ______ ____
ROOT
ATOM      1  C   UNL     1       1.306   9.505  19.476  0.00  0.00    +0.000 A 
ATOM      2  N   UNL     1       1.438  10.331  18.449  0.00  0.00    +0.000 NA
ATOM      3  N   UNL     1       2.186   9.715  17.477  0.00  0.00    +0.000 NA
ATOM      4  C   UNL     1       2.485   8.513  17.904  0.00  0.00    +0.000 A 
ATOM      5  C   UNL     1       3.217   7.441  17.325  0.00  0.00    +0.000 A 
ATOM      6  C   UNL     1       3.346   6.280  17.994  0.00  0.00    +0.000 A 
ATOM      7  C   UNL     1       2.749   6.074  19.311  0.00  0.00    +0.000 A 
ATOM      8  C   UNL     1       2.052   7.093  19.848  0.00  0.00    +0.000 A 
ATOM      9  N   UNL     1       1.935   8.308  19.162  0.00  0.00    +0.000 N 
ENDROOT
BRANCH   1  15
ATOM     10 CL   UNL     1      -2.226  12.345  22.009  0.00  0.00    +0.000 Cl
ATOM     11  C   UNL     1      -1.049  11.091  21.969  0.00  0.00    +0.000 A 
ATOM     12  C   UNL     1      -0.771  10.357  23.116  0.00  0.00    +0.000 A 
ATOM     13  C   UNL     1       0.183   9.342  23.069  0.00  0.00    +0.000 A 
ATOM     14  C   UNL     1       0.862   9.074  21.877  0.00  0.00    +0.000 A 
ATOM     15  C   UNL     1       0.595   9.819  20.717  0.00  0.00    +0.000 A 
ATOM     16  C   UNL     1      -0.386  10.816  20.777  0.00  0.00    +0.000 A 
ENDBRANCH   1  15
BRANCH   7  17
ATOM     17  C   UNL     1       2.855   4.813  20.061  0.00  0.00    +0.000 A 
ATOM     18  C   UNL     1       3.882   3.912  19.779  0.00  0.00    +0.000 A 
ATOM     19  C   UNL     1       3.946   2.738  20.513  0.00  0.00    +0.000 A 
ATOM     20  N   UNL     1       3.069   2.412  21.485  0.00  0.00    +0.000 NA
ATOM     21  C   UNL     1       2.084   3.299  21.740  0.00  0.00    +0.000 A 
ATOM     22  C   UNL     1       1.937   4.501  21.065  0.00  0.00    +0.000 A 
ENDBRANCH   7  17
TORSDOF 2
ENDMDL
