MODEL 1
REMARK VINA RESULT:      -7.4      0.000      0.000
REMARK  Name = 
REMARK  13 active torsions:
REMARK  status: ('A' for Active; 'I' for Inactive)
REMARK    1  A    between atoms: C_1  and  C_2
REMARK    2  A    between atoms: C_2  and  N_3
REMARK    3  A    between atoms: N_3  and  C_4
REMARK    4  A    between atoms: N_3  and  C_6
REMARK    5  A    between atoms: C_4  and  C_5
REMARK    6  A    between atoms: C_6  and  C_7
REMARK    7  A    between atoms: C_7  and  C_8
REMARK    8  A    between atoms: C_8  and  C_9
REMARK    9  A    between atoms: C_9  and  C_10
REMARK   10  A    between atoms: C_9  and  N_11
REMARK   11  A    between atoms: N_11  and  C_12
REMARK   12  A    between atoms: C_19  and  O_20
REMARK   13  A    between atoms: O_20  and  C_21
REMARK                            x       y       z     vdW  Elec       q    Type
REMARK                         _______ _______ _______ _____ _____    ______ ____
ROOT
ATOM      1  C   UNL     1       6.044   6.088  16.500  0.00  0.00    +0.000 A 
ATOM      2  C   UNL     1       6.895   5.344  15.677  0.00  0.00    +0.000 A 
ATOM      3  C   UNL     1       6.539   4.063  15.305  0.00  0.00    +0.000 A 
ATOM      4  N   UNL     1       5.417   3.447  15.715  0.00  0.00    +0.000 NA
ATOM      5  C   UNL     1       4.606   4.118  16.535  0.00  0.00    +0.000 A 
ATOM      6  C   UNL     1       3.473   3.455  16.979  0.00  0.00    +0.000 A 
ATOM      7  C   UNL     1       2.557   4.044  17.852  0.00  0.00    +0.000 A 
ATOM      8  C   UNL     1       2.784   5.334  18.305  0.00  0.00    +0.000 A 
ATOM      9  C   UNL     1       3.895   6.040  17.837  0.00  0.00    +0.000 A 
ATOM     10  C   UNL     1       4.853   5.446  16.968  0.00  0.00    +0.000 A 
ENDROOT
BRANCH   1  11
ATOM     11  N   UNL     1       6.424   7.356  16.982  0.00  0.00    +0.000 N 
ATOM     12  H   UNL     1       6.102   8.116  16.395  0.00  0.00    +0.000 HD
BRANCH  11  13
ATOM     13  C   UNL     1       7.779   7.614  17.494  0.00  0.00    +0.000 C 
ATOM     14  C   UNL     1       7.987   6.738  18.734  0.00  0.00    +0.000 C 
BRANCH  13  15
ATOM     15  C   UNL     1       7.920   9.111  17.820  0.00  0.00    +0.000 C 
BRANCH  15  16
ATOM     16  C   UNL     1       8.966   9.430  18.895  0.00  0.00    +0.000 C 
BRANCH  16  17
ATOM     17  C   UNL     1       9.434  10.897  18.922  0.00  0.00    +0.000 C 
BRANCH  17  18
ATOM     18  N   UNL     1      10.418  11.205  19.974  0.00  0.00    +0.000 NA
BRANCH  18  20
ATOM     19  C   UNL     1      11.631  12.006  17.903  0.00  0.00    +0.000 C 
ATOM     20  C   UNL     1      11.651  11.783  19.411  0.00  0.00    +0.000 C 
ENDBRANCH  18  20
BRANCH  18  21
ATOM     21  C   UNL     1       9.825  12.008  21.059  0.00  0.00    +0.000 C 
ATOM     22  C   UNL     1       9.804  13.520  20.855  0.00  0.00    +0.000 C 
ENDBRANCH  18  21
ENDBRANCH  17  18
ENDBRANCH  16  17
ENDBRANCH  15  16
ENDBRANCH  13  15
ENDBRANCH  11  13
ENDBRANCH   1  11
BRANCH   8  23
ATOM     23  O   UNL     1       1.925   6.017  19.110  0.00  0.00    +0.000 OA
BRANCH  23  24
ATOM     24  C   UNL     1       1.799   5.566  20.456  0.00  0.00    +0.000 C 
ATOM     25  F   UNL     1       2.886   4.929  20.937  0.00  0.00    +0.000 F 
ATOM     26  F   UNL     1       1.547   6.631  21.251  0.00  0.00    +0.000 F 
ATOM     27  F   UNL     1       0.744   4.725  20.534  0.00  0.00    +0.000 F 
ENDBRANCH  23  24
ENDBRANCH   8  23
TORSDOF 10
ENDMDL
MODEL 2
REMARK VINA RESULT:      -7.0      4.771      7.437
REMARK  Name = 
REMARK  13 active torsions:
REMARK  status: ('A' for Active; 'I' for Inactive)
REMARK    1  A    between atoms: C_1  and  C_2
REMARK    2  A    between atoms: C_2  and  N_3
REMARK    3  A    between atoms: N_3  and  C_4
REMARK    4  A    between atoms: N_3  and  C_6
REMARK    5  A    between atoms: C_4  and  C_5
REMARK    6  A    between atoms: C_6  and  C_7
REMARK    7  A    between atoms: C_7  and  C_8
REMARK    8  A    between atoms: C_8  and  C_9
REMARK    9  A    between atoms: C_9  and  C_10
REMARK   10  A    between atoms: C_9  and  N_11
REMARK   11  A    between atoms: N_11  and  C_12
REMARK   12  A    between atoms: C_19  and  O_20
REMARK   13  A    between atoms: O_20  and  C_21
REMARK                            x       y       z     vdW  Elec       q    Type
REMARK                         _______ _______ _______ _____ _____    ______ ____
ROOT
ATOM      1  C   UNL     1       2.132   5.183  20.209  0.00  0.00    +0.000 A 
ATOM      2  C   UNL     1       1.024   4.338  20.332  0.00  0.00    +0.000 A 
ATOM      3  C   UNL     1       0.955   3.186  19.574  0.00  0.00    +0.000 A 
ATOM      4  N   UNL     1       1.885   2.823  18.674  0.00  0.00    +0.000 NA
ATOM      5  C   UNL     1       2.934   3.631  18.505  0.00  0.00    +0.000 A 
ATOM      6  C   UNL     1       3.863   3.262  17.547  0.00  0.00    +0.000 A 
ATOM      7  C   UNL     1       4.992   4.033  17.266  0.00  0.00    +0.000 A 
ATOM      8  C   UNL     1       5.195   5.217  17.957  0.00  0.00    +0.000 A 
ATOM      9  C   UNL     1       4.296   5.588  18.959  0.00  0.00    +0.000 A 
ATOM     10  C   UNL     1       3.126   4.829  19.240  0.00  0.00    +0.000 A 
ENDROOT
BRANCH   1  11
ATOM     11  N   UNL     1       2.186   6.415  20.888  0.00  0.00    +0.000 N 
ATOM     12  H   UNL     1       2.288   6.312  21.890  0.00  0.00    +0.000 HD
BRANCH  11  13
ATOM     13  C   UNL     1       1.272   7.521  20.557  0.00  0.00    +0.000 C 
ATOM     14  C   UNL     1       1.860   8.271  19.358  0.00  0.00    +0.000 C 
BRANCH  13  15
ATOM     15  C   UNL     1       1.120   8.435  21.786  0.00  0.00    +0.000 C 
BRANCH  15  16
ATOM     16  C   UNL     1      -0.289   9.013  21.974  0.00  0.00    +0.000 C 
BRANCH  16  17
ATOM     17  C   UNL     1      -0.419  10.029  23.124  0.00  0.00    +0.000 C 
BRANCH  17  18
ATOM     18  N   UNL     1      -0.446  11.438  22.695  0.00  0.00    +0.000 NA
BRANCH  18  20
ATOM     19  C   UNL     1       0.928  12.442  20.823  0.00  0.00    +0.000 C 
ATOM     20  C   UNL     1      -0.248  11.567  21.240  0.00  0.00    +0.000 C 
ENDBRANCH  18  20
BRANCH  18  21
ATOM     21  C   UNL     1      -1.642  12.139  23.198  0.00  0.00    +0.000 C 
ATOM     22  C   UNL     1      -1.504  13.642  23.428  0.00  0.00    +0.000 C 
ENDBRANCH  18  21
ENDBRANCH  17  18
ENDBRANCH  16  17
ENDBRANCH  15  16
ENDBRANCH  13  15
ENDBRANCH  11  13
ENDBRANCH   1  11
BRANCH   8  23
ATOM     23  O   UNL     1       6.290   6.009  17.798  0.00  0.00    +0.000 OA
BRANCH  23  24
ATOM     24  C   UNL     1       7.448   5.677  18.558  0.00  0.00    +0.000 C 
ATOM     25  F   UNL     1       8.127   4.602  18.105  0.00  0.00    +0.000 F 
ATOM     26  F   UNL     1       8.289   6.736  18.560  0.00  0.00    +0.000 F 
ATOM     27  F   UNL     1       7.076   5.435  19.835  0.00  0.00    +0.000 F 
ENDBRANCH  23  24
ENDBRANCH   8  23
TORSDOF 10
ENDMDL
MODEL 3
REMARK VINA RESULT:      -6.9      4.983      7.234
REMARK  Name = 
REMARK  13 active torsions:
REMARK  status: ('A' for Active; 'I' for Inactive)
REMARK    1  A    between atoms: C_1  and  C_2
REMARK    2  A    between atoms: C_2  and  N_3
REMARK    3  A    between atoms: N_3  and  C_4
REMARK    4  A    between atoms: N_3  and  C_6
REMARK    5  A    between atoms: C_4  and  C_5
REMARK    6  A    between atoms: C_6  and  C_7
REMARK    7  A    between atoms: C_7  and  C_8
REMARK    8  A    between atoms: C_8  and  C_9
REMARK    9  A    between atoms: C_9  and  C_10
REMARK   10  A    between atoms: C_9  and  N_11
REMARK   11  A    between atoms: N_11  and  C_12
REMARK   12  A    between atoms: C_19  and  O_20
REMARK   13  A    between atoms: O_20  and  C_21
REMARK                            x       y       z     vdW  Elec       q    Type
REMARK                         _______ _______ _______ _____ _____    ______ ____
ROOT
ATOM      1  C   UNL     1       2.145   5.337  20.087  0.00  0.00    +0.000 A 
ATOM      2  C   UNL     1       1.103   4.513  20.524  0.00  0.00    +0.000 A 
ATOM      3  C   UNL     1       0.885   3.299  19.905  0.00  0.00    +0.000 A 
ATOM      4  N   UNL     1       1.600   2.851  18.858  0.00  0.00    +0.000 NA
ATOM      5  C   UNL     1       2.576   3.634  18.393  0.00  0.00    +0.000 A 
ATOM      6  C   UNL     1       3.278   3.175  17.291  0.00  0.00    +0.000 A 
ATOM      7  C   UNL     1       4.308   3.911  16.702  0.00  0.00    +0.000 A 
ATOM      8  C   UNL     1       4.642   5.150  17.225  0.00  0.00    +0.000 A 
ATOM      9  C   UNL     1       3.978   5.615  18.363  0.00  0.00    +0.000 A 
ATOM     10  C   UNL     1       2.908   4.891  18.960  0.00  0.00    +0.000 A 
ENDROOT
BRANCH   1  11
ATOM     11  N   UNL     1       2.331   6.624  20.626  0.00  0.00    +0.000 N 
ATOM     12  H   UNL     1       2.613   6.610  21.599  0.00  0.00    +0.000 HD
BRANCH  11  13
ATOM     13  C   UNL     1       1.380   7.716  20.363  0.00  0.00    +0.000 C 
ATOM     14  C   UNL     1       1.854   8.458  19.110  0.00  0.00    +0.000 C 
BRANCH  13  15
ATOM     15  C   UNL     1       1.323   8.643  21.591  0.00  0.00    +0.000 C 
BRANCH  15  16
ATOM     16  C   UNL     1      -0.067   9.224  21.882  0.00  0.00    +0.000 C 
BRANCH  16  17
ATOM     17  C   UNL     1      -0.401  10.511  21.106  0.00  0.00    +0.000 C 
BRANCH  17  18
ATOM     18  N   UNL     1       0.168  11.740  21.685  0.00  0.00    +0.000 NA
BRANCH  18  20
ATOM     19  C   UNL     1       0.955  12.064  19.303  0.00  0.00    +0.000 C 
ATOM     20  C   UNL     1       1.158  12.357  20.785  0.00  0.00    +0.000 C 
ENDBRANCH  18  20
BRANCH  18  21
ATOM     21  C   UNL     1      -0.884  12.668  22.141  0.00  0.00    +0.000 C 
ATOM     22  C   UNL     1      -1.854  12.135  23.192  0.00  0.00    +0.000 C 
ENDBRANCH  18  21
ENDBRANCH  17  18
ENDBRANCH  16  17
ENDBRANCH  15  16
ENDBRANCH  13  15
ENDBRANCH  11  13
ENDBRANCH   1  11
BRANCH   8  23
ATOM     23  O   UNL     1       5.665   5.918  16.761  0.00  0.00    +0.000 OA
BRANCH  23  24
ATOM     24  C   UNL     1       6.989   5.475  17.043  0.00  0.00    +0.000 C 
ATOM     25  F   UNL     1       7.493   4.605  16.143  0.00  0.00    +0.000 F 
ATOM     26  F   UNL     1       7.808   6.550  17.094  0.00  0.00    +0.000 F 
ATOM     27  F   UNL     1       7.000   4.882  18.258  0.00  0.00    +0.000 F 
ENDBRANCH  23  24
ENDBRANCH   8  23
TORSDOF 10
ENDMDL
MODEL 4
REMARK VINA RESULT:      -6.8      4.299      6.753
REMARK  Name = 
REMARK  13 active torsions:
REMARK  status: ('A' for Active; 'I' for Inactive)
REMARK    1  A    between atoms: C_1  and  C_2
REMARK    2  A    between atoms: C_2  and  N_3
REMARK    3  A    between atoms: N_3  and  C_4
REMARK    4  A    between atoms: N_3  and  C_6
REMARK    5  A    between atoms: C_4  and  C_5
REMARK    6  A    between atoms: C_6  and  C_7
REMARK    7  A    between atoms: C_7  and  C_8
REMARK    8  A    between atoms: C_8  and  C_9
REMARK    9  A    between atoms: C_9  and  C_10
REMARK   10  A    between atoms: C_9  and  N_11
REMARK   11  A    between atoms: N_11  and  C_12
REMARK   12  A    between atoms: C_19  and  O_20
REMARK   13  A    between atoms: O_20  and  C_21
REMARK                            x       y       z     vdW  Elec       q    Type
REMARK                         _______ _______ _______ _____ _____    ______ ____
ROOT
ATOM      1  C   UNL     1       2.657   6.893  19.422  0.00  0.00    +0.000 A 
ATOM      2  C   UNL     1       3.389   6.954  18.232  0.00  0.00    +0.000 A 
ATOM      3  C   UNL     1       3.219   8.025  17.379  0.00  0.00    +0.000 A 
ATOM      4  N   UNL     1       2.351   9.028  17.597  0.00  0.00    +0.000 NA
ATOM      5  C   UNL     1       1.609   8.976  18.705  0.00  0.00    +0.000 A 
ATOM      6  C   UNL     1       0.692   9.997  18.895  0.00  0.00    +0.000 A 
ATOM      7  C   UNL     1      -0.153  10.045  20.005  0.00  0.00    +0.000 A 
ATOM      8  C   UNL     1      -0.087   9.034  20.952  0.00  0.00    +0.000 A 
ATOM      9  C   UNL     1       0.859   8.018  20.805  0.00  0.00    +0.000 A 
ATOM     10  C   UNL     1       1.709   7.939  19.667  0.00  0.00    +0.000 A 
ENDROOT
BRANCH   1  11
ATOM     11  N   UNL     1       2.728   5.766  20.264  0.00  0.00    +0.000 N 
ATOM     12  H   UNL     1       3.577   5.736  20.815  0.00  0.00    +0.000 HD
BRANCH  11  13
ATOM     13  C   UNL     1       2.351   4.424  19.792  0.00  0.00    +0.000 C 
ATOM     14  C   UNL     1       1.169   3.945  20.642  0.00  0.00    +0.000 C 
BRANCH  13  15
ATOM     15  C   UNL     1       3.564   3.485  19.916  0.00  0.00    +0.000 C 
BRANCH  15  16
ATOM     16  C   UNL     1       4.419   3.385  18.647  0.00  0.00    +0.000 C 
BRANCH  16  17
ATOM     17  C   UNL     1       5.655   4.303  18.630  0.00  0.00    +0.000 C 
BRANCH  17  18
ATOM     18  N   UNL     1       6.277   4.468  17.305  0.00  0.00    +0.000 NA
BRANCH  18  20
ATOM     19  C   UNL     1       5.615   5.281  15.003  0.00  0.00    +0.000 C 
ATOM     20  C   UNL     1       5.273   4.439  16.227  0.00  0.00    +0.000 C 
ENDBRANCH  18  20
BRANCH  18  21
ATOM     21  C   UNL     1       7.167   5.642  17.261  0.00  0.00    +0.000 C 
ATOM     22  C   UNL     1       7.673   6.165  18.603  0.00  0.00    +0.000 C 
ENDBRANCH  18  21
ENDBRANCH  17  18
ENDBRANCH  16  17
ENDBRANCH  15  16
ENDBRANCH  13  15
ENDBRANCH  11  13
ENDBRANCH   1  11
BRANCH   8  23
ATOM     23  O   UNL     1      -0.825   9.018  22.095  0.00  0.00    +0.000 OA
BRANCH  23  24
ATOM     24  C   UNL     1      -0.471   9.953  23.111  0.00  0.00    +0.000 C 
ATOM     25  F   UNL     1       0.167   9.414  24.170  0.00  0.00    +0.000 F 
ATOM     26  F   UNL     1       0.330  10.900  22.573  0.00  0.00    +0.000 F 
ATOM     27  F   UNL     1      -1.595  10.557  23.555  0.00  0.00    +0.000 F 
ENDBRANCH  23  24
ENDBRANCH   8  23
TORSDOF 10
ENDMDL
MODEL 5
REMARK VINA RESULT:      -6.8      4.745      7.388
REMARK  Name = 
REMARK  13 active torsions:
REMARK  status: ('A' for Active; 'I' for Inactive)
REMARK    1  A    between atoms: C_1  and  C_2
REMARK    2  A    between atoms: C_2  and  N_3
REMARK    3  A    between atoms: N_3  and  C_4
REMARK    4  A    between atoms: N_3  and  C_6
REMARK    5  A    between atoms: C_4  and  C_5
REMARK    6  A    between atoms: C_6  and  C_7
REMARK    7  A    between atoms: C_7  and  C_8
REMARK    8  A    between atoms: C_8  and  C_9
REMARK    9  A    between atoms: C_9  and  C_10
REMARK   10  A    between atoms: C_9  and  N_11
REMARK   11  A    between atoms: N_11  and  C_12
REMARK   12  A    between atoms: C_19  and  O_20
REMARK   13  A    between atoms: O_20  and  C_21
REMARK                            x       y       z     vdW  Elec       q    Type
REMARK                         _______ _______ _______ _____ _____    ______ ____
ROOT
ATOM      1  C   UNL     1       2.125   5.282  20.236  0.00  0.00    +0.000 A 
ATOM      2  C   UNL     1       1.018   4.437  20.369  0.00  0.00    +0.000 A 
ATOM      3  C   UNL     1       0.953   3.274  19.627  0.00  0.00    +0.000 A 
ATOM      4  N   UNL     1       1.887   2.899  18.737  0.00  0.00    +0.000 NA
ATOM      5  C   UNL     1       2.935   3.706  18.560  0.00  0.00    +0.000 A 
ATOM      6  C   UNL     1       3.869   3.323  17.610  0.00  0.00    +0.000 A 
ATOM      7  C   UNL     1       4.999   4.091  17.322  0.00  0.00    +0.000 A 
ATOM      8  C   UNL     1       5.197   5.286  17.997  0.00  0.00    +0.000 A 
ATOM      9  C   UNL     1       4.294   5.671  18.990  0.00  0.00    +0.000 A 
ATOM     10  C   UNL     1       3.123   4.914  19.277  0.00  0.00    +0.000 A 
ENDROOT
BRANCH   1  11
ATOM     11  N   UNL     1       2.175   6.524  20.897  0.00  0.00    +0.000 N 
ATOM     12  H   UNL     1       2.244   6.436  21.904  0.00  0.00    +0.000 HD
BRANCH  11  13
ATOM     13  C   UNL     1       1.289   7.637  20.520  0.00  0.00    +0.000 C 
ATOM     14  C   UNL     1       1.854   8.275  19.247  0.00  0.00    +0.000 C 
BRANCH  13  15
ATOM     15  C   UNL     1       1.218   8.643  21.682  0.00  0.00    +0.000 C 
BRANCH  15  16
ATOM     16  C   UNL     1      -0.206   8.963  22.156  0.00  0.00    +0.000 C 
BRANCH  16  17
ATOM     17  C   UNL     1      -0.615  10.440  22.010  0.00  0.00    +0.000 C 
BRANCH  17  18
ATOM     18  N   UNL     1      -0.059  11.115  20.824  0.00  0.00    +0.000 NA
BRANCH  18  20
ATOM     19  C   UNL     1      -1.386  12.029  18.874  0.00  0.00    +0.000 C 
ATOM     20  C   UNL     1      -0.840  10.812  19.612  0.00  0.00    +0.000 C 
ENDBRANCH  18  20
BRANCH  18  21
ATOM     21  C   UNL     1       0.143  12.556  21.060  0.00  0.00    +0.000 C 
ATOM     22  C   UNL     1      -0.517  13.142  22.305  0.00  0.00    +0.000 C 
ENDBRANCH  18  21
ENDBRANCH  17  18
ENDBRANCH  16  17
ENDBRANCH  15  16
ENDBRANCH  13  15
ENDBRANCH  11  13
ENDBRANCH   1  11
BRANCH   8  23
ATOM     23  O   UNL     1       6.292   6.077  17.831  0.00  0.00    +0.000 OA
BRANCH  23  24
ATOM     24  C   UNL     1       7.440   5.772  18.617  0.00  0.00    +0.000 C 
ATOM     25  F   UNL     1       7.175   5.490  19.910  0.00  0.00    +0.000 F 
ATOM     26  F   UNL     1       8.071   4.706  18.075  0.00  0.00    +0.000 F 
ATOM     27  F   UNL     1       8.286   6.825  18.578  0.00  0.00    +0.000 F 
ENDBRANCH  23  24
ENDBRANCH   8  23
TORSDOF 10
ENDMDL
MODEL 6
REMARK VINA RESULT:      -6.7      4.731      7.377
REMARK  Name = 
REMARK  13 active torsions:
REMARK  status: ('A' for Active; 'I' for Inactive)
REMARK    1  A    between atoms: C_1  and  C_2
REMARK    2  A    between atoms: C_2  and  N_3
REMARK    3  A    between atoms: N_3  and  C_4
REMARK    4  A    between atoms: N_3  and  C_6
REMARK    5  A    between atoms: C_4  and  C_5
REMARK    6  A    between atoms: C_6  and  C_7
REMARK    7  A    between atoms: C_7  and  C_8
REMARK    8  A    between atoms: C_8  and  C_9
REMARK    9  A    between atoms: C_9  and  C_10
REMARK   10  A    between atoms: C_9  and  N_11
REMARK   11  A    between atoms: N_11  and  C_12
REMARK   12  A    between atoms: C_19  and  O_20
REMARK   13  A    between atoms: O_20  and  C_21
REMARK                            x       y       z     vdW  Elec       q    Type
REMARK                         _______ _______ _______ _____ _____    ______ ____
ROOT
ATOM      1  C   UNL     1       2.139   5.405  20.209  0.00  0.00    +0.000 A 
ATOM      2  C   UNL     1       1.032   4.576  20.422  0.00  0.00    +0.000 A 
ATOM      3  C   UNL     1       0.968   3.346  19.798  0.00  0.00    +0.000 A 
ATOM      4  N   UNL     1       1.903   2.887  18.948  0.00  0.00    +0.000 NA
ATOM      5  C   UNL     1       2.950   3.674  18.694  0.00  0.00    +0.000 A 
ATOM      6  C   UNL     1       3.885   3.201  17.786  0.00  0.00    +0.000 A 
ATOM      7  C   UNL     1       5.014   3.938  17.425  0.00  0.00    +0.000 A 
ATOM      8  C   UNL     1       5.211   5.192  17.980  0.00  0.00    +0.000 A 
ATOM      9  C   UNL     1       4.307   5.672  18.930  0.00  0.00    +0.000 A 
ATOM     10  C   UNL     1       3.137   4.946  19.290  0.00  0.00    +0.000 A 
ENDROOT
BRANCH   1  11
ATOM     11  N   UNL     1       2.188   6.706  20.745  0.00  0.00    +0.000 N 
ATOM     12  H   UNL     1       2.208   6.717  21.758  0.00  0.00    +0.000 HD
BRANCH  11  13
ATOM     13  C   UNL     1       1.346   7.792  20.217  0.00  0.00    +0.000 C 
ATOM     14  C   UNL     1       2.011   8.321  18.942  0.00  0.00    +0.000 C 
BRANCH  13  15
ATOM     15  C   UNL     1       1.206   8.888  21.288  0.00  0.00    +0.000 C 
BRANCH  15  16
ATOM     16  C   UNL     1      -0.233   9.367  21.519  0.00  0.00    +0.000 C 
BRANCH  16  17
ATOM     17  C   UNL     1      -0.573  10.720  20.866  0.00  0.00    +0.000 C 
BRANCH  17  18
ATOM     18  N   UNL     1      -0.331  10.776  19.414  0.00  0.00    +0.000 NA
BRANCH  18  20
ATOM     19  C   UNL     1      -2.585  11.447  18.480  0.00  0.00    +0.000 C 
ATOM     20  C   UNL     1      -1.522  10.367  18.649  0.00  0.00    +0.000 C 
ENDBRANCH  18  20
BRANCH  18  21
ATOM     21  C   UNL     1       0.225  12.078  19.003  0.00  0.00    +0.000 C 
ATOM     22  C   UNL     1       1.729  12.264  19.182  0.00  0.00    +0.000 C 
ENDBRANCH  18  21
ENDBRANCH  17  18
ENDBRANCH  16  17
ENDBRANCH  15  16
ENDBRANCH  13  15
ENDBRANCH  11  13
ENDBRANCH   1  11
BRANCH   8  23
ATOM     23  O   UNL     1       6.306   5.964  17.737  0.00  0.00    +0.000 OA
BRANCH  23  24
ATOM     24  C   UNL     1       7.453   5.740  18.552  0.00  0.00    +0.000 C 
ATOM     25  F   UNL     1       8.319   6.774  18.597  0.00  0.00    +0.000 F 
ATOM     26  F   UNL     1       7.047   5.475  19.814  0.00  0.00    +0.000 F 
ATOM     27  F   UNL     1       8.111   4.656  18.086  0.00  0.00    +0.000 F 
ENDBRANCH  23  24
ENDBRANCH   8  23
TORSDOF 10
ENDMDL
MODEL 7
REMARK VINA RESULT:      -6.7      4.838      7.492
REMARK  Name = 
REMARK  13 active torsions:
REMARK  status: ('A' for Active; 'I' for Inactive)
REMARK    1  A    between atoms: C_1  and  C_2
REMARK    2  A    between atoms: C_2  and  N_3
REMARK    3  A    between atoms: N_3  and  C_4
REMARK    4  A    between atoms: N_3  and  C_6
REMARK    5  A    between atoms: C_4  and  C_5
REMARK    6  A    between atoms: C_6  and  C_7
REMARK    7  A    between atoms: C_7  and  C_8
REMARK    8  A    between atoms: C_8  and  C_9
REMARK    9  A    between atoms: C_9  and  C_10
REMARK   10  A    between atoms: C_9  and  N_11
REMARK   11  A    between atoms: N_11  and  C_12
REMARK   12  A    between atoms: C_19  and  O_20
REMARK   13  A    between atoms: O_20  and  C_21
REMARK                            x       y       z     vdW  Elec       q    Type
REMARK                         _______ _______ _______ _____ _____    ______ ____
ROOT
ATOM      1  C   UNL     1       2.105   5.108  20.254  0.00  0.00    +0.000 A 
ATOM      2  C   UNL     1       0.972   4.287  20.268  0.00  0.00    +0.000 A 
ATOM      3  C   UNL     1       0.951   3.137  19.506  0.00  0.00    +0.000 A 
ATOM      4  N   UNL     1       1.957   2.752  18.701  0.00  0.00    +0.000 NA
ATOM      5  C   UNL     1       3.034   3.536  18.636  0.00  0.00    +0.000 A 
ATOM      6  C   UNL     1       4.045   3.145  17.773  0.00  0.00    +0.000 A 
ATOM      7  C   UNL     1       5.213   3.890  17.604  0.00  0.00    +0.000 A 
ATOM      8  C   UNL     1       5.373   5.071  18.313  0.00  0.00    +0.000 A 
ATOM      9  C   UNL     1       4.389   5.463  19.222  0.00  0.00    +0.000 A 
ATOM     10  C   UNL     1       3.180   4.730  19.387  0.00  0.00    +0.000 A 
ENDROOT
BRANCH   1  11
ATOM     11  N   UNL     1       2.119   6.340  20.936  0.00  0.00    +0.000 N 
ATOM     12  H   UNL     1       2.128   6.235  21.943  0.00  0.00    +0.000 HD
BRANCH  11  13
ATOM     13  C   UNL     1       1.261   7.462  20.524  0.00  0.00    +0.000 C 
ATOM     14  C   UNL     1       1.957   8.183  19.365  0.00  0.00    +0.000 C 
BRANCH  13  15
ATOM     15  C   UNL     1       1.036   8.395  21.727  0.00  0.00    +0.000 C 
BRANCH  15  16
ATOM     16  C   UNL     1      -0.210   9.283  21.615  0.00  0.00    +0.000 C 
BRANCH  16  17
ATOM     17  C   UNL     1      -0.382  10.296  22.762  0.00  0.00    +0.000 C 
BRANCH  17  18
ATOM     18  N   UNL     1      -0.224  11.705  22.363  0.00  0.00    +0.000 NA
BRANCH  18  20
ATOM     19  C   UNL     1       1.014  12.627  20.359  0.00  0.00    +0.000 C 
ATOM     20  C   UNL     1      -0.183  11.852  20.897  0.00  0.00    +0.000 C 
ENDBRANCH  18  20
BRANCH  18  21
ATOM     21  C   UNL     1      -1.215  12.575  23.023  0.00  0.00    +0.000 C 
ATOM     22  C   UNL     1      -2.665  12.099  22.995  0.00  0.00    +0.000 C 
ENDBRANCH  18  21
ENDBRANCH  17  18
ENDBRANCH  16  17
ENDBRANCH  15  16
ENDBRANCH  13  15
ENDBRANCH  11  13
ENDBRANCH   1  11
BRANCH   8  23
ATOM     23  O   UNL     1       6.496   5.838  18.262  0.00  0.00    +0.000 OA
BRANCH  23  24
ATOM     24  C   UNL     1       6.747   6.544  17.051  0.00  0.00    +0.000 C 
ATOM     25  F   UNL     1       7.290   5.795  16.068  0.00  0.00    +0.000 F 
ATOM     26  F   UNL     1       5.582   7.058  16.595  0.00  0.00    +0.000 F 
ATOM     27  F   UNL     1       7.585   7.572  17.313  0.00  0.00    +0.000 F 
ENDBRANCH  23  24
ENDBRANCH   8  23
TORSDOF 10
ENDMDL
MODEL 8
REMARK VINA RESULT:      -6.7      4.505      7.407
REMARK  Name = 
REMARK  13 active torsions:
REMARK  status: ('A' for Active; 'I' for Inactive)
REMARK    1  A    between atoms: C_1  and  C_2
REMARK    2  A    between atoms: C_2  and  N_3
REMARK    3  A    between atoms: N_3  and  C_4
REMARK    4  A    between atoms: N_3  and  C_6
REMARK    5  A    between atoms: C_4  and  C_5
REMARK    6  A    between atoms: C_6  and  C_7
REMARK    7  A    between atoms: C_7  and  C_8
REMARK    8  A    between atoms: C_8  and  C_9
REMARK    9  A    between atoms: C_9  and  C_10
REMARK   10  A    between atoms: C_9  and  N_11
REMARK   11  A    between atoms: N_11  and  C_12
REMARK   12  A    between atoms: C_19  and  O_20
REMARK   13  A    between atoms: O_20  and  C_21
REMARK                            x       y       z     vdW  Elec       q    Type
REMARK                         _______ _______ _______ _____ _____    ______ ____
ROOT
ATOM      1  C   UNL     1       3.828   3.986  17.428  0.00  0.00    +0.000 A 
ATOM      2  C   UNL     1       3.831   2.598  17.601  0.00  0.00    +0.000 A 
ATOM      3  C   UNL     1       3.134   2.039  18.653  0.00  0.00    +0.000 A 
ATOM      4  N   UNL     1       2.460   2.753  19.571  0.00  0.00    +0.000 NA
ATOM      5  C   UNL     1       2.474   4.083  19.455  0.00  0.00    +0.000 A 
ATOM      6  C   UNL     1       1.807   4.805  20.431  0.00  0.00    +0.000 A 
ATOM      7  C   UNL     1       1.764   6.200  20.429  0.00  0.00    +0.000 A 
ATOM      8  C   UNL     1       2.418   6.898  19.425  0.00  0.00    +0.000 A 
ATOM      9  C   UNL     1       3.059   6.191  18.406  0.00  0.00    +0.000 A 
ATOM     10  C   UNL     1       3.136   4.770  18.406  0.00  0.00    +0.000 A 
ENDROOT
BRANCH   1  11
ATOM     11  N   UNL     1       4.612   4.597  16.430  0.00  0.00    +0.000 N 
ATOM     12  H   UNL     1       4.346   4.321  15.493  0.00  0.00    +0.000 HD
BRANCH  11  13
ATOM     13  C   UNL     1       6.074   4.710  16.557  0.00  0.00    +0.000 C 
ATOM     14  C   UNL     1       6.406   6.178  16.844  0.00  0.00    +0.000 C 
BRANCH  13  15
ATOM     15  C   UNL     1       6.733   4.217  15.257  0.00  0.00    +0.000 C 
BRANCH  15  16
ATOM     16  C   UNL     1       5.745   3.881  14.133  0.00  0.00    +0.000 C 
BRANCH  16  17
ATOM     17  C   UNL     1       6.318   4.015  12.710  0.00  0.00    +0.000 C 
BRANCH  17  18
ATOM     18  N   UNL     1       5.602   3.236  11.686  0.00  0.00    +0.000 NA
BRANCH  18  20
ATOM     19  C   UNL     1       6.914   1.258  10.812  0.00  0.00    +0.000 C 
ATOM     20  C   UNL     1       5.887   1.795  11.802  0.00  0.00    +0.000 C 
ENDBRANCH  18  20
BRANCH  18  21
ATOM     21  C   UNL     1       4.163   3.559  11.661  0.00  0.00    +0.000 C 
ATOM     22  C   UNL     1       3.509   3.647  10.285  0.00  0.00    +0.000 C 
ENDBRANCH  18  21
ENDBRANCH  17  18
ENDBRANCH  16  17
ENDBRANCH  15  16
ENDBRANCH  13  15
ENDBRANCH  11  13
ENDBRANCH   1  11
BRANCH   8  23
ATOM     23  O   UNL     1       2.389   8.253  19.302  0.00  0.00    +0.000 OA
BRANCH  23  24
ATOM     24  C   UNL     1       1.608   8.792  18.239  0.00  0.00    +0.000 C 
ATOM     25  F   UNL     1       2.257   9.687  17.465  0.00  0.00    +0.000 F 
ATOM     26  F   UNL     1       1.186   7.779  17.449  0.00  0.00    +0.000 F 
ATOM     27  F   UNL     1       0.519   9.396  18.764  0.00  0.00    +0.000 F 
ENDBRANCH  23  24
ENDBRANCH   8  23
TORSDOF 10
ENDMDL
MODEL 9
REMARK VINA RESULT:      -6.7      4.395      7.236
REMARK  Name = 
REMARK  13 active torsions:
REMARK  status: ('A' for Active; 'I' for Inactive)
REMARK    1  A    between atoms: C_1  and  C_2
REMARK    2  A    between atoms: C_2  and  N_3
REMARK    3  A    between atoms: N_3  and  C_4
REMARK    4  A    between atoms: N_3  and  C_6
REMARK    5  A    between atoms: C_4  and  C_5
REMARK    6  A    between atoms: C_6  and  C_7
REMARK    7  A    between atoms: C_7  and  C_8
REMARK    8  A    between atoms: C_8  and  C_9
REMARK    9  A    between atoms: C_9  and  C_10
REMARK   10  A    between atoms: C_9  and  N_11
REMARK   11  A    between atoms: N_11  and  C_12
REMARK   12  A    between atoms: C_19  and  O_20
REMARK   13  A    between atoms: O_20  and  C_21
REMARK                            x       y       z     vdW  Elec       q    Type
REMARK                         _______ _______ _______ _____ _____    ______ ____
ROOT
ATOM      1  C   UNL     1       3.741   3.903  17.445  0.00  0.00    +0.000 A 
ATOM      2  C   UNL     1       3.851   2.509  17.478  0.00  0.00    +0.000 A 
ATOM      3  C   UNL     1       3.246   1.799  18.495  0.00  0.00    +0.000 A 
ATOM      4  N   UNL     1       2.565   2.368  19.505  0.00  0.00    +0.000 NA
ATOM      5  C   UNL     1       2.478   3.700  19.522  0.00  0.00    +0.000 A 
ATOM      6  C   UNL     1       1.806   4.272  20.590  0.00  0.00    +0.000 A 
ATOM      7  C   UNL     1       1.662   5.653  20.729  0.00  0.00    +0.000 A 
ATOM      8  C   UNL     1       2.217   6.492  19.775  0.00  0.00    +0.000 A 
ATOM      9  C   UNL     1       2.860   5.938  18.666  0.00  0.00    +0.000 A 
ATOM     10  C   UNL     1       3.039   4.534  18.522  0.00  0.00    +0.000 A 
ENDROOT
BRANCH   1  11
ATOM     11  N   UNL     1       4.431   4.666  16.483  0.00  0.00    +0.000 N 
ATOM     12  H   UNL     1       4.212   4.396  15.531  0.00  0.00    +0.000 HD
BRANCH  11  13
ATOM     13  C   UNL     1       5.861   4.985  16.630  0.00  0.00    +0.000 C 
ATOM     14  C   UNL     1       5.992   6.508  16.724  0.00  0.00    +0.000 C 
BRANCH  13  15
ATOM     15  C   UNL     1       6.632   4.415  15.426  0.00  0.00    +0.000 C 
BRANCH  15  16
ATOM     16  C   UNL     1       5.748   4.024  14.235  0.00  0.00    +0.000 C 
BRANCH  16  17
ATOM     17  C   UNL     1       6.494   3.899  12.894  0.00  0.00    +0.000 C 
BRANCH  17  18
ATOM     18  N   UNL     1       5.713   3.269  11.816  0.00  0.00    +0.000 NA
BRANCH  18  20
ATOM     19  C   UNL     1       7.197   1.456  10.860  0.00  0.00    +0.000 C 
ATOM     20  C   UNL     1       5.992   1.825  11.717  0.00  0.00    +0.000 C 
ENDBRANCH  18  20
BRANCH  18  21
ATOM     21  C   UNL     1       4.279   3.594  11.918  0.00  0.00    +0.000 C 
ATOM     22  C   UNL     1       3.442   3.387  10.659  0.00  0.00    +0.000 C 
ENDBRANCH  18  21
ENDBRANCH  17  18
ENDBRANCH  16  17
ENDBRANCH  15  16
ENDBRANCH  13  15
ENDBRANCH  11  13
ENDBRANCH   1  11
BRANCH   8  23
ATOM     23  O   UNL     1       2.084   7.847  19.788  0.00  0.00    +0.000 OA
BRANCH  23  24
ATOM     24  C   UNL     1       1.244   8.408  20.793  0.00  0.00    +0.000 C 
ATOM     25  F   UNL     1       0.160   7.663  21.097  0.00  0.00    +0.000 F 
ATOM     26  F   UNL     1       1.967   8.580  21.922  0.00  0.00    +0.000 F 
ATOM     27  F   UNL     1       0.821   9.622  20.376  0.00  0.00    +0.000 F 
ENDBRANCH  23  24
ENDBRANCH   8  23
TORSDOF 10
ENDMDL
