MODEL 1
REMARK VINA RESULT:      -7.3      0.000      0.000
REMARK  Name = 
REMARK  6 active torsions:
REMARK  status: ('A' for Active; 'I' for Inactive)
REMARK    1  A    between atoms: C_2  and  C_3
REMARK    2  A    between atoms: C_3  and  C_13
REMARK    3  A    between atoms: C_4  and  C_5
REMARK    4  A    between atoms: C_8  and  O_9
REMARK    5  A    between atoms: C_10  and  O_11
REMARK    6  A    between atoms: N_15  and  C_16
REMARK                            x       y       z     vdW  Elec       q    Type
REMARK                         _______ _______ _______ _____ _____    ______ ____
ROOT
ATOM      1  C   UNL     1       2.739   7.057  18.137  0.00  0.00    +0.000 C 
ATOM      2  C   UNL     1       2.151   5.986  18.709  0.00  0.00    +0.000 C 
ENDROOT
BRANCH   2   3
ATOM      3  C   UNL     1       2.636   4.603  18.585  0.00  0.00    +0.000 A 
ATOM      4  C   UNL     1       2.030   3.708  17.688  0.00  0.00    +0.000 A 
ATOM      5  C   UNL     1       2.487   2.385  17.582  0.00  0.00    +0.000 A 
ATOM      6  C   UNL     1       3.546   1.969  18.376  0.00  0.00    +0.000 A 
ATOM      7  C   UNL     1       4.149   2.855  19.262  0.00  0.00    +0.000 A 
ATOM      8  C   UNL     1       3.706   4.167  19.378  0.00  0.00    +0.000 A 
BRANCH   6   9
ATOM      9  O   UNL     1       4.036   0.691  18.322  0.00  0.00    +0.000 OA
ATOM     10  H   UNL     1       4.018   0.318  19.219  0.00  0.00    +0.000 HD
ENDBRANCH   6   9
BRANCH   7  11
ATOM     11  O   UNL     1       5.194   2.437  20.037  0.00  0.00    +0.000 OA
ATOM     12  H   UNL     1       4.781   2.161  20.880  0.00  0.00    +0.000 HD
ENDBRANCH   7  11
ENDBRANCH   2   3
BRANCH   1  13
ATOM     13  C   UNL     1       2.130   8.414  18.295  0.00  0.00    +0.000 C 
ATOM     14  O   UNL     1       2.400   9.284  17.470  0.00  0.00    +0.000 OA
ATOM     15  N   UNL     1       1.327   8.586  19.413  0.00  0.00    +0.000 N 
ATOM     16  H   UNL     1       1.269   7.847  20.105  0.00  0.00    +0.000 HD
BRANCH  15  17
ATOM     17  C   UNL     1       0.649   9.777  19.767  0.00  0.00    +0.000 A 
ATOM     18  C   UNL     1       0.983  10.541  20.886  0.00  0.00    +0.000 A 
ATOM     19  C   UNL     1       0.252  11.685  21.214  0.00  0.00    +0.000 A 
ATOM     20  C   UNL     1      -0.819  12.081  20.419  0.00  0.00    +0.000 A 
ATOM     21  C   UNL     1      -1.143  11.345  19.282  0.00  0.00    +0.000 A 
ATOM     22  C   UNL     1      -0.405  10.203  18.948  0.00  0.00    +0.000 A 
ENDBRANCH  15  17
ENDBRANCH   1  13
BRANCH   1  24
ATOM     23  N   UNL     1       5.061   6.748  16.638  0.00  0.00    +0.000 NA
ATOM     24  C   UNL     1       4.008   6.889  17.318  0.00  0.00    +0.000 C 
ENDBRANCH   1  24
TORSDOF 6
ENDMDL
MODEL 2
REMARK VINA RESULT:      -7.2      0.138      1.058
REMARK  Name = 
REMARK  6 active torsions:
REMARK  status: ('A' for Active; 'I' for Inactive)
REMARK    1  A    between atoms: C_2  and  C_3
REMARK    2  A    between atoms: C_3  and  C_13
REMARK    3  A    between atoms: C_4  and  C_5
REMARK    4  A    between atoms: C_8  and  O_9
REMARK    5  A    between atoms: C_10  and  O_11
REMARK    6  A    between atoms: N_15  and  C_16
REMARK                            x       y       z     vdW  Elec       q    Type
REMARK                         _______ _______ _______ _____ _____    ______ ____
ROOT
ATOM      1  C   UNL     1       2.813   7.007  18.078  0.00  0.00    +0.000 C 
ATOM      2  C   UNL     1       2.219   5.947  18.663  0.00  0.00    +0.000 C 
ENDROOT
BRANCH   2   3
ATOM      3  C   UNL     1       2.694   4.559  18.556  0.00  0.00    +0.000 A 
ATOM      4  C   UNL     1       2.112   3.670  17.638  0.00  0.00    +0.000 A 
ATOM      5  C   UNL     1       2.559   2.342  17.548  0.00  0.00    +0.000 A 
ATOM      6  C   UNL     1       3.586   1.916  18.379  0.00  0.00    +0.000 A 
ATOM      7  C   UNL     1       4.165   2.797  19.286  0.00  0.00    +0.000 A 
ATOM      8  C   UNL     1       3.731   4.113  19.386  0.00  0.00    +0.000 A 
BRANCH   6   9
ATOM      9  O   UNL     1       4.064   0.633  18.341  0.00  0.00    +0.000 OA
ATOM     10  H   UNL     1       4.304   0.370  19.245  0.00  0.00    +0.000 HD
ENDBRANCH   6   9
BRANCH   7  11
ATOM     11  O   UNL     1       5.178   2.368  20.097  0.00  0.00    +0.000 OA
ATOM     12  H   UNL     1       5.665   3.183  20.335  0.00  0.00    +0.000 HD
ENDBRANCH   7  11
ENDBRANCH   2   3
BRANCH   1  13
ATOM     13  C   UNL     1       2.214   8.369  18.219  0.00  0.00    +0.000 C 
ATOM     14  O   UNL     1       2.561   9.253  17.438  0.00  0.00    +0.000 OA
ATOM     15  N   UNL     1       1.327   8.529  19.274  0.00  0.00    +0.000 N 
ATOM     16  H   UNL     1       1.203   7.776  19.942  0.00  0.00    +0.000 HD
BRANCH  15  17
ATOM     17  C   UNL     1       0.641   9.723  19.601  0.00  0.00    +0.000 A 
ATOM     18  C   UNL     1      -0.389  10.250  18.820  0.00  0.00    +0.000 A 
ATOM     19  C   UNL     1      -1.003  11.456  19.166  0.00  0.00    +0.000 A 
ATOM     20  C   UNL     1      -0.596  12.146  20.303  0.00  0.00    +0.000 A 
ATOM     21  C   UNL     1       0.410  11.616  21.108  0.00  0.00    +0.000 A 
ATOM     22  C   UNL     1       1.018  10.402  20.767  0.00  0.00    +0.000 A 
ENDBRANCH  15  17
ENDBRANCH   1  13
BRANCH   1  24
ATOM     23  N   UNL     1       5.133   6.664  16.582  0.00  0.00    +0.000 NA
ATOM     24  C   UNL     1       4.081   6.820  17.260  0.00  0.00    +0.000 C 
ENDBRANCH   1  24
TORSDOF 6
ENDMDL
MODEL 3
REMARK VINA RESULT:      -7.2      1.340      1.348
REMARK  Name = 
REMARK  6 active torsions:
REMARK  status: ('A' for Active; 'I' for Inactive)
REMARK    1  A    between atoms: C_2  and  C_3
REMARK    2  A    between atoms: C_3  and  C_13
REMARK    3  A    between atoms: C_4  and  C_5
REMARK    4  A    between atoms: C_8  and  O_9
REMARK    5  A    between atoms: C_10  and  O_11
REMARK    6  A    between atoms: N_15  and  C_16
REMARK                            x       y       z     vdW  Elec       q    Type
REMARK                         _______ _______ _______ _____ _____    ______ ____
ROOT
ATOM      1  C   UNL     1       2.509   6.829  18.880  0.00  0.00    +0.000 C 
ATOM      2  C   UNL     1       2.076   5.677  19.434  0.00  0.00    +0.000 C 
ENDROOT
BRANCH   2   3
ATOM      3  C   UNL     1       2.587   4.342  19.091  0.00  0.00    +0.000 A 
ATOM      4  C   UNL     1       1.988   3.583  18.072  0.00  0.00    +0.000 A 
ATOM      5  C   UNL     1       2.470   2.303  17.757  0.00  0.00    +0.000 A 
ATOM      6  C   UNL     1       3.549   1.793  18.465  0.00  0.00    +0.000 A 
ATOM      7  C   UNL     1       4.146   2.545  19.471  0.00  0.00    +0.000 A 
ATOM      8  C   UNL     1       3.677   3.812  19.795  0.00  0.00    +0.000 A 
BRANCH   6   9
ATOM      9  O   UNL     1       4.065   0.551  18.207  0.00  0.00    +0.000 OA
ATOM     10  H   UNL     1       3.517  -0.109  18.663  0.00  0.00    +0.000 HD
ENDBRANCH   6   9
BRANCH   7  11
ATOM     11  O   UNL     1       5.211   2.035  20.160  0.00  0.00    +0.000 OA
ATOM     12  H   UNL     1       4.845   1.270  20.648  0.00  0.00    +0.000 HD
ENDBRANCH   7  11
ENDBRANCH   2   3
BRANCH   1  13
ATOM     13  C   UNL     1       1.882   8.127  19.275  0.00  0.00    +0.000 C 
ATOM     14  O   UNL     1       1.662   8.342  20.465  0.00  0.00    +0.000 OA
ATOM     15  N   UNL     1       1.557   8.980  18.229  0.00  0.00    +0.000 N 
ATOM     16  H   UNL     1       1.659   8.659  17.273  0.00  0.00    +0.000 HD
BRANCH  15  17
ATOM     17  C   UNL     1       0.959  10.256  18.361  0.00  0.00    +0.000 A 
ATOM     18  C   UNL     1       1.695  11.429  18.537  0.00  0.00    +0.000 A 
ATOM     19  C   UNL     1       1.052  12.657  18.706  0.00  0.00    +0.000 A 
ATOM     20  C   UNL     1      -0.338  12.725  18.695  0.00  0.00    +0.000 A 
ATOM     21  C   UNL     1      -1.084  11.567  18.489  0.00  0.00    +0.000 A 
ATOM     22  C   UNL     1      -0.439  10.337  18.310  0.00  0.00    +0.000 A 
ENDBRANCH  15  17
ENDBRANCH   1  13
BRANCH   1  24
ATOM     23  N   UNL     1       4.542   6.793  16.983  0.00  0.00    +0.000 NA
ATOM     24  C   UNL     1       3.620   6.809  17.843  0.00  0.00    +0.000 C 
ENDBRANCH   1  24
TORSDOF 6
ENDMDL
MODEL 4
REMARK VINA RESULT:      -7.2      1.349      1.612
REMARK  Name = 
REMARK  6 active torsions:
REMARK  status: ('A' for Active; 'I' for Inactive)
REMARK    1  A    between atoms: C_2  and  C_3
REMARK    2  A    between atoms: C_3  and  C_13
REMARK    3  A    between atoms: C_4  and  C_5
REMARK    4  A    between atoms: C_8  and  O_9
REMARK    5  A    between atoms: C_10  and  O_11
REMARK    6  A    between atoms: N_15  and  C_16
REMARK                            x       y       z     vdW  Elec       q    Type
REMARK                         _______ _______ _______ _____ _____    ______ ____
ROOT
ATOM      1  C   UNL     1       2.503   6.844  18.897  0.00  0.00    +0.000 C 
ATOM      2  C   UNL     1       2.080   5.690  19.453  0.00  0.00    +0.000 C 
ENDROOT
BRANCH   2   3
ATOM      3  C   UNL     1       2.592   4.357  19.100  0.00  0.00    +0.000 A 
ATOM      4  C   UNL     1       2.002   3.613  18.065  0.00  0.00    +0.000 A 
ATOM      5  C   UNL     1       2.485   2.335  17.740  0.00  0.00    +0.000 A 
ATOM      6  C   UNL     1       3.553   1.813  18.455  0.00  0.00    +0.000 A 
ATOM      7  C   UNL     1       4.140   2.551  19.478  0.00  0.00    +0.000 A 
ATOM      8  C   UNL     1       3.671   3.815  19.811  0.00  0.00    +0.000 A 
BRANCH   6   9
ATOM      9  O   UNL     1       4.068   0.572  18.188  0.00  0.00    +0.000 OA
ATOM     10  H   UNL     1       3.860  -0.012  18.936  0.00  0.00    +0.000 HD
ENDBRANCH   6   9
BRANCH   7  11
ATOM     11  O   UNL     1       5.194   2.029  20.173  0.00  0.00    +0.000 OA
ATOM     12  H   UNL     1       5.878   2.729  20.147  0.00  0.00    +0.000 HD
ENDBRANCH   7  11
ENDBRANCH   2   3
BRANCH   1  13
ATOM     13  C   UNL     1       1.878   8.140  19.302  0.00  0.00    +0.000 C 
ATOM     14  O   UNL     1       1.623   8.329  20.490  0.00  0.00    +0.000 OA
ATOM     15  N   UNL     1       1.594   9.020  18.268  0.00  0.00    +0.000 N 
ATOM     16  H   UNL     1       1.721   8.721  17.308  0.00  0.00    +0.000 HD
BRANCH  15  17
ATOM     17  C   UNL     1       1.004  10.299  18.411  0.00  0.00    +0.000 A 
ATOM     18  C   UNL     1      -0.375  10.500  18.486  0.00  0.00    +0.000 A 
ATOM     19  C   UNL     1      -0.905  11.788  18.583  0.00  0.00    +0.000 A 
ATOM     20  C   UNL     1      -0.058  12.891  18.612  0.00  0.00    +0.000 A 
ATOM     21  C   UNL     1       1.321  12.703  18.569  0.00  0.00    +0.000 A 
ATOM     22  C   UNL     1       1.853  11.411  18.482  0.00  0.00    +0.000 A 
ENDBRANCH  15  17
ENDBRANCH   1  13
BRANCH   1  24
ATOM     23  N   UNL     1       4.514   6.820  16.975  0.00  0.00    +0.000 NA
ATOM     24  C   UNL     1       3.602   6.831  17.847  0.00  0.00    +0.000 C 
ENDBRANCH   1  24
TORSDOF 6
ENDMDL
MODEL 5
REMARK VINA RESULT:      -7.1      1.096      1.465
REMARK  Name = 
REMARK  6 active torsions:
REMARK  status: ('A' for Active; 'I' for Inactive)
REMARK    1  A    between atoms: C_2  and  C_3
REMARK    2  A    between atoms: C_3  and  C_13
REMARK    3  A    between atoms: C_4  and  C_5
REMARK    4  A    between atoms: C_8  and  O_9
REMARK    5  A    between atoms: C_10  and  O_11
REMARK    6  A    between atoms: N_15  and  C_16
REMARK                            x       y       z     vdW  Elec       q    Type
REMARK                         _______ _______ _______ _____ _____    ______ ____
ROOT
ATOM      1  C   UNL     1       2.499   6.842  18.931  0.00  0.00    +0.000 C 
ATOM      2  C   UNL     1       2.077   5.685  19.482  0.00  0.00    +0.000 C 
ENDROOT
BRANCH   2   3
ATOM      3  C   UNL     1       2.584   4.353  19.120  0.00  0.00    +0.000 A 
ATOM      4  C   UNL     1       2.001   3.623  18.071  0.00  0.00    +0.000 A 
ATOM      5  C   UNL     1       2.480   2.347  17.737  0.00  0.00    +0.000 A 
ATOM      6  C   UNL     1       3.539   1.811  18.456  0.00  0.00    +0.000 A 
ATOM      7  C   UNL     1       4.120   2.535  19.492  0.00  0.00    +0.000 A 
ATOM      8  C   UNL     1       3.654   3.798  19.835  0.00  0.00    +0.000 A 
BRANCH   6   9
ATOM      9  O   UNL     1       4.050   0.571  18.181  0.00  0.00    +0.000 OA
ATOM     10  H   UNL     1       5.019   0.633  18.175  0.00  0.00    +0.000 HD
ENDBRANCH   6   9
BRANCH   7  11
ATOM     11  O   UNL     1       5.165   2.000  20.193  0.00  0.00    +0.000 OA
ATOM     12  H   UNL     1       4.772   1.255  20.691  0.00  0.00    +0.000 HD
ENDBRANCH   7  11
ENDBRANCH   2   3
BRANCH   1  13
ATOM     13  C   UNL     1       1.877   8.136  19.346  0.00  0.00    +0.000 C 
ATOM     14  O   UNL     1       1.972   9.106  18.598  0.00  0.00    +0.000 OA
ATOM     15  N   UNL     1       1.268   8.137  20.593  0.00  0.00    +0.000 N 
ATOM     16  H   UNL     1       1.354   7.324  21.192  0.00  0.00    +0.000 HD
BRANCH  15  17
ATOM     17  C   UNL     1       0.617   9.242  21.192  0.00  0.00    +0.000 A 
ATOM     18  C   UNL     1       0.610  10.520  20.630  0.00  0.00    +0.000 A 
ATOM     19  C   UNL     1      -0.011  11.585  21.286  0.00  0.00    +0.000 A 
ATOM     20  C   UNL     1      -0.638  11.381  22.510  0.00  0.00    +0.000 A 
ATOM     21  C   UNL     1      -0.666  10.105  23.067  0.00  0.00    +0.000 A 
ATOM     22  C   UNL     1      -0.052   9.035  22.406  0.00  0.00    +0.000 A 
ENDBRANCH  15  17
ENDBRANCH   1  13
BRANCH   1  24
ATOM     23  N   UNL     1       4.502   6.825  17.001  0.00  0.00    +0.000 NA
ATOM     24  C   UNL     1       3.594   6.832  17.876  0.00  0.00    +0.000 C 
ENDBRANCH   1  24
TORSDOF 6
ENDMDL
MODEL 6
REMARK VINA RESULT:      -7.1      4.512      7.266
REMARK  Name = 
REMARK  6 active torsions:
REMARK  status: ('A' for Active; 'I' for Inactive)
REMARK    1  A    between atoms: C_2  and  C_3
REMARK    2  A    between atoms: C_3  and  C_13
REMARK    3  A    between atoms: C_4  and  C_5
REMARK    4  A    between atoms: C_8  and  O_9
REMARK    5  A    between atoms: C_10  and  O_11
REMARK    6  A    between atoms: N_15  and  C_16
REMARK                            x       y       z     vdW  Elec       q    Type
REMARK                         _______ _______ _______ _____ _____    ______ ____
ROOT
ATOM      1  C   UNL     1       4.648   4.803  17.494  0.00  0.00    +0.000 C 
ATOM      2  C   UNL     1       3.422   4.256  17.624  0.00  0.00    +0.000 C 
ENDROOT
BRANCH   2   3
ATOM      3  C   UNL     1       2.829   3.830  18.900  0.00  0.00    +0.000 A 
ATOM      4  C   UNL     1       1.549   4.269  19.279  0.00  0.00    +0.000 A 
ATOM      5  C   UNL     1       0.992   3.871  20.505  0.00  0.00    +0.000 A 
ATOM      6  C   UNL     1       1.720   3.037  21.341  0.00  0.00    +0.000 A 
ATOM      7  C   UNL     1       2.985   2.598  20.964  0.00  0.00    +0.000 A 
ATOM      8  C   UNL     1       3.550   2.986  19.755  0.00  0.00    +0.000 A 
BRANCH   6   9
ATOM      9  O   UNL     1       1.233   2.615  22.549  0.00  0.00    +0.000 OA
ATOM     10  H   UNL     1       1.861   1.976  22.926  0.00  0.00    +0.000 HD
ENDBRANCH   6   9
BRANCH   7  11
ATOM     11  O   UNL     1       3.693   1.774  21.793  0.00  0.00    +0.000 OA
ATOM     12  H   UNL     1       4.240   1.228  21.191  0.00  0.00    +0.000 HD
ENDBRANCH   7  11
ENDBRANCH   2   3
BRANCH   1  13
ATOM     13  C   UNL     1       5.167   5.157  16.137  0.00  0.00    +0.000 C 
ATOM     14  O   UNL     1       5.063   6.318  15.747  0.00  0.00    +0.000 OA
ATOM     15  N   UNL     1       5.695   4.104  15.403  0.00  0.00    +0.000 N 
ATOM     16  H   UNL     1       5.619   3.159  15.759  0.00  0.00    +0.000 HD
BRANCH  15  17
ATOM     17  C   UNL     1       6.242   4.200  14.101  0.00  0.00    +0.000 A 
ATOM     18  C   UNL     1       5.776   3.449  13.021  0.00  0.00    +0.000 A 
ATOM     19  C   UNL     1       6.382   3.550  11.766  0.00  0.00    +0.000 A 
ATOM     20  C   UNL     1       7.459   4.411  11.578  0.00  0.00    +0.000 A 
ATOM     21  C   UNL     1       7.914   5.189  12.640  0.00  0.00    +0.000 A 
ATOM     22  C   UNL     1       7.301   5.094  13.895  0.00  0.00    +0.000 A 
ENDBRANCH  15  17
ENDBRANCH   1  13
BRANCH   1  24
ATOM     23  N   UNL     1       6.228   5.249  19.739  0.00  0.00    +0.000 NA
ATOM     24  C   UNL     1       5.512   5.047  18.721  0.00  0.00    +0.000 C 
ENDBRANCH   1  24
TORSDOF 6
ENDMDL
MODEL 7
REMARK VINA RESULT:      -7.1      4.460      7.218
REMARK  Name = 
REMARK  6 active torsions:
REMARK  status: ('A' for Active; 'I' for Inactive)
REMARK    1  A    between atoms: C_2  and  C_3
REMARK    2  A    between atoms: C_3  and  C_13
REMARK    3  A    between atoms: C_4  and  C_5
REMARK    4  A    between atoms: C_8  and  O_9
REMARK    5  A    between atoms: C_10  and  O_11
REMARK    6  A    between atoms: N_15  and  C_16
REMARK                            x       y       z     vdW  Elec       q    Type
REMARK                         _______ _______ _______ _____ _____    ______ ____
ROOT
ATOM      1  C   UNL     1       4.764   4.885  17.493  0.00  0.00    +0.000 C 
ATOM      2  C   UNL     1       3.530   4.351  17.605  0.00  0.00    +0.000 C 
ENDROOT
BRANCH   2   3
ATOM      3  C   UNL     1       2.919   3.922  18.872  0.00  0.00    +0.000 A 
ATOM      4  C   UNL     1       1.652   4.392  19.254  0.00  0.00    +0.000 A 
ATOM      5  C   UNL     1       1.078   3.990  20.470  0.00  0.00    +0.000 A 
ATOM      6  C   UNL     1       1.777   3.120  21.294  0.00  0.00    +0.000 A 
ATOM      7  C   UNL     1       3.030   2.650  20.915  0.00  0.00    +0.000 A 
ATOM      8  C   UNL     1       3.611   3.042  19.715  0.00  0.00    +0.000 A 
BRANCH   6   9
ATOM      9  O   UNL     1       1.273   2.692  22.493  0.00  0.00    +0.000 OA
ATOM     10  H   UNL     1       1.290   1.721  22.504  0.00  0.00    +0.000 HD
ENDBRANCH   6   9
BRANCH   7  11
ATOM     11  O   UNL     1       3.709   1.790  21.732  0.00  0.00    +0.000 OA
ATOM     12  H   UNL     1       3.697   2.223  22.610  0.00  0.00    +0.000 HD
ENDBRANCH   7  11
ENDBRANCH   2   3
BRANCH   1  13
ATOM     13  C   UNL     1       5.301   5.244  16.144  0.00  0.00    +0.000 C 
ATOM     14  O   UNL     1       5.195   6.405  15.754  0.00  0.00    +0.000 OA
ATOM     15  N   UNL     1       5.847   4.197  15.416  0.00  0.00    +0.000 N 
ATOM     16  H   UNL     1       5.771   3.250  15.770  0.00  0.00    +0.000 HD
BRANCH  15  17
ATOM     17  C   UNL     1       6.412   4.298  14.123  0.00  0.00    +0.000 A 
ATOM     18  C   UNL     1       7.454   5.173  13.812  0.00  0.00    +0.000 A 
ATOM     19  C   UNL     1       7.946   5.264  12.508  0.00  0.00    +0.000 A 
ATOM     20  C   UNL     1       7.402   4.474  11.500  0.00  0.00    +0.000 A 
ATOM     21  C   UNL     1       6.382   3.575  11.803  0.00  0.00    +0.000 A 
ATOM     22  C   UNL     1       5.897   3.476  13.112  0.00  0.00    +0.000 A 
ENDBRANCH  15  17
ENDBRANCH   1  13
BRANCH   1  24
ATOM     23  N   UNL     1       6.327   5.292  19.757  0.00  0.00    +0.000 NA
ATOM     24  C   UNL     1       5.618   5.108  18.730  0.00  0.00    +0.000 C 
ENDBRANCH   1  24
TORSDOF 6
ENDMDL
MODEL 8
REMARK VINA RESULT:      -7.1      1.140      1.404
REMARK  Name = 
REMARK  6 active torsions:
REMARK  status: ('A' for Active; 'I' for Inactive)
REMARK    1  A    between atoms: C_2  and  C_3
REMARK    2  A    between atoms: C_3  and  C_13
REMARK    3  A    between atoms: C_4  and  C_5
REMARK    4  A    between atoms: C_8  and  O_9
REMARK    5  A    between atoms: C_10  and  O_11
REMARK    6  A    between atoms: N_15  and  C_16
REMARK                            x       y       z     vdW  Elec       q    Type
REMARK                         _______ _______ _______ _____ _____    ______ ____
ROOT
ATOM      1  C   UNL     1       2.427   6.835  19.020  0.00  0.00    +0.000 C 
ATOM      2  C   UNL     1       2.024   5.665  19.558  0.00  0.00    +0.000 C 
ENDROOT
BRANCH   2   3
ATOM      3  C   UNL     1       2.551   4.346  19.177  0.00  0.00    +0.000 A 
ATOM      4  C   UNL     1       1.967   3.613  18.131  0.00  0.00    +0.000 A 
ATOM      5  C   UNL     1       2.464   2.348  17.779  0.00  0.00    +0.000 A 
ATOM      6  C   UNL     1       3.544   1.828  18.478  0.00  0.00    +0.000 A 
ATOM      7  C   UNL     1       4.127   2.554  19.511  0.00  0.00    +0.000 A 
ATOM      8  C   UNL     1       3.643   3.806  19.871  0.00  0.00    +0.000 A 
BRANCH   6   9
ATOM      9  O   UNL     1       4.075   0.600  18.185  0.00  0.00    +0.000 OA
ATOM     10  H   UNL     1       3.344  -0.032  18.081  0.00  0.00    +0.000 HD
ENDBRANCH   6   9
BRANCH   7  11
ATOM     11  O   UNL     1       5.193   2.034  20.191  0.00  0.00    +0.000 OA
ATOM     12  H   UNL     1       5.012   2.243  21.130  0.00  0.00    +0.000 HD
ENDBRANCH   7  11
ENDBRANCH   2   3
BRANCH   1  13
ATOM     13  C   UNL     1       1.786   8.114  19.454  0.00  0.00    +0.000 C 
ATOM     14  O   UNL     1       1.767   9.062  18.672  0.00  0.00    +0.000 OA
ATOM     15  N   UNL     1       1.293   8.129  20.751  0.00  0.00    +0.000 N 
ATOM     16  H   UNL     1       1.471   7.341  21.363  0.00  0.00    +0.000 HD
BRANCH  15  17
ATOM     17  C   UNL     1       0.648   9.224  21.376  0.00  0.00    +0.000 A 
ATOM     18  C   UNL     1      -0.139   9.094  22.521  0.00  0.00    +0.000 A 
ATOM     19  C   UNL     1      -0.789  10.201  23.071  0.00  0.00    +0.000 A 
ATOM     20  C   UNL     1      -0.652  11.454  22.482  0.00  0.00    +0.000 A 
ATOM     21  C   UNL     1       0.155  11.603  21.357  0.00  0.00    +0.000 A 
ATOM     22  C   UNL     1       0.814  10.495  20.811  0.00  0.00    +0.000 A 
ENDBRANCH  15  17
ENDBRANCH   1  13
BRANCH   1  24
ATOM     23  N   UNL     1       4.424   6.874  17.085  0.00  0.00    +0.000 NA
ATOM     24  C   UNL     1       3.518   6.856  17.963  0.00  0.00    +0.000 C 
ENDBRANCH   1  24
TORSDOF 6
ENDMDL
MODEL 9
REMARK VINA RESULT:      -7.0      3.818      7.059
REMARK  Name = 
REMARK  6 active torsions:
REMARK  status: ('A' for Active; 'I' for Inactive)
REMARK    1  A    between atoms: C_2  and  C_3
REMARK    2  A    between atoms: C_3  and  C_13
REMARK    3  A    between atoms: C_4  and  C_5
REMARK    4  A    between atoms: C_8  and  O_9
REMARK    5  A    between atoms: C_10  and  O_11
REMARK    6  A    between atoms: N_15  and  C_16
REMARK                            x       y       z     vdW  Elec       q    Type
REMARK                         _______ _______ _______ _____ _____    ______ ____
ROOT
ATOM      1  C   UNL     1       3.996   5.248  17.253  0.00  0.00    +0.000 C 
ATOM      2  C   UNL     1       3.770   3.981  17.656  0.00  0.00    +0.000 C 
ENDROOT
BRANCH   2   3
ATOM      3  C   UNL     1       2.977   3.609  18.838  0.00  0.00    +0.000 A 
ATOM      4  C   UNL     1       1.606   3.904  18.904  0.00  0.00    +0.000 A 
ATOM      5  C   UNL     1       0.856   3.560  20.040  0.00  0.00    +0.000 A 
ATOM      6  C   UNL     1       1.486   2.924  21.100  0.00  0.00    +0.000 A 
ATOM      7  C   UNL     1       2.843   2.628  21.034  0.00  0.00    +0.000 A 
ATOM      8  C   UNL     1       3.597   2.965  19.916  0.00  0.00    +0.000 A 
BRANCH   6   9
ATOM      9  O   UNL     1       0.811   2.565  22.236  0.00  0.00    +0.000 OA
ATOM     10  H   UNL     1       1.137   1.697  22.525  0.00  0.00    +0.000 HD
ENDBRANCH   6   9
BRANCH   7  11
ATOM     11  O   UNL     1       3.454   1.998  22.082  0.00  0.00    +0.000 OA
ATOM     12  H   UNL     1       3.721   2.723  22.683  0.00  0.00    +0.000 HD
ENDBRANCH   7  11
ENDBRANCH   2   3
BRANCH   1  13
ATOM     13  C   UNL     1       4.857   5.508  16.058  0.00  0.00    +0.000 C 
ATOM     14  O   UNL     1       5.119   6.671  15.759  0.00  0.00    +0.000 OA
ATOM     15  N   UNL     1       5.258   4.383  15.351  0.00  0.00    +0.000 N 
ATOM     16  H   UNL     1       4.884   3.476  15.601  0.00  0.00    +0.000 HD
BRANCH  15  17
ATOM     17  C   UNL     1       6.072   4.385  14.193  0.00  0.00    +0.000 A 
ATOM     18  C   UNL     1       7.223   5.165  14.070  0.00  0.00    +0.000 A 
ATOM     19  C   UNL     1       7.965   5.162  12.887  0.00  0.00    +0.000 A 
ATOM     20  C   UNL     1       7.567   4.370  11.815  0.00  0.00    +0.000 A 
ATOM     21  C   UNL     1       6.439   3.563  11.936  0.00  0.00    +0.000 A 
ATOM     22  C   UNL     1       5.699   3.559  13.124  0.00  0.00    +0.000 A 
ENDBRANCH  15  17
ENDBRANCH   1  13
BRANCH   1  24
ATOM     23  N   UNL     1       2.892   7.382  18.654  0.00  0.00    +0.000 NA
ATOM     24  C   UNL     1       3.392   6.415  18.018  0.00  0.00    +0.000 C 
ENDBRANCH   1  24
TORSDOF 6
ENDMDL
