MODEL 1
REMARK VINA RESULT:      -9.1      0.000      0.000
REMARK  Name = 
REMARK  7 active torsions:
REMARK  status: ('A' for Active; 'I' for Inactive)
REMARK    1  A    between atoms: C_1  and  N_2
REMARK    2  A    between atoms: N_5  and  C_6
REMARK    3  A    between atoms: C_6  and  C_7
REMARK    4  A    between atoms: C_6  and  C_19
REMARK    5  A    between atoms: C_7  and  N_8
REMARK    6  A    between atoms: C_9  and  C_11
REMARK    7  A    between atoms: N_27  and  C_28
REMARK                            x       y       z     vdW  Elec       q    Type
REMARK                         _______ _______ _______ _____ _____    ______ ____
ROOT
ATOM      1  C   UNL     1       3.794   5.827  18.498  0.00  0.00    +0.000 C 
ENDROOT
BRANCH   1   2
ATOM      2  C   UNL     1       2.830   7.008  18.745  0.00  0.00    +0.000 A 
ATOM      3  C   UNL     1       2.531   7.903  17.687  0.00  0.00    +0.000 A 
ATOM      4  C   UNL     1       1.759   9.059  17.894  0.00  0.00    +0.000 A 
ATOM      5  C   UNL     1       1.224   9.298  19.145  0.00  0.00    +0.000 A 
ATOM      6  C   UNL     1       1.448   8.375  20.170  0.00  0.00    +0.000 A 
ATOM      7  C   UNL     1       2.247   7.251  20.000  0.00  0.00    +0.000 A 
ATOM      8  C   UNL     1       0.736   8.832  21.401  0.00  0.00    +0.000 C 
ATOM      9  C   UNL     1      -0.202   9.890  20.790  0.00  0.00    +0.000 C 
ATOM     10  N   UNL     1       0.465  10.399  19.579  0.00  0.00    +0.000 N 
ATOM     11  C   UNL     1      -0.320  11.135  18.606  0.00  0.00    +0.000 C 
ENDBRANCH   1   2
BRANCH   1  16
ATOM     12  C   UNL     1       1.777   2.308  21.143  0.00  0.00    +0.000 C 
ATOM     13  N   UNL     1       2.058   2.747  19.781  0.00  0.00    +0.000 NA
ATOM     14  C   UNL     1       3.505   2.852  19.520  0.00  0.00    +0.000 C 
ATOM     15  C   UNL     1       3.788   3.363  18.080  0.00  0.00    +0.000 C 
ATOM     16  N   UNL     1       3.173   4.681  17.747  0.00  0.00    +0.000 NA
ATOM     17  C   UNL     1       1.719   4.499  18.040  0.00  0.00    +0.000 C 
ATOM     18  C   UNL     1       1.390   4.025  19.476  0.00  0.00    +0.000 C 
ENDBRANCH   1  16
BRANCH   1  19
ATOM     19  C   UNL     1       5.121   6.366  17.857  0.00  0.00    +0.000 C 
BRANCH  19  20
ATOM     20  N   UNL     1       5.395   5.932  16.496  0.00  0.00    +0.000 N 
ATOM     21  C   UNL     1       6.566   5.282  16.182  0.00  0.00    +0.000 C 
ATOM     22  O   UNL     1       7.423   4.990  17.006  0.00  0.00    +0.000 OA
ATOM     23  H   UNL     1       4.627   5.990  15.832  0.00  0.00    +0.000 HD
BRANCH  21  24
ATOM     24  C   UNL     1       6.759   4.912  14.749  0.00  0.00    +0.000 A 
ATOM     25  C   UNL     1       7.746   5.530  13.962  0.00  0.00    +0.000 A 
ATOM     26  C   UNL     1       7.923   5.147  12.630  0.00  0.00    +0.000 A 
ATOM     27  C   UNL     1       7.121   4.144  12.092  0.00  0.00    +0.000 A 
ATOM     28  F   UNL     1       7.300   3.776  10.817  0.00  0.00    +0.000 F 
ATOM     29  C   UNL     1       6.152   3.525  12.872  0.00  0.00    +0.000 A 
ATOM     30  F   UNL     1       5.388   2.556  12.347  0.00  0.00    +0.000 F 
ATOM     31  C   UNL     1       5.967   3.897  14.201  0.00  0.00    +0.000 A 
ENDBRANCH  21  24
ENDBRANCH  19  20
ENDBRANCH   1  19
TORSDOF 5
ENDMDL
MODEL 2
REMARK VINA RESULT:      -9.1      0.868      1.393
REMARK  Name = 
REMARK  7 active torsions:
REMARK  status: ('A' for Active; 'I' for Inactive)
REMARK    1  A    between atoms: C_1  and  N_2
REMARK    2  A    between atoms: N_5  and  C_6
REMARK    3  A    between atoms: C_6  and  C_7
REMARK    4  A    between atoms: C_6  and  C_19
REMARK    5  A    between atoms: C_7  and  N_8
REMARK    6  A    between atoms: C_9  and  C_11
REMARK    7  A    between atoms: N_27  and  C_28
REMARK                            x       y       z     vdW  Elec       q    Type
REMARK                         _______ _______ _______ _____ _____    ______ ____
ROOT
ATOM      1  C   UNL     1       3.517   5.618  19.198  0.00  0.00    +0.000 C 
ENDROOT
BRANCH   1   2
ATOM      2  C   UNL     1       2.630   6.881  19.253  0.00  0.00    +0.000 A 
ATOM      3  C   UNL     1       2.430   7.649  18.079  0.00  0.00    +0.000 A 
ATOM      4  C   UNL     1       1.734   8.869  18.106  0.00  0.00    +0.000 A 
ATOM      5  C   UNL     1       1.175   9.302  19.293  0.00  0.00    +0.000 A 
ATOM      6  C   UNL     1       1.301   8.507  20.435  0.00  0.00    +0.000 A 
ATOM      7  C   UNL     1       2.024   7.321  20.442  0.00  0.00    +0.000 A 
ATOM      8  C   UNL     1       0.582   9.164  21.568  0.00  0.00    +0.000 C 
ATOM      9  C   UNL     1      -0.259  10.193  20.790  0.00  0.00    +0.000 C 
ATOM     10  N   UNL     1       0.481  10.497  19.552  0.00  0.00    +0.000 N 
ATOM     11  C   UNL     1      -0.218  11.151  18.462  0.00  0.00    +0.000 C 
ENDBRANCH   1   2
BRANCH   1  16
ATOM     12  C   UNL     1       1.476   2.203  21.960  0.00  0.00    +0.000 C 
ATOM     13  N   UNL     1       1.754   2.598  20.583  0.00  0.00    +0.000 NA
ATOM     14  C   UNL     1       3.200   2.678  20.311  0.00  0.00    +0.000 C 
ATOM     15  C   UNL     1       3.481   3.142  18.855  0.00  0.00    +0.000 C 
ATOM     16  N   UNL     1       2.879   4.456  18.486  0.00  0.00    +0.000 NA
ATOM     17  C   UNL     1       1.424   4.299  18.792  0.00  0.00    +0.000 C 
ATOM     18  C   UNL     1       1.098   3.873  20.243  0.00  0.00    +0.000 C 
ENDBRANCH   1  16
BRANCH   1  19
ATOM     19  C   UNL     1       4.935   6.003  18.647  0.00  0.00    +0.000 C 
BRANCH  19  20
ATOM     20  N   UNL     1       5.196   5.659  17.258  0.00  0.00    +0.000 N 
ATOM     21  C   UNL     1       6.339   4.983  16.899  0.00  0.00    +0.000 C 
ATOM     22  O   UNL     1       7.179   4.594  17.701  0.00  0.00    +0.000 OA
ATOM     23  H   UNL     1       4.435   5.799  16.600  0.00  0.00    +0.000 HD
BRANCH  21  24
ATOM     24  C   UNL     1       6.523   4.712  15.443  0.00  0.00    +0.000 A 
ATOM     25  C   UNL     1       5.648   3.864  14.742  0.00  0.00    +0.000 A 
ATOM     26  C   UNL     1       5.827   3.648  13.373  0.00  0.00    +0.000 A 
ATOM     27  C   UNL     1       6.871   4.284  12.708  0.00  0.00    +0.000 A 
ATOM     28  F   UNL     1       7.033   4.079  11.395  0.00  0.00    +0.000 F 
ATOM     29  C   UNL     1       7.731   5.131  13.398  0.00  0.00    +0.000 A 
ATOM     30  F   UNL     1       8.731   5.744  12.748  0.00  0.00    +0.000 F 
ATOM     31  C   UNL     1       7.562   5.356  14.762  0.00  0.00    +0.000 A 
ENDBRANCH  21  24
ENDBRANCH  19  20
ENDBRANCH   1  19
TORSDOF 5
ENDMDL
MODEL 3
REMARK VINA RESULT:      -8.3      1.015      1.957
REMARK  Name = 
REMARK  7 active torsions:
REMARK  status: ('A' for Active; 'I' for Inactive)
REMARK    1  A    between atoms: C_1  and  N_2
REMARK    2  A    between atoms: N_5  and  C_6
REMARK    3  A    between atoms: C_6  and  C_7
REMARK    4  A    between atoms: C_6  and  C_19
REMARK    5  A    between atoms: C_7  and  N_8
REMARK    6  A    between atoms: C_9  and  C_11
REMARK    7  A    between atoms: N_27  and  C_28
REMARK                            x       y       z     vdW  Elec       q    Type
REMARK                         _______ _______ _______ _____ _____    ______ ____
ROOT
ATOM      1  C   UNL     1       3.590   5.506  19.381  0.00  0.00    +0.000 C 
ENDROOT
BRANCH   1   2
ATOM      2  C   UNL     1       2.751   6.791  19.548  0.00  0.00    +0.000 A 
ATOM      3  C   UNL     1       2.143   7.074  20.796  0.00  0.00    +0.000 A 
ATOM      4  C   UNL     1       1.272   8.164  20.963  0.00  0.00    +0.000 A 
ATOM      5  C   UNL     1       1.050   9.019  19.901  0.00  0.00    +0.000 A 
ATOM      6  C   UNL     1       1.712   8.790  18.692  0.00  0.00    +0.000 A 
ATOM      7  C   UNL     1       2.540   7.693  18.491  0.00  0.00    +0.000 A 
ATOM      8  C   UNL     1       1.343   9.867  17.723  0.00  0.00    +0.000 C 
ATOM      9  C   UNL     1       0.724  10.894  18.689  0.00  0.00    +0.000 C 
ATOM     10  N   UNL     1       0.196  10.135  19.835  0.00  0.00    +0.000 N 
ATOM     11  C   UNL     1      -0.121  10.846  21.059  0.00  0.00    +0.000 C 
ENDBRANCH   1   2
BRANCH   1  16
ATOM     12  C   UNL     1       1.313   2.141  22.016  0.00  0.00    +0.000 C 
ATOM     13  N   UNL     1       1.628   2.561  20.655  0.00  0.00    +0.000 NA
ATOM     14  C   UNL     1       3.078   2.558  20.395  0.00  0.00    +0.000 C 
ATOM     15  C   UNL     1       3.400   3.050  18.957  0.00  0.00    +0.000 C 
ATOM     16  N   UNL     1       2.886   4.411  18.627  0.00  0.00    +0.000 NA
ATOM     17  C   UNL     1       1.422   4.338  18.918  0.00  0.00    +0.000 C 
ATOM     18  C   UNL     1       1.057   3.886  20.353  0.00  0.00    +0.000 C 
ENDBRANCH   1  16
BRANCH   1  19
ATOM     19  C   UNL     1       4.998   5.879  18.797  0.00  0.00    +0.000 C 
BRANCH  19  20
ATOM     20  N   UNL     1       5.223   5.535  17.402  0.00  0.00    +0.000 N 
ATOM     21  C   UNL     1       6.427   5.013  16.986  0.00  0.00    +0.000 C 
ATOM     22  O   UNL     1       7.358   4.767  17.742  0.00  0.00    +0.000 OA
ATOM     23  H   UNL     1       4.413   5.549  16.789  0.00  0.00    +0.000 HD
BRANCH  21  24
ATOM     24  C   UNL     1       6.560   4.728  15.528  0.00  0.00    +0.000 A 
ATOM     25  C   UNL     1       5.652   3.888  14.861  0.00  0.00    +0.000 A 
ATOM     26  C   UNL     1       5.785   3.659  13.489  0.00  0.00    +0.000 A 
ATOM     27  C   UNL     1       6.817   4.274  12.787  0.00  0.00    +0.000 A 
ATOM     28  F   UNL     1       6.935   4.057  11.471  0.00  0.00    +0.000 F 
ATOM     29  C   UNL     1       7.710   5.114  13.443  0.00  0.00    +0.000 A 
ATOM     30  F   UNL     1       8.698   5.706  12.757  0.00  0.00    +0.000 F 
ATOM     31  C   UNL     1       7.588   5.351  14.809  0.00  0.00    +0.000 A 
ENDBRANCH  21  24
ENDBRANCH  19  20
ENDBRANCH   1  19
TORSDOF 5
ENDMDL
MODEL 4
REMARK VINA RESULT:      -8.3      3.808      7.766
REMARK  Name = 
REMARK  7 active torsions:
REMARK  status: ('A' for Active; 'I' for Inactive)
REMARK    1  A    between atoms: C_1  and  N_2
REMARK    2  A    between atoms: N_5  and  C_6
REMARK    3  A    between atoms: C_6  and  C_7
REMARK    4  A    between atoms: C_6  and  C_19
REMARK    5  A    between atoms: C_7  and  N_8
REMARK    6  A    between atoms: C_9  and  C_11
REMARK    7  A    between atoms: N_27  and  C_28
REMARK                            x       y       z     vdW  Elec       q    Type
REMARK                         _______ _______ _______ _____ _____    ______ ____
ROOT
ATOM      1  C   UNL     1       4.064   3.997  17.493  0.00  0.00    +0.000 C 
ENDROOT
BRANCH   1   2
ATOM      2  C   UNL     1       5.031   4.244  16.315  0.00  0.00    +0.000 A 
ATOM      3  C   UNL     1       6.132   5.120  16.483  0.00  0.00    +0.000 A 
ATOM      4  C   UNL     1       6.967   5.472  15.409  0.00  0.00    +0.000 A 
ATOM      5  C   UNL     1       6.750   4.900  14.170  0.00  0.00    +0.000 A 
ATOM      6  C   UNL     1       5.716   3.972  14.020  0.00  0.00    +0.000 A 
ATOM      7  C   UNL     1       4.850   3.646  15.056  0.00  0.00    +0.000 A 
ATOM      8  C   UNL     1       5.712   3.470  12.613  0.00  0.00    +0.000 C 
ATOM      9  C   UNL     1       7.103   3.947  12.155  0.00  0.00    +0.000 C 
ATOM     10  N   UNL     1       7.430   5.136  12.962  0.00  0.00    +0.000 N 
ATOM     11  C   UNL     1       8.807   5.590  13.012  0.00  0.00    +0.000 C 
ENDBRANCH   1   2
BRANCH   1  16
ATOM     12  C   UNL     1       1.088   2.970  21.173  0.00  0.00    +0.000 C 
ATOM     13  N   UNL     1       2.009   2.389  20.202  0.00  0.00    +0.000 NA
ATOM     14  C   UNL     1       3.384   2.891  20.373  0.00  0.00    +0.000 C 
ATOM     15  C   UNL     1       4.344   2.298  19.304  0.00  0.00    +0.000 C 
ATOM     16  N   UNL     1       3.944   2.550  17.890  0.00  0.00    +0.000 NA
ATOM     17  C   UNL     1       2.548   2.024  17.796  0.00  0.00    +0.000 C 
ATOM     18  C   UNL     1       1.550   2.616  18.820  0.00  0.00    +0.000 C 
ENDBRANCH   1  16
BRANCH   1  19
ATOM     19  C   UNL     1       4.436   4.955  18.678  0.00  0.00    +0.000 C 
BRANCH  19  20
ATOM     20  N   UNL     1       3.429   5.940  19.043  0.00  0.00    +0.000 N 
ATOM     21  C   UNL     1       3.271   7.095  18.313  0.00  0.00    +0.000 C 
ATOM     22  O   UNL     1       3.917   7.357  17.307  0.00  0.00    +0.000 OA
ATOM     23  H   UNL     1       2.756   5.666  19.753  0.00  0.00    +0.000 HD
BRANCH  21  24
ATOM     24  C   UNL     1       2.232   8.051  18.797  0.00  0.00    +0.000 A 
ATOM     25  C   UNL     1       1.634   8.980  17.928  0.00  0.00    +0.000 A 
ATOM     26  C   UNL     1       0.645   9.847  18.402  0.00  0.00    +0.000 A 
ATOM     27  C   UNL     1       0.251   9.778  19.735  0.00  0.00    +0.000 A 
ATOM     28  F   UNL     1      -0.702  10.605  20.180  0.00  0.00    +0.000 F 
ATOM     29  C   UNL     1       0.835   8.852  20.593  0.00  0.00    +0.000 A 
ATOM     30  F   UNL     1       0.446   8.789  21.874  0.00  0.00    +0.000 F 
ATOM     31  C   UNL     1       1.820   7.982  20.133  0.00  0.00    +0.000 A 
ENDBRANCH  21  24
ENDBRANCH  19  20
ENDBRANCH   1  19
TORSDOF 5
ENDMDL
MODEL 5
REMARK VINA RESULT:      -8.2      0.461      1.342
REMARK  Name = 
REMARK  7 active torsions:
REMARK  status: ('A' for Active; 'I' for Inactive)
REMARK    1  A    between atoms: C_1  and  N_2
REMARK    2  A    between atoms: N_5  and  C_6
REMARK    3  A    between atoms: C_6  and  C_7
REMARK    4  A    between atoms: C_6  and  C_19
REMARK    5  A    between atoms: C_7  and  N_8
REMARK    6  A    between atoms: C_9  and  C_11
REMARK    7  A    between atoms: N_27  and  C_28
REMARK                            x       y       z     vdW  Elec       q    Type
REMARK                         _______ _______ _______ _____ _____    ______ ____
ROOT
ATOM      1  C   UNL     1       3.901   5.721  18.587  0.00  0.00    +0.000 C 
ENDROOT
BRANCH   1   2
ATOM      2  C   UNL     1       2.985   6.897  18.989  0.00  0.00    +0.000 A 
ATOM      3  C   UNL     1       2.411   6.929  20.284  0.00  0.00    +0.000 A 
ATOM      4  C   UNL     1       1.477   7.911  20.655  0.00  0.00    +0.000 A 
ATOM      5  C   UNL     1       1.155   8.909  19.756  0.00  0.00    +0.000 A 
ATOM      6  C   UNL     1       1.780   8.929  18.506  0.00  0.00    +0.000 A 
ATOM      7  C   UNL     1       2.671   7.942  18.102  0.00  0.00    +0.000 A 
ATOM      8  C   UNL     1       1.301  10.119  17.740  0.00  0.00    +0.000 C 
ATOM      9  C   UNL     1       0.655  10.928  18.880  0.00  0.00    +0.000 C 
ATOM     10  N   UNL     1       0.227   9.956  19.901  0.00  0.00    +0.000 N 
ATOM     11  C   UNL     1      -0.087  10.433  21.234  0.00  0.00    +0.000 C 
ENDBRANCH   1   2
BRANCH   1  16
ATOM     12  C   UNL     1       1.568   2.179  20.924  0.00  0.00    +0.000 C 
ATOM     13  N   UNL     1       1.917   2.692  19.604  0.00  0.00    +0.000 NA
ATOM     14  C   UNL     1       3.373   2.710  19.382  0.00  0.00    +0.000 C 
ATOM     15  C   UNL     1       3.730   3.301  17.990  0.00  0.00    +0.000 C 
ATOM     16  N   UNL     1       3.220   4.680  17.741  0.00  0.00    +0.000 NA
ATOM     17  C   UNL     1       1.749   4.584  17.989  0.00  0.00    +0.000 C 
ATOM     18  C   UNL     1       1.349   4.034  19.379  0.00  0.00    +0.000 C 
ENDBRANCH   1  16
BRANCH   1  19
ATOM     19  C   UNL     1       5.224   6.286  17.961  0.00  0.00    +0.000 C 
BRANCH  19  20
ATOM     20  N   UNL     1       5.486   5.917  16.579  0.00  0.00    +0.000 N 
ATOM     21  C   UNL     1       6.543   5.099  16.252  0.00  0.00    +0.000 C 
ATOM     22  O   UNL     1       7.296   4.600  17.077  0.00  0.00    +0.000 OA
ATOM     23  H   UNL     1       4.772   6.158  15.897  0.00  0.00    +0.000 HD
BRANCH  21  24
ATOM     24  C   UNL     1       6.739   4.813  14.800  0.00  0.00    +0.000 A 
ATOM     25  C   UNL     1       7.720   5.483  14.050  0.00  0.00    +0.000 A 
ATOM     26  C   UNL     1       7.900   5.178  12.698  0.00  0.00    +0.000 A 
ATOM     27  C   UNL     1       7.107   4.201  12.103  0.00  0.00    +0.000 A 
ATOM     28  F   UNL     1       7.289   3.907  10.810  0.00  0.00    +0.000 F 
ATOM     29  C   UNL     1       6.143   3.530  12.847  0.00  0.00    +0.000 A 
ATOM     30  F   UNL     1       5.388   2.587  12.267  0.00  0.00    +0.000 F 
ATOM     31  C   UNL     1       5.955   3.824  14.195  0.00  0.00    +0.000 A 
ENDBRANCH  21  24
ENDBRANCH  19  20
ENDBRANCH   1  19
TORSDOF 5
ENDMDL
MODEL 6
REMARK VINA RESULT:      -8.2      3.518      7.796
REMARK  Name = 
REMARK  7 active torsions:
REMARK  status: ('A' for Active; 'I' for Inactive)
REMARK    1  A    between atoms: C_1  and  N_2
REMARK    2  A    between atoms: N_5  and  C_6
REMARK    3  A    between atoms: C_6  and  C_7
REMARK    4  A    between atoms: C_6  and  C_19
REMARK    5  A    between atoms: C_7  and  N_8
REMARK    6  A    between atoms: C_9  and  C_11
REMARK    7  A    between atoms: N_27  and  C_28
REMARK                            x       y       z     vdW  Elec       q    Type
REMARK                         _______ _______ _______ _____ _____    ______ ____
ROOT
ATOM      1  C   UNL     1       4.091   4.010  17.523  0.00  0.00    +0.000 C 
ENDROOT
BRANCH   1   2
ATOM      2  C   UNL     1       5.056   4.266  16.345  0.00  0.00    +0.000 A 
ATOM      3  C   UNL     1       6.148   5.153  16.514  0.00  0.00    +0.000 A 
ATOM      4  C   UNL     1       6.981   5.512  15.440  0.00  0.00    +0.000 A 
ATOM      5  C   UNL     1       6.770   4.938  14.202  0.00  0.00    +0.000 A 
ATOM      6  C   UNL     1       5.745   4.000  14.051  0.00  0.00    +0.000 A 
ATOM      7  C   UNL     1       4.882   3.666  15.087  0.00  0.00    +0.000 A 
ATOM      8  C   UNL     1       5.748   3.497  12.644  0.00  0.00    +0.000 C 
ATOM      9  C   UNL     1       7.134   3.988  12.187  0.00  0.00    +0.000 C 
ATOM     10  N   UNL     1       7.449   5.180  12.994  0.00  0.00    +0.000 N 
ATOM     11  C   UNL     1       8.821   5.648  13.045  0.00  0.00    +0.000 C 
ENDBRANCH   1   2
BRANCH   1  16
ATOM     12  C   UNL     1       1.072   2.949  21.158  0.00  0.00    +0.000 C 
ATOM     13  N   UNL     1       1.985   2.375  20.176  0.00  0.00    +0.000 NA
ATOM     14  C   UNL     1       3.370   2.841  20.368  0.00  0.00    +0.000 C 
ATOM     15  C   UNL     1       4.322   2.256  19.288  0.00  0.00    +0.000 C 
ATOM     16  N   UNL     1       3.937   2.556  17.879  0.00  0.00    +0.000 NA
ATOM     17  C   UNL     1       2.530   2.063  17.764  0.00  0.00    +0.000 C 
ATOM     18  C   UNL     1       1.540   2.649  18.798  0.00  0.00    +0.000 C 
ENDBRANCH   1  16
BRANCH   1  19
ATOM     19  C   UNL     1       4.495   4.924  18.732  0.00  0.00    +0.000 C 
BRANCH  19  20
ATOM     20  N   UNL     1       3.473   5.845  19.205  0.00  0.00    +0.000 N 
ATOM     21  C   UNL     1       3.222   7.025  18.543  0.00  0.00    +0.000 C 
ATOM     22  O   UNL     1       3.792   7.360  17.513  0.00  0.00    +0.000 OA
ATOM     23  H   UNL     1       2.858   5.510  19.941  0.00  0.00    +0.000 HD
BRANCH  21  24
ATOM     24  C   UNL     1       2.178   7.911  19.135  0.00  0.00    +0.000 A 
ATOM     25  C   UNL     1       1.744   7.745  20.462  0.00  0.00    +0.000 A 
ATOM     26  C   UNL     1       0.783   8.605  20.999  0.00  0.00    +0.000 A 
ATOM     27  C   UNL     1       0.265   9.632  20.215  0.00  0.00    +0.000 A 
ATOM     28  F   UNL     1      -0.650  10.457  20.738  0.00  0.00    +0.000 F 
ATOM     29  C   UNL     1       0.700   9.804  18.906  0.00  0.00    +0.000 A 
ATOM     30  F   UNL     1       0.199  10.799  18.160  0.00  0.00    +0.000 F 
ATOM     31  C   UNL     1       1.658   8.955  18.359  0.00  0.00    +0.000 A 
ENDBRANCH  21  24
ENDBRANCH  19  20
ENDBRANCH   1  19
TORSDOF 5
ENDMDL
MODEL 7
REMARK VINA RESULT:      -7.9      5.522      9.987
REMARK  Name = 
REMARK  7 active torsions:
REMARK  status: ('A' for Active; 'I' for Inactive)
REMARK    1  A    between atoms: C_1  and  N_2
REMARK    2  A    between atoms: N_5  and  C_6
REMARK    3  A    between atoms: C_6  and  C_7
REMARK    4  A    between atoms: C_6  and  C_19
REMARK    5  A    between atoms: C_7  and  N_8
REMARK    6  A    between atoms: C_9  and  C_11
REMARK    7  A    between atoms: N_27  and  C_28
REMARK                            x       y       z     vdW  Elec       q    Type
REMARK                         _______ _______ _______ _____ _____    ______ ____
ROOT
ATOM      1  C   UNL     1       0.685   9.454  20.278  0.00  0.00    +0.000 C 
ENDROOT
BRANCH   1   2
ATOM      2  C   UNL     1       1.510   8.258  19.756  0.00  0.00    +0.000 A 
ATOM      3  C   UNL     1       2.122   8.331  18.480  0.00  0.00    +0.000 A 
ATOM      4  C   UNL     1       2.779   7.227  17.911  0.00  0.00    +0.000 A 
ATOM      5  C   UNL     1       2.886   6.058  18.640  0.00  0.00    +0.000 A 
ATOM      6  C   UNL     1       2.355   6.007  19.932  0.00  0.00    +0.000 A 
ATOM      7  C   UNL     1       1.662   7.072  20.494  0.00  0.00    +0.000 A 
ATOM      8  C   UNL     1       2.634   4.664  20.521  0.00  0.00    +0.000 C 
ATOM      9  C   UNL     1       3.709   4.159  19.541  0.00  0.00    +0.000 C 
ATOM     10  N   UNL     1       3.458   4.832  18.254  0.00  0.00    +0.000 N 
ATOM     11  C   UNL     1       4.506   4.834  17.250  0.00  0.00    +0.000 C 
ENDBRANCH   1   2
BRANCH   1  16
ATOM     12  C   UNL     1      -2.303  11.707  23.353  0.00  0.00    +0.000 C 
ATOM     13  N   UNL     1      -0.902  11.416  23.067  0.00  0.00    +0.000 NA
ATOM     14  C   UNL     1      -0.470  11.984  21.777  0.00  0.00    +0.000 C 
ATOM     15  C   UNL     1       1.011  11.628  21.467  0.00  0.00    +0.000 C 
ATOM     16  N   UNL     1       1.316  10.169  21.442  0.00  0.00    +0.000 NA
ATOM     17  C   UNL     1       0.848   9.667  22.770  0.00  0.00    +0.000 C 
ATOM     18  C   UNL     1      -0.632   9.968  23.104  0.00  0.00    +0.000 C 
ENDBRANCH   1  16
BRANCH   1  19
ATOM     19  C   UNL     1       0.317  10.393  19.076  0.00  0.00    +0.000 C 
BRANCH  19  20
ATOM     20  N   UNL     1      -1.100  10.513  18.769  0.00  0.00    +0.000 N 
ATOM     21  C   UNL     1      -1.653  11.729  18.440  0.00  0.00    +0.000 C 
ATOM     22  O   UNL     1      -1.008  12.765  18.341  0.00  0.00    +0.000 OA
ATOM     23  H   UNL     1      -1.620   9.647  18.658  0.00  0.00    +0.000 HD
BRANCH  21  24
ATOM     24  C   UNL     1      -3.122  11.743  18.178  0.00  0.00    +0.000 A 
ATOM     25  C   UNL     1      -3.648  11.339  16.938  0.00  0.00    +0.000 A 
ATOM     26  C   UNL     1      -5.029  11.337  16.728  0.00  0.00    +0.000 A 
ATOM     27  C   UNL     1      -5.881  11.730  17.758  0.00  0.00    +0.000 A 
ATOM     28  F   UNL     1      -7.204  11.718  17.553  0.00  0.00    +0.000 F 
ATOM     29  C   UNL     1      -5.363  12.119  18.988  0.00  0.00    +0.000 A 
ATOM     30  F   UNL     1      -6.191  12.489  19.974  0.00  0.00    +0.000 F 
ATOM     31  C   UNL     1      -3.989  12.124  19.210  0.00  0.00    +0.000 A 
ENDBRANCH  21  24
ENDBRANCH  19  20
ENDBRANCH   1  19
TORSDOF 5
ENDMDL
MODEL 8
REMARK VINA RESULT:      -7.8      5.530      9.924
REMARK  Name = 
REMARK  7 active torsions:
REMARK  status: ('A' for Active; 'I' for Inactive)
REMARK    1  A    between atoms: C_1  and  N_2
REMARK    2  A    between atoms: N_5  and  C_6
REMARK    3  A    between atoms: C_6  and  C_7
REMARK    4  A    between atoms: C_6  and  C_19
REMARK    5  A    between atoms: C_7  and  N_8
REMARK    6  A    between atoms: C_9  and  C_11
REMARK    7  A    between atoms: N_27  and  C_28
REMARK                            x       y       z     vdW  Elec       q    Type
REMARK                         _______ _______ _______ _____ _____    ______ ____
ROOT
ATOM      1  C   UNL     1       0.792   9.260  20.250  0.00  0.00    +0.000 C 
ENDROOT
BRANCH   1   2
ATOM      2  C   UNL     1       1.565   7.991  19.831  0.00  0.00    +0.000 A 
ATOM      3  C   UNL     1       1.489   6.826  20.634  0.00  0.00    +0.000 A 
ATOM      4  C   UNL     1       2.268   5.689  20.362  0.00  0.00    +0.000 A 
ATOM      5  C   UNL     1       3.083   5.681  19.246  0.00  0.00    +0.000 A 
ATOM      6  C   UNL     1       3.099   6.798  18.406  0.00  0.00    +0.000 A 
ATOM      7  C   UNL     1       2.373   7.949  18.682  0.00  0.00    +0.000 A 
ATOM      8  C   UNL     1       4.016   6.530  17.257  0.00  0.00    +0.000 C 
ATOM      9  C   UNL     1       4.171   5.003  17.389  0.00  0.00    +0.000 C 
ATOM     10  N   UNL     1       3.967   4.678  18.812  0.00  0.00    +0.000 N 
ATOM     11  C   UNL     1       3.700   3.301  19.183  0.00  0.00    +0.000 C 
ENDBRANCH   1   2
BRANCH   1  16
ATOM     12  C   UNL     1      -2.137  11.527  23.370  0.00  0.00    +0.000 C 
ATOM     13  N   UNL     1      -0.741  11.270  23.036  0.00  0.00    +0.000 NA
ATOM     14  C   UNL     1      -0.381  11.805  21.711  0.00  0.00    +0.000 C 
ATOM     15  C   UNL     1       1.097  11.484  21.350  0.00  0.00    +0.000 C 
ATOM     16  N   UNL     1       1.447  10.034  21.362  0.00  0.00    +0.000 NA
ATOM     17  C   UNL     1       1.051   9.565  22.724  0.00  0.00    +0.000 C 
ATOM     18  C   UNL     1      -0.424   9.832  23.111  0.00  0.00    +0.000 C 
ENDBRANCH   1  16
BRANCH   1  19
ATOM     19  C   UNL     1       0.475  10.119  18.976  0.00  0.00    +0.000 C 
BRANCH  19  20
ATOM     20  N   UNL     1      -0.934  10.301  18.662  0.00  0.00    +0.000 N 
ATOM     21  C   UNL     1      -1.443  11.549  18.387  0.00  0.00    +0.000 C 
ATOM     22  O   UNL     1      -0.762  12.566  18.344  0.00  0.00    +0.000 OA
ATOM     23  H   UNL     1      -1.481   9.459  18.505  0.00  0.00    +0.000 HD
BRANCH  21  24
ATOM     24  C   UNL     1      -2.908  11.625  18.113  0.00  0.00    +0.000 A 
ATOM     25  C   UNL     1      -3.434  11.291  16.852  0.00  0.00    +0.000 A 
ATOM     26  C   UNL     1      -4.812  11.346  16.630  0.00  0.00    +0.000 A 
ATOM     27  C   UNL     1      -5.660  11.725  17.667  0.00  0.00    +0.000 A 
ATOM     28  F   UNL     1      -6.981  11.768  17.450  0.00  0.00    +0.000 F 
ATOM     29  C   UNL     1      -5.143  12.044  18.917  0.00  0.00    +0.000 A 
ATOM     30  F   UNL     1      -5.968  12.402  19.911  0.00  0.00    +0.000 F 
ATOM     31  C   UNL     1      -3.771  11.992  19.152  0.00  0.00    +0.000 A 
ENDBRANCH  21  24
ENDBRANCH  19  20
ENDBRANCH   1  19
TORSDOF 5
ENDMDL
MODEL 9
REMARK VINA RESULT:      -7.6      4.798      8.362
REMARK  Name = 
REMARK  7 active torsions:
REMARK  status: ('A' for Active; 'I' for Inactive)
REMARK    1  A    between atoms: C_1  and  N_2
REMARK    2  A    between atoms: N_5  and  C_6
REMARK    3  A    between atoms: C_6  and  C_7
REMARK    4  A    between atoms: C_6  and  C_19
REMARK    5  A    between atoms: C_7  and  N_8
REMARK    6  A    between atoms: C_9  and  C_11
REMARK    7  A    between atoms: N_27  and  C_28
REMARK                            x       y       z     vdW  Elec       q    Type
REMARK                         _______ _______ _______ _____ _____    ______ ____
ROOT
ATOM      1  C   UNL     1       0.334  12.317  19.885  0.00  0.00    +0.000 C 
ENDROOT
BRANCH   1   2
ATOM      2  C   UNL     1      -1.026  12.087  19.190  0.00  0.00    +0.000 A 
ATOM      3  C   UNL     1      -2.225  12.413  19.871  0.00  0.00    +0.000 A 
ATOM      4  C   UNL     1      -3.487  12.110  19.331  0.00  0.00    +0.000 A 
ATOM      5  C   UNL     1      -3.563  11.538  18.076  0.00  0.00    +0.000 A 
ATOM      6  C   UNL     1      -2.385  11.290  17.366  0.00  0.00    +0.000 A 
ATOM      7  C   UNL     1      -1.127  11.539  17.900  0.00  0.00    +0.000 A 
ATOM      8  C   UNL     1      -2.732  10.714  16.032  0.00  0.00    +0.000 C 
ATOM      9  C   UNL     1      -4.232  11.054  15.975  0.00  0.00    +0.000 C 
ATOM     10  N   UNL     1      -4.705  11.119  17.369  0.00  0.00    +0.000 N 
ATOM     11  C   UNL     1      -5.975  11.763  17.648  0.00  0.00    +0.000 C 
ENDBRANCH   1   2
BRANCH   1  16
ATOM     12  C   UNL     1       4.238  14.878  18.600  0.00  0.00    +0.000 C 
ATOM     13  N   UNL     1       3.033  14.895  19.423  0.00  0.00    +0.000 NA
ATOM     14  C   UNL     1       3.047  13.835  20.447  0.00  0.00    +0.000 C 
ATOM     15  C   UNL     1       1.738  13.837  21.286  0.00  0.00    +0.000 C 
ATOM     16  N   UNL     1       0.483  13.684  20.495  0.00  0.00    +0.000 NA
ATOM     17  C   UNL     1       0.544  14.782  19.482  0.00  0.00    +0.000 C 
ATOM     18  C   UNL     1       1.815  14.795  18.600  0.00  0.00    +0.000 C 
ENDBRANCH   1  16
BRANCH   1  19
ATOM     19  C   UNL     1       0.611  11.139  20.883  0.00  0.00    +0.000 C 
BRANCH  19  20
ATOM     20  N   UNL     1       1.012   9.875  20.284  0.00  0.00    +0.000 N 
ATOM     21  C   UNL     1       1.307   8.783  21.067  0.00  0.00    +0.000 C 
ATOM     22  O   UNL     1       1.216   8.777  22.288  0.00  0.00    +0.000 OA
ATOM     23  H   UNL     1       0.913   9.794  19.276  0.00  0.00    +0.000 HD
BRANCH  21  24
ATOM     24  C   UNL     1       1.741   7.548  20.350  0.00  0.00    +0.000 A 
ATOM     25  C   UNL     1       1.485   6.270  20.876  0.00  0.00    +0.000 A 
ATOM     26  C   UNL     1       1.880   5.129  20.171  0.00  0.00    +0.000 A 
ATOM     27  C   UNL     1       2.519   5.268  18.942  0.00  0.00    +0.000 A 
ATOM     28  F   UNL     1       2.887   4.172  18.268  0.00  0.00    +0.000 F 
ATOM     29  C   UNL     1       2.762   6.531  18.415  0.00  0.00    +0.000 A 
ATOM     30  F   UNL     1       3.373   6.655  17.229  0.00  0.00    +0.000 F 
ATOM     31  C   UNL     1       2.373   7.676  19.107  0.00  0.00    +0.000 A 
ENDBRANCH  21  24
ENDBRANCH  19  20
ENDBRANCH   1  19
TORSDOF 5
ENDMDL
