MODEL 1
REMARK VINA RESULT:      -7.4      0.000      0.000
REMARK  Name = 
REMARK  7 active torsions:
REMARK  status: ('A' for Active; 'I' for Inactive)
REMARK    1  A    between atoms: C_1  and  O_2
REMARK    2  A    between atoms: O_2  and  C_3
REMARK    3  A    between atoms: C_7  and  C_8
REMARK    4  A    between atoms: C_8  and  P_9
REMARK    5  A    between atoms: P_9  and  C_10
REMARK    6  A    between atoms: P_9  and  C_16
REMARK    7  A    between atoms: P_9  and  C_22
REMARK                            x       y       z     vdW  Elec       q    Type
REMARK                         _______ _______ _______ _____ _____    ______ ____
ROOT
ATOM      1  P   UNL     1      -0.225  11.186  19.201  0.00  0.00    +0.000 P 
ENDROOT
BRANCH   1   2
ATOM      2  C   UNL     1       0.925   9.806  19.165  0.00  0.00    +0.000 A 
ATOM      3  C   UNL     1       1.582   9.505  17.956  0.00  0.00    +0.000 A 
ATOM      4  C   UNL     1       2.338   8.343  17.813  0.00  0.00    +0.000 A 
ATOM      5  C   UNL     1       2.454   7.459  18.880  0.00  0.00    +0.000 A 
ATOM      6  C   UNL     1       1.840   7.756  20.094  0.00  0.00    +0.000 A 
ATOM      7  C   UNL     1       1.093   8.928  20.241  0.00  0.00    +0.000 A 
ENDBRANCH   1   2
BRANCH   1   8
ATOM      8  C   UNL     1      -1.602  10.921  18.091  0.00  0.00    +0.000 A 
ATOM      9  C   UNL     1      -2.765  11.692  18.222  0.00  0.00    +0.000 A 
ATOM     10  C   UNL     1      -3.875  11.460  17.402  0.00  0.00    +0.000 A 
ATOM     11  C   UNL     1      -3.843  10.458  16.436  0.00  0.00    +0.000 A 
ATOM     12  C   UNL     1      -2.690   9.693  16.281  0.00  0.00    +0.000 A 
ATOM     13  C   UNL     1      -1.577   9.930  17.092  0.00  0.00    +0.000 A 
ENDBRANCH   1   8
BRANCH   1  14
ATOM     14  C   UNL     1       0.544  12.775  18.834  0.00  0.00    +0.000 A 
ATOM     15  C   UNL     1      -0.208  13.943  18.634  0.00  0.00    +0.000 A 
ATOM     16  C   UNL     1       0.386  15.205  18.614  0.00  0.00    +0.000 A 
ATOM     17  C   UNL     1       1.767  15.317  18.681  0.00  0.00    +0.000 A 
ATOM     18  C   UNL     1       2.545  14.161  18.730  0.00  0.00    +0.000 A 
ATOM     19  C   UNL     1       1.939  12.901  18.806  0.00  0.00    +0.000 A 
ENDBRANCH   1  14
BRANCH   1  20
ATOM     20  C   UNL     1      -0.844  11.162  20.925  0.00  0.00    +0.000 C 
BRANCH  20  25
ATOM     21  C   UNL     1      -2.546  13.956  23.564  0.00  0.00    +0.000 C 
ATOM     22  C   UNL     1      -1.228  13.721  23.547  0.00  0.00    +0.000 C 
ATOM     23  C   UNL     1      -0.589  13.272  22.300  0.00  0.00    +0.000 C 
ATOM     24  O   UNL     1       0.576  13.534  22.049  0.00  0.00    +0.000 OA
ATOM     25  C   UNL     1      -1.454  12.458  21.412  0.00  0.00    +0.000 C 
ATOM     26  C   UNL     1      -2.705  12.927  21.267  0.00  0.00    +0.000 C 
ATOM     27  C   UNL     1      -3.264  13.892  22.247  0.00  0.00    +0.000 C 
ATOM     28  O   UNL     1      -4.316  14.481  22.030  0.00  0.00    +0.000 OA
BRANCH  21  30
ATOM     29  C   UNL     1      -2.767  15.143  25.625  0.00  0.00    +0.000 C 
ATOM     30  O   UNL     1      -3.313  14.233  24.676  0.00  0.00    +0.000 OA
ENDBRANCH  21  30
ENDBRANCH  20  25
ENDBRANCH   1  20
TORSDOF 6
ENDMDL
MODEL 2
REMARK VINA RESULT:      -7.3      1.250      2.122
REMARK  Name = 
REMARK  7 active torsions:
REMARK  status: ('A' for Active; 'I' for Inactive)
REMARK    1  A    between atoms: C_1  and  O_2
REMARK    2  A    between atoms: O_2  and  C_3
REMARK    3  A    between atoms: C_7  and  C_8
REMARK    4  A    between atoms: C_8  and  P_9
REMARK    5  A    between atoms: P_9  and  C_10
REMARK    6  A    between atoms: P_9  and  C_16
REMARK    7  A    between atoms: P_9  and  C_22
REMARK                            x       y       z     vdW  Elec       q    Type
REMARK                         _______ _______ _______ _____ _____    ______ ____
ROOT
ATOM      1  P   UNL     1      -0.340  11.200  19.530  0.00  0.00    +0.000 P 
ENDROOT
BRANCH   1   2
ATOM      2  C   UNL     1       0.842   9.854  19.390  0.00  0.00    +0.000 A 
ATOM      3  C   UNL     1       1.496   9.654  18.159  0.00  0.00    +0.000 A 
ATOM      4  C   UNL     1       2.278   8.523  17.930  0.00  0.00    +0.000 A 
ATOM      5  C   UNL     1       2.423   7.570  18.932  0.00  0.00    +0.000 A 
ATOM      6  C   UNL     1       1.812   7.766  20.168  0.00  0.00    +0.000 A 
ATOM      7  C   UNL     1       1.039   8.907  20.401  0.00  0.00    +0.000 A 
ENDBRANCH   1   2
BRANCH   1   8
ATOM      8  C   UNL     1      -1.729  10.971  18.427  0.00  0.00    +0.000 A 
ATOM      9  C   UNL     1      -1.613  10.112  17.325  0.00  0.00    +0.000 A 
ATOM     10  C   UNL     1      -2.669   9.965  16.418  0.00  0.00    +0.000 A 
ATOM     11  C   UNL     1      -3.857  10.668  16.595  0.00  0.00    +0.000 A 
ATOM     12  C   UNL     1      -3.995  11.514  17.693  0.00  0.00    +0.000 A 
ATOM     13  C   UNL     1      -2.946  11.655  18.605  0.00  0.00    +0.000 A 
ENDBRANCH   1   8
BRANCH   1  14
ATOM     14  C   UNL     1       0.385  12.827  19.251  0.00  0.00    +0.000 A 
ATOM     15  C   UNL     1      -0.351  13.892  18.708  0.00  0.00    +0.000 A 
ATOM     16  C   UNL     1       0.124  15.204  18.738  0.00  0.00    +0.000 A 
ATOM     17  C   UNL     1       1.402  15.463  19.212  0.00  0.00    +0.000 A 
ATOM     18  C   UNL     1       2.208  14.401  19.618  0.00  0.00    +0.000 A 
ATOM     19  C   UNL     1       1.705  13.094  19.638  0.00  0.00    +0.000 A 
ENDBRANCH   1  14
BRANCH   1  20
ATOM     20  C   UNL     1      -0.929  11.054  21.259  0.00  0.00    +0.000 C 
BRANCH  20  25
ATOM     21  C   UNL     1      -1.806  15.127  21.810  0.00  0.00    +0.000 C 
ATOM     22  C   UNL     1      -2.771  14.228  21.580  0.00  0.00    +0.000 C 
ATOM     23  C   UNL     1      -2.572  12.831  21.999  0.00  0.00    +0.000 C 
ATOM     24  O   UNL     1      -3.512  12.117  22.307  0.00  0.00    +0.000 OA
ATOM     25  C   UNL     1      -1.165  12.365  21.975  0.00  0.00    +0.000 C 
ATOM     26  C   UNL     1      -0.279  13.238  22.486  0.00  0.00    +0.000 C 
ATOM     27  C   UNL     1      -0.635  14.671  22.632  0.00  0.00    +0.000 C 
ATOM     28  O   UNL     1       0.073  15.440  23.271  0.00  0.00    +0.000 OA
BRANCH  21  30
ATOM     29  C   UNL     1      -2.692  17.341  21.940  0.00  0.00    +0.000 C 
ATOM     30  O   UNL     1      -1.774  16.427  21.351  0.00  0.00    +0.000 OA
ENDBRANCH  21  30
ENDBRANCH  20  25
ENDBRANCH   1  20
TORSDOF 6
ENDMDL
MODEL 3
REMARK VINA RESULT:      -7.3      0.245      4.414
REMARK  Name = 
REMARK  7 active torsions:
REMARK  status: ('A' for Active; 'I' for Inactive)
REMARK    1  A    between atoms: C_1  and  O_2
REMARK    2  A    between atoms: O_2  and  C_3
REMARK    3  A    between atoms: C_7  and  C_8
REMARK    4  A    between atoms: C_8  and  P_9
REMARK    5  A    between atoms: P_9  and  C_10
REMARK    6  A    between atoms: P_9  and  C_16
REMARK    7  A    between atoms: P_9  and  C_22
REMARK                            x       y       z     vdW  Elec       q    Type
REMARK                         _______ _______ _______ _____ _____    ______ ____
ROOT
ATOM      1  P   UNL     1      -0.312  11.118  19.320  0.00  0.00    +0.000 P 
ENDROOT
BRANCH   1   2
ATOM      2  C   UNL     1       0.509  12.684  18.998  0.00  0.00    +0.000 A 
ATOM      3  C   UNL     1       1.890  12.786  19.249  0.00  0.00    +0.000 A 
ATOM      4  C   UNL     1       2.546  14.015  19.198  0.00  0.00    +0.000 A 
ATOM      5  C   UNL     1       1.831  15.167  18.891  0.00  0.00    +0.000 A 
ATOM      6  C   UNL     1       0.470  15.081  18.606  0.00  0.00    +0.000 A 
ATOM      7  C   UNL     1      -0.184  13.846  18.644  0.00  0.00    +0.000 A 
ENDBRANCH   1   2
BRANCH   1   8
ATOM      8  C   UNL     1       0.818   9.740  19.162  0.00  0.00    +0.000 A 
ATOM      9  C   UNL     1       1.469   9.506  17.944  0.00  0.00    +0.000 A 
ATOM     10  C   UNL     1       2.311   8.400  17.783  0.00  0.00    +0.000 A 
ATOM     11  C   UNL     1       2.519   7.511  18.833  0.00  0.00    +0.000 A 
ATOM     12  C   UNL     1       1.892   7.737  20.057  0.00  0.00    +0.000 A 
ATOM     13  C   UNL     1       1.059   8.846  20.222  0.00  0.00    +0.000 A 
ENDBRANCH   1   8
BRANCH   1  14
ATOM     14  C   UNL     1      -1.755  10.833  18.277  0.00  0.00    +0.000 A 
ATOM     15  C   UNL     1      -2.958  11.536  18.456  0.00  0.00    +0.000 A 
ATOM     16  C   UNL     1      -3.972  11.509  17.498  0.00  0.00    +0.000 A 
ATOM     17  C   UNL     1      -3.851  10.685  16.389  0.00  0.00    +0.000 A 
ATOM     18  C   UNL     1      -2.731   9.865  16.266  0.00  0.00    +0.000 A 
ATOM     19  C   UNL     1      -1.691   9.938  17.202  0.00  0.00    +0.000 A 
ENDBRANCH   1  14
BRANCH   1  20
ATOM     20  C   UNL     1      -0.816  11.270  21.075  0.00  0.00    +0.000 C 
BRANCH  20  25
ATOM     21  C   UNL     1      -2.565  14.244  23.476  0.00  0.00    +0.000 C 
ATOM     22  C   UNL     1      -1.264  13.941  23.573  0.00  0.00    +0.000 C 
ATOM     23  C   UNL     1      -0.555  13.414  22.396  0.00  0.00    +0.000 C 
ATOM     24  O   UNL     1       0.638  13.606  22.231  0.00  0.00    +0.000 OA
ATOM     25  C   UNL     1      -1.391  12.613  21.469  0.00  0.00    +0.000 C 
ATOM     26  C   UNL     1      -2.600  13.141  21.209  0.00  0.00    +0.000 C 
ATOM     27  C   UNL     1      -3.180  14.168  22.109  0.00  0.00    +0.000 C 
ATOM     28  O   UNL     1      -4.178  14.802  21.789  0.00  0.00    +0.000 OA
BRANCH  21  30
ATOM     29  C   UNL     1      -2.808  15.287  25.611  0.00  0.00    +0.000 C 
ATOM     30  O   UNL     1      -3.400  14.601  24.514  0.00  0.00    +0.000 OA
ENDBRANCH  21  30
ENDBRANCH  20  25
ENDBRANCH   1  20
TORSDOF 6
ENDMDL
MODEL 4
REMARK VINA RESULT:      -7.3      1.242      4.841
REMARK  Name = 
REMARK  7 active torsions:
REMARK  status: ('A' for Active; 'I' for Inactive)
REMARK    1  A    between atoms: C_1  and  O_2
REMARK    2  A    between atoms: O_2  and  C_3
REMARK    3  A    between atoms: C_7  and  C_8
REMARK    4  A    between atoms: C_8  and  P_9
REMARK    5  A    between atoms: P_9  and  C_10
REMARK    6  A    between atoms: P_9  and  C_16
REMARK    7  A    between atoms: P_9  and  C_22
REMARK                            x       y       z     vdW  Elec       q    Type
REMARK                         _______ _______ _______ _____ _____    ______ ____
ROOT
ATOM      1  P   UNL     1      -0.468  11.074  19.549  0.00  0.00    +0.000 P 
ENDROOT
BRANCH   1   2
ATOM      2  C   UNL     1      -1.885  10.876  18.460  0.00  0.00    +0.000 A 
ATOM      3  C   UNL     1      -1.749  10.066  17.317  0.00  0.00    +0.000 A 
ATOM      4  C   UNL     1      -2.743  10.021  16.340  0.00  0.00    +0.000 A 
ATOM      5  C   UNL     1      -3.895  10.786  16.491  0.00  0.00    +0.000 A 
ATOM      6  C   UNL     1      -4.062  11.567  17.632  0.00  0.00    +0.000 A 
ATOM      7  C   UNL     1      -3.071  11.601  18.617  0.00  0.00    +0.000 A 
ENDBRANCH   1   2
BRANCH   1   8
ATOM      8  C   UNL     1       0.276  12.690  19.370  0.00  0.00    +0.000 A 
ATOM      9  C   UNL     1      -0.444  13.728  18.764  0.00  0.00    +0.000 A 
ATOM     10  C   UNL     1       0.142  14.983  18.562  0.00  0.00    +0.000 A 
ATOM     11  C   UNL     1       1.453  15.224  18.961  0.00  0.00    +0.000 A 
ATOM     12  C   UNL     1       2.179  14.208  19.579  0.00  0.00    +0.000 A 
ATOM     13  C   UNL     1       1.592  12.958  19.791  0.00  0.00    +0.000 A 
ENDBRANCH   1   8
BRANCH   1  14
ATOM     14  C   UNL     1       0.792   9.804  19.328  0.00  0.00    +0.000 A 
ATOM     15  C   UNL     1       1.095   8.868  20.329  0.00  0.00    +0.000 A 
ATOM     16  C   UNL     1       1.870   7.737  20.067  0.00  0.00    +0.000 A 
ATOM     17  C   UNL     1       2.455   7.578  18.819  0.00  0.00    +0.000 A 
ATOM     18  C   UNL     1       2.291   8.570  17.856  0.00  0.00    +0.000 A 
ATOM     19  C   UNL     1       1.466   9.674  18.107  0.00  0.00    +0.000 A 
ENDBRANCH   1  14
BRANCH   1  20
ATOM     20  C   UNL     1      -1.212  10.948  21.219  0.00  0.00    +0.000 C 
BRANCH  20  25
ATOM     21  C   UNL     1      -1.802  15.068  21.801  0.00  0.00    +0.000 C 
ATOM     22  C   UNL     1      -2.816  14.254  21.484  0.00  0.00    +0.000 C 
ATOM     23  C   UNL     1      -2.759  12.839  21.884  0.00  0.00    +0.000 C 
ATOM     24  O   UNL     1      -3.772  12.197  22.110  0.00  0.00    +0.000 OA
ATOM     25  C   UNL     1      -1.394  12.262  21.947  0.00  0.00    +0.000 C 
ATOM     26  C   UNL     1      -0.480  13.051  22.537  0.00  0.00    +0.000 C 
ATOM     27  C   UNL     1      -0.731  14.506  22.691  0.00  0.00    +0.000 C 
ATOM     28  O   UNL     1      -0.012  15.204  23.394  0.00  0.00    +0.000 OA
BRANCH  21  30
ATOM     29  C   UNL     1      -2.549  16.849  20.395  0.00  0.00    +0.000 C 
ATOM     30  O   UNL     1      -1.635  16.369  21.375  0.00  0.00    +0.000 OA
ENDBRANCH  21  30
ENDBRANCH  20  25
ENDBRANCH   1  20
TORSDOF 6
ENDMDL
MODEL 5
REMARK VINA RESULT:      -7.2      1.261      2.141
REMARK  Name = 
REMARK  7 active torsions:
REMARK  status: ('A' for Active; 'I' for Inactive)
REMARK    1  A    between atoms: C_1  and  O_2
REMARK    2  A    between atoms: O_2  and  C_3
REMARK    3  A    between atoms: C_7  and  C_8
REMARK    4  A    between atoms: C_8  and  P_9
REMARK    5  A    between atoms: P_9  and  C_10
REMARK    6  A    between atoms: P_9  and  C_16
REMARK    7  A    between atoms: P_9  and  C_22
REMARK                            x       y       z     vdW  Elec       q    Type
REMARK                         _______ _______ _______ _____ _____    ______ ____
ROOT
ATOM      1  P   UNL     1      -0.512  11.150  19.396  0.00  0.00    +0.000 P 
ENDROOT
BRANCH   1   2
ATOM      2  C   UNL     1       0.532   9.702  19.185  0.00  0.00    +0.000 A 
ATOM      3  C   UNL     1       0.829   8.914  20.313  0.00  0.00    +0.000 A 
ATOM      4  C   UNL     1       1.776   7.893  20.253  0.00  0.00    +0.000 A 
ATOM      5  C   UNL     1       2.443   7.639  19.059  0.00  0.00    +0.000 A 
ATOM      6  C   UNL     1       2.138   8.386  17.924  0.00  0.00    +0.000 A 
ATOM      7  C   UNL     1       1.179   9.401  17.982  0.00  0.00    +0.000 A 
ENDBRANCH   1   2
BRANCH   1   8
ATOM      8  C   UNL     1      -1.953  11.080  18.338  0.00  0.00    +0.000 A 
ATOM      9  C   UNL     1      -3.128  11.744  18.713  0.00  0.00    +0.000 A 
ATOM     10  C   UNL     1      -4.284  11.652  17.928  0.00  0.00    +0.000 A 
ATOM     11  C   UNL     1      -4.285  10.899  16.757  0.00  0.00    +0.000 A 
ATOM     12  C   UNL     1      -3.120  10.246  16.361  0.00  0.00    +0.000 A 
ATOM     13  C   UNL     1      -1.963  10.344  17.139  0.00  0.00    +0.000 A 
ENDBRANCH   1   8
BRANCH   1  14
ATOM     14  C   UNL     1       0.354  12.708  19.128  0.00  0.00    +0.000 A 
ATOM     15  C   UNL     1      -0.300  13.856  18.653  0.00  0.00    +0.000 A 
ATOM     16  C   UNL     1       0.302  15.115  18.697  0.00  0.00    +0.000 A 
ATOM     17  C   UNL     1       1.620  15.234  19.114  0.00  0.00    +0.000 A 
ATOM     18  C   UNL     1       2.337  14.087  19.448  0.00  0.00    +0.000 A 
ATOM     19  C   UNL     1       1.710  12.835  19.456  0.00  0.00    +0.000 A 
ENDBRANCH   1  14
BRANCH   1  20
ATOM     20  C   UNL     1      -1.054  11.016  21.142  0.00  0.00    +0.000 C 
BRANCH  20  25
ATOM     21  C   UNL     1      -1.741  15.115  21.762  0.00  0.00    +0.000 C 
ATOM     22  C   UNL     1      -2.751  14.256  21.578  0.00  0.00    +0.000 C 
ATOM     23  C   UNL     1      -2.586  12.850  21.978  0.00  0.00    +0.000 C 
ATOM     24  O   UNL     1      -3.535  12.171  22.332  0.00  0.00    +0.000 OA
ATOM     25  C   UNL     1      -1.200  12.330  21.877  0.00  0.00    +0.000 C 
ATOM     26  C   UNL     1      -0.255  13.163  22.344  0.00  0.00    +0.000 C 
ATOM     27  C   UNL     1      -0.546  14.608  22.517  0.00  0.00    +0.000 C 
ATOM     28  O   UNL     1       0.223  15.344  23.122  0.00  0.00    +0.000 OA
BRANCH  21  30
ATOM     29  C   UNL     1      -2.472  17.377  22.002  0.00  0.00    +0.000 C 
ATOM     30  O   UNL     1      -1.682  16.417  21.309  0.00  0.00    +0.000 OA
ENDBRANCH  21  30
ENDBRANCH  20  25
ENDBRANCH   1  20
TORSDOF 6
ENDMDL
MODEL 6
REMARK VINA RESULT:      -7.2      2.040      5.858
REMARK  Name = 
REMARK  7 active torsions:
REMARK  status: ('A' for Active; 'I' for Inactive)
REMARK    1  A    between atoms: C_1  and  O_2
REMARK    2  A    between atoms: O_2  and  C_3
REMARK    3  A    between atoms: C_7  and  C_8
REMARK    4  A    between atoms: C_8  and  P_9
REMARK    5  A    between atoms: P_9  and  C_10
REMARK    6  A    between atoms: P_9  and  C_16
REMARK    7  A    between atoms: P_9  and  C_22
REMARK                            x       y       z     vdW  Elec       q    Type
REMARK                         _______ _______ _______ _____ _____    ______ ____
ROOT
ATOM      1  P   UNL     1      -0.866  11.346  19.219  0.00  0.00    +0.000 P 
ENDROOT
BRANCH   1   2
ATOM      2  C   UNL     1      -2.133  10.943  18.011  0.00  0.00    +0.000 A 
ATOM      3  C   UNL     1      -1.845   9.978  17.027  0.00  0.00    +0.000 A 
ATOM      4  C   UNL     1      -2.710   9.756  15.956  0.00  0.00    +0.000 A 
ATOM      5  C   UNL     1      -3.883  10.494  15.851  0.00  0.00    +0.000 A 
ATOM      6  C   UNL     1      -4.202  11.429  16.833  0.00  0.00    +0.000 A 
ATOM      7  C   UNL     1      -3.341  11.641  17.914  0.00  0.00    +0.000 A 
ENDBRANCH   1   2
BRANCH   1   8
ATOM      8  C   UNL     1       0.295  10.001  19.426  0.00  0.00    +0.000 A 
ATOM      9  C   UNL     1       1.144   9.642  18.371  0.00  0.00    +0.000 A 
ATOM     10  C   UNL     1       2.017   8.554  18.494  0.00  0.00    +0.000 A 
ATOM     11  C   UNL     1       2.059   7.810  19.669  0.00  0.00    +0.000 A 
ATOM     12  C   UNL     1       1.233   8.163  20.734  0.00  0.00    +0.000 A 
ATOM     13  C   UNL     1       0.368   9.255  20.617  0.00  0.00    +0.000 A 
ENDBRANCH   1   8
BRANCH   1  14
ATOM     14  C   UNL     1      -1.529  11.820  20.827  0.00  0.00    +0.000 A 
ATOM     15  C   UNL     1      -2.688  12.601  20.958  0.00  0.00    +0.000 A 
ATOM     16  C   UNL     1      -3.343  12.744  22.182  0.00  0.00    +0.000 A 
ATOM     17  C   UNL     1      -2.785  12.199  23.329  0.00  0.00    +0.000 A 
ATOM     18  C   UNL     1      -1.556  11.546  23.248  0.00  0.00    +0.000 A 
ATOM     19  C   UNL     1      -0.933  11.358  22.008  0.00  0.00    +0.000 A 
ENDBRANCH   1  14
BRANCH   1  20
ATOM     20  C   UNL     1       0.004  12.763  18.447  0.00  0.00    +0.000 C 
BRANCH  20  25
ATOM     21  C   UNL     1       3.321  15.021  19.696  0.00  0.00    +0.000 C 
ATOM     22  C   UNL     1       2.307  15.579  19.023  0.00  0.00    +0.000 C 
ATOM     23  C   UNL     1       0.958  15.003  19.139  0.00  0.00    +0.000 C 
ATOM     24  O   UNL     1      -0.043  15.691  19.021  0.00  0.00    +0.000 OA
ATOM     25  C   UNL     1       0.921  13.538  19.366  0.00  0.00    +0.000 C 
ATOM     26  C   UNL     1       1.805  13.092  20.276  0.00  0.00    +0.000 C 
ATOM     27  C   UNL     1       2.974  13.922  20.658  0.00  0.00    +0.000 C 
ATOM     28  O   UNL     1       3.675  13.629  21.618  0.00  0.00    +0.000 OA
BRANCH  21  30
ATOM     29  C   UNL     1       5.329  14.889  18.410  0.00  0.00    +0.000 C 
ATOM     30  O   UNL     1       4.656  15.345  19.578  0.00  0.00    +0.000 OA
ENDBRANCH  21  30
ENDBRANCH  20  25
ENDBRANCH   1  20
TORSDOF 6
ENDMDL
MODEL 7
REMARK VINA RESULT:      -7.2      1.255      4.961
REMARK  Name = 
REMARK  7 active torsions:
REMARK  status: ('A' for Active; 'I' for Inactive)
REMARK    1  A    between atoms: C_1  and  O_2
REMARK    2  A    between atoms: O_2  and  C_3
REMARK    3  A    between atoms: C_7  and  C_8
REMARK    4  A    between atoms: C_8  and  P_9
REMARK    5  A    between atoms: P_9  and  C_10
REMARK    6  A    between atoms: P_9  and  C_16
REMARK    7  A    between atoms: P_9  and  C_22
REMARK                            x       y       z     vdW  Elec       q    Type
REMARK                         _______ _______ _______ _____ _____    ______ ____
ROOT
ATOM      1  P   UNL     1      -0.396  11.135  19.506  0.00  0.00    +0.000 P 
ENDROOT
BRANCH   1   2
ATOM      2  C   UNL     1      -1.779  11.001  18.366  0.00  0.00    +0.000 A 
ATOM      3  C   UNL     1      -2.958  11.718  18.646  0.00  0.00    +0.000 A 
ATOM      4  C   UNL     1      -4.122  11.513  17.908  0.00  0.00    +0.000 A 
ATOM      5  C   UNL     1      -4.129  10.587  16.871  0.00  0.00    +0.000 A 
ATOM      6  C   UNL     1      -2.963   9.893  16.556  0.00  0.00    +0.000 A 
ATOM      7  C   UNL     1      -1.792  10.109  17.289  0.00  0.00    +0.000 A 
ENDBRANCH   1   2
BRANCH   1   8
ATOM      8  C   UNL     1       0.400  12.732  19.385  0.00  0.00    +0.000 A 
ATOM      9  C   UNL     1       1.688  12.912  19.908  0.00  0.00    +0.000 A 
ATOM     10  C   UNL     1       2.305  14.168  19.875  0.00  0.00    +0.000 A 
ATOM     11  C   UNL     1       1.650  15.263  19.321  0.00  0.00    +0.000 A 
ATOM     12  C   UNL     1       0.375  15.099  18.782  0.00  0.00    +0.000 A 
ATOM     13  C   UNL     1      -0.238  13.843  18.805  0.00  0.00    +0.000 A 
ENDBRANCH   1   8
BRANCH   1  14
ATOM     14  C   UNL     1       0.834   9.833  19.303  0.00  0.00    +0.000 A 
ATOM     15  C   UNL     1       1.111   8.901  20.316  0.00  0.00    +0.000 A 
ATOM     16  C   UNL     1       1.859   7.748  20.068  0.00  0.00    +0.000 A 
ATOM     17  C   UNL     1       2.443   7.561  18.824  0.00  0.00    +0.000 A 
ATOM     18  C   UNL     1       2.306   8.547  17.849  0.00  0.00    +0.000 A 
ATOM     19  C   UNL     1       1.507   9.673  18.086  0.00  0.00    +0.000 A 
ENDBRANCH   1  14
BRANCH   1  20
ATOM     20  C   UNL     1      -1.201  11.000  21.147  0.00  0.00    +0.000 C 
BRANCH  20  25
ATOM     21  C   UNL     1      -1.774  15.113  21.791  0.00  0.00    +0.000 C 
ATOM     22  C   UNL     1      -2.794  14.305  21.478  0.00  0.00    +0.000 C 
ATOM     23  C   UNL     1      -2.734  12.884  21.858  0.00  0.00    +0.000 C 
ATOM     24  O   UNL     1      -3.745  12.242  22.091  0.00  0.00    +0.000 OA
ATOM     25  C   UNL     1      -1.370  12.304  21.895  0.00  0.00    +0.000 C 
ATOM     26  C   UNL     1      -0.446  13.084  22.482  0.00  0.00    +0.000 C 
ATOM     27  C   UNL     1      -0.692  14.537  22.658  0.00  0.00    +0.000 C 
ATOM     28  O   UNL     1       0.039  15.225  23.361  0.00  0.00    +0.000 OA
BRANCH  21  30
ATOM     29  C   UNL     1      -2.602  16.949  20.508  0.00  0.00    +0.000 C 
ATOM     30  O   UNL     1      -1.610  16.419  21.380  0.00  0.00    +0.000 OA
ENDBRANCH  21  30
ENDBRANCH  20  25
ENDBRANCH   1  20
TORSDOF 6
ENDMDL
MODEL 8
REMARK VINA RESULT:      -7.1      0.175      4.461
REMARK  Name = 
REMARK  7 active torsions:
REMARK  status: ('A' for Active; 'I' for Inactive)
REMARK    1  A    between atoms: C_1  and  O_2
REMARK    2  A    between atoms: O_2  and  C_3
REMARK    3  A    between atoms: C_7  and  C_8
REMARK    4  A    between atoms: C_8  and  P_9
REMARK    5  A    between atoms: P_9  and  C_10
REMARK    6  A    between atoms: P_9  and  C_16
REMARK    7  A    between atoms: P_9  and  C_22
REMARK                            x       y       z     vdW  Elec       q    Type
REMARK                         _______ _______ _______ _____ _____    ______ ____
ROOT
ATOM      1  P   UNL     1      -0.331  11.074  19.290  0.00  0.00    +0.000 P 
ENDROOT
BRANCH   1   2
ATOM      2  C   UNL     1      -1.766  10.834  18.234  0.00  0.00    +0.000 A 
ATOM      3  C   UNL     1      -1.664   9.944  17.148  0.00  0.00    +0.000 A 
ATOM      4  C   UNL     1      -2.671   9.854  16.189  0.00  0.00    +0.000 A 
ATOM      5  C   UNL     1      -3.804  10.652  16.301  0.00  0.00    +0.000 A 
ATOM      6  C   UNL     1      -3.939  11.513  17.387  0.00  0.00    +0.000 A 
ATOM      7  C   UNL     1      -2.934  11.593  18.355  0.00  0.00    +0.000 A 
ENDBRANCH   1   2
BRANCH   1   8
ATOM      8  C   UNL     1       0.454  12.651  18.979  0.00  0.00    +0.000 A 
ATOM      9  C   UNL     1       1.846  12.772  19.086  0.00  0.00    +0.000 A 
ATOM     10  C   UNL     1       2.473  14.011  18.905  0.00  0.00    +0.000 A 
ATOM     11  C   UNL     1       1.723  15.147  18.613  0.00  0.00    +0.000 A 
ATOM     12  C   UNL     1       0.340  15.042  18.488  0.00  0.00    +0.000 A 
ATOM     13  C   UNL     1      -0.287  13.804  18.659  0.00  0.00    +0.000 A 
ENDBRANCH   1   8
BRANCH   1  14
ATOM     14  C   UNL     1       0.892   9.758  19.153  0.00  0.00    +0.000 A 
ATOM     15  C   UNL     1       1.162   8.873  20.210  0.00  0.00    +0.000 A 
ATOM     16  C   UNL     1       1.904   7.707  20.020  0.00  0.00    +0.000 A 
ATOM     17  C   UNL     1       2.491   7.457  18.788  0.00  0.00    +0.000 A 
ATOM     18  C   UNL     1       2.361   8.395  17.766  0.00  0.00    +0.000 A 
ATOM     19  C   UNL     1       1.568   9.536  17.946  0.00  0.00    +0.000 A 
ENDBRANCH   1  14
BRANCH   1  20
ATOM     20  C   UNL     1      -1.057  11.097  20.972  0.00  0.00    +0.000 C 
BRANCH  20  25
ATOM     21  C   UNL     1      -2.610  14.032  23.547  0.00  0.00    +0.000 C 
ATOM     22  C   UNL     1      -1.316  13.689  23.577  0.00  0.00    +0.000 C 
ATOM     23  C   UNL     1      -0.674  13.184  22.353  0.00  0.00    +0.000 C 
ATOM     24  O   UNL     1       0.516  13.347  22.142  0.00  0.00    +0.000 OA
ATOM     25  C   UNL     1      -1.573  12.441  21.436  0.00  0.00    +0.000 C 
ATOM     26  C   UNL     1      -2.775  13.012  21.248  0.00  0.00    +0.000 C 
ATOM     27  C   UNL     1      -3.285  14.023  22.206  0.00  0.00    +0.000 C 
ATOM     28  O   UNL     1      -4.276  14.697  21.953  0.00  0.00    +0.000 OA
BRANCH  21  30
ATOM     29  C   UNL     1      -2.842  15.323  25.544  0.00  0.00    +0.000 C 
ATOM     30  O   UNL     1      -3.389  14.377  24.632  0.00  0.00    +0.000 OA
ENDBRANCH  21  30
ENDBRANCH  20  25
ENDBRANCH   1  20
TORSDOF 6
ENDMDL
MODEL 9
REMARK VINA RESULT:      -7.1      1.302      1.419
REMARK  Name = 
REMARK  7 active torsions:
REMARK  status: ('A' for Active; 'I' for Inactive)
REMARK    1  A    between atoms: C_1  and  O_2
REMARK    2  A    between atoms: O_2  and  C_3
REMARK    3  A    between atoms: C_7  and  C_8
REMARK    4  A    between atoms: C_8  and  P_9
REMARK    5  A    between atoms: P_9  and  C_10
REMARK    6  A    between atoms: P_9  and  C_16
REMARK    7  A    between atoms: P_9  and  C_22
REMARK                            x       y       z     vdW  Elec       q    Type
REMARK                         _______ _______ _______ _____ _____    ______ ____
ROOT
ATOM      1  P   UNL     1      -0.007  10.967  19.183  0.00  0.00    +0.000 P 
ENDROOT
BRANCH   1   2
ATOM      2  C   UNL     1       1.107   9.557  19.133  0.00  0.00    +0.000 A 
ATOM      3  C   UNL     1       1.699   9.208  17.904  0.00  0.00    +0.000 A 
ATOM      4  C   UNL     1       2.419   8.024  17.759  0.00  0.00    +0.000 A 
ATOM      5  C   UNL     1       2.563   7.165  18.843  0.00  0.00    +0.000 A 
ATOM      6  C   UNL     1       2.014   7.510  20.075  0.00  0.00    +0.000 A 
ATOM      7  C   UNL     1       1.303   8.704  20.224  0.00  0.00    +0.000 A 
ENDBRANCH   1   2
BRANCH   1   8
ATOM      8  C   UNL     1      -1.411  10.733  18.100  0.00  0.00    +0.000 A 
ATOM      9  C   UNL     1      -1.633  11.624  17.041  0.00  0.00    +0.000 A 
ATOM     10  C   UNL     1      -2.758  11.492  16.219  0.00  0.00    +0.000 A 
ATOM     11  C   UNL     1      -3.678  10.470  16.437  0.00  0.00    +0.000 A 
ATOM     12  C   UNL     1      -3.464   9.566  17.476  0.00  0.00    +0.000 A 
ATOM     13  C   UNL     1      -2.336   9.690  18.291  0.00  0.00    +0.000 A 
ENDBRANCH   1   8
BRANCH   1  14
ATOM     14  C   UNL     1       0.797  12.533  18.794  0.00  0.00    +0.000 A 
ATOM     15  C   UNL     1       0.137  13.766  18.926  0.00  0.00    +0.000 A 
ATOM     16  C   UNL     1       0.829  14.978  18.881  0.00  0.00    +0.000 A 
ATOM     17  C   UNL     1       2.185  14.985  18.590  0.00  0.00    +0.000 A 
ATOM     18  C   UNL     1       2.831  13.783  18.308  0.00  0.00    +0.000 A 
ATOM     19  C   UNL     1       2.143  12.567  18.410  0.00  0.00    +0.000 A 
ENDBRANCH   1  14
BRANCH   1  20
ATOM     20  C   UNL     1      -0.594  10.967  20.919  0.00  0.00    +0.000 C 
BRANCH  20  25
ATOM     21  C   UNL     1      -4.082  12.656  22.543  0.00  0.00    +0.000 C 
ATOM     22  C   UNL     1      -2.996  12.437  23.294  0.00  0.00    +0.000 C 
ATOM     23  C   UNL     1      -1.666  12.455  22.663  0.00  0.00    +0.000 C 
ATOM     24  O   UNL     1      -0.669  12.784  23.285  0.00  0.00    +0.000 OA
ATOM     25  C   UNL     1      -1.639  12.010  21.249  0.00  0.00    +0.000 C 
ATOM     26  C   UNL     1      -2.630  12.505  20.488  0.00  0.00    +0.000 C 
ATOM     27  C   UNL     1      -3.852  13.064  21.117  0.00  0.00    +0.000 C 
ATOM     28  O   UNL     1      -4.672  13.695  20.462  0.00  0.00    +0.000 OA
BRANCH  21  30
ATOM     29  C   UNL     1      -5.933  13.579  23.738  0.00  0.00    +0.000 C 
ATOM     30  O   UNL     1      -5.395  12.525  22.948  0.00  0.00    +0.000 OA
ENDBRANCH  21  30
ENDBRANCH  20  25
ENDBRANCH   1  20
TORSDOF 6
ENDMDL
