MODEL 1
REMARK VINA RESULT:      -6.9      0.000      0.000
REMARK  Name = 
REMARK  9 active torsions:
REMARK  status: ('A' for Active; 'I' for Inactive)
REMARK    1  A    between atoms: C_1  and  C_2
REMARK    2  A    between atoms: C_2  and  C_3
REMARK    3  A    between atoms: C_2  and  C_4
REMARK    4  A    between atoms: C_4  and  N_5
REMARK    5  A    between atoms: N_10  and  C_11
REMARK    6  A    between atoms: C_11  and  C_12
REMARK    7  A    between atoms: C_11  and  C_14
REMARK    8  A    between atoms: C_12  and  O_13
REMARK    9  A    between atoms: C_14  and  C_15
REMARK                            x       y       z     vdW  Elec       q    Type
REMARK                         _______ _______ _______ _____ _____    ______ ____
ROOT
ATOM      1  N   UNL     1       6.103   3.811  14.424  0.00  0.00    +0.000 NA
ATOM      2  C   UNL     1       6.651   5.172  14.400  0.00  0.00    +0.000 C 
ATOM      3  C   UNL     1       5.704   6.272  14.848  0.00  0.00    +0.000 C 
ATOM      4  C   UNL     1       5.699   6.440  16.346  0.00  0.00    +0.000 C 
ATOM      5  O   UNL     1       6.213   7.436  16.857  0.00  0.00    +0.000 OA
ATOM      6  N   UNL     1       5.065   5.465  17.101  0.00  0.00    +0.000 N 
ATOM      7  C   UNL     1       4.672   4.157  16.554  0.00  0.00    +0.000 C 
ATOM      8  C   UNL     1       5.782   3.389  15.800  0.00  0.00    +0.000 C 
ENDROOT
BRANCH   1   9
ATOM      9  C   UNL     1       4.996   3.564  13.483  0.00  0.00    +0.000 C 
BRANCH   9  11
ATOM     10  C   UNL     1       6.468   2.404  11.749  0.00  0.00    +0.000 C 
ATOM     11  C   UNL     1       5.397   3.467  11.991  0.00  0.00    +0.000 C 
ATOM     12  C   UNL     1       4.163   3.161  11.135  0.00  0.00    +0.000 C 
ENDBRANCH   9  11
ENDBRANCH   1   9
BRANCH   6  13
ATOM     13  C   UNL     1       4.733   5.814  18.511  0.00  0.00    +0.000 C 
BRANCH  13  14
ATOM     14  C   UNL     1       5.310   4.772  19.488  0.00  0.00    +0.000 C 
BRANCH  14  15
ATOM     15  O   UNL     1       6.669   5.062  19.813  0.00  0.00    +0.000 OA
ATOM     16  H   UNL     1       7.118   4.204  19.907  0.00  0.00    +0.000 HD
ENDBRANCH  14  15
ENDBRANCH  13  14
BRANCH  13  17
ATOM     17  C   UNL     1       3.237   6.096  18.816  0.00  0.00    +0.000 C 
BRANCH  17  18
ATOM     18  C   UNL     1       2.469   4.906  19.354  0.00  0.00    +0.000 A 
ATOM     19  C   UNL     1       1.836   4.023  18.465  0.00  0.00    +0.000 A 
ATOM     20  C   UNL     1       1.053   2.973  18.947  0.00  0.00    +0.000 A 
ATOM     21  C   UNL     1       0.913   2.780  20.319  0.00  0.00    +0.000 A 
ATOM     22  C   UNL     1       1.575   3.623  21.210  0.00  0.00    +0.000 A 
ATOM     23  C   UNL     1       2.355   4.677  20.731  0.00  0.00    +0.000 A 
ENDBRANCH  17  18
ENDBRANCH  13  17
ENDBRANCH   6  13
TORSDOF 7
ENDMDL
MODEL 2
REMARK VINA RESULT:      -6.9      1.815      2.821
REMARK  Name = 
REMARK  9 active torsions:
REMARK  status: ('A' for Active; 'I' for Inactive)
REMARK    1  A    between atoms: C_1  and  C_2
REMARK    2  A    between atoms: C_2  and  C_3
REMARK    3  A    between atoms: C_2  and  C_4
REMARK    4  A    between atoms: C_4  and  N_5
REMARK    5  A    between atoms: N_10  and  C_11
REMARK    6  A    between atoms: C_11  and  C_12
REMARK    7  A    between atoms: C_11  and  C_14
REMARK    8  A    between atoms: C_12  and  O_13
REMARK    9  A    between atoms: C_14  and  C_15
REMARK                            x       y       z     vdW  Elec       q    Type
REMARK                         _______ _______ _______ _____ _____    ______ ____
ROOT
ATOM      1  N   UNL     1       6.805   4.025  15.545  0.00  0.00    +0.000 NA
ATOM      2  C   UNL     1       7.378   4.930  16.549  0.00  0.00    +0.000 C 
ATOM      3  C   UNL     1       6.395   5.870  17.225  0.00  0.00    +0.000 C 
ATOM      4  C   UNL     1       5.702   5.220  18.395  0.00  0.00    +0.000 C 
ATOM      5  O   UNL     1       5.974   5.569  19.545  0.00  0.00    +0.000 OA
ATOM      6  N   UNL     1       4.734   4.265  18.120  0.00  0.00    +0.000 N 
ATOM      7  C   UNL     1       4.569   3.651  16.793  0.00  0.00    +0.000 C 
ATOM      8  C   UNL     1       5.857   3.079  16.159  0.00  0.00    +0.000 C 
ENDROOT
BRANCH   1   9
ATOM      9  C   UNL     1       6.253   4.685  14.349  0.00  0.00    +0.000 C 
BRANCH   9  11
ATOM     10  C   UNL     1       4.900   3.655  12.443  0.00  0.00    +0.000 C 
ATOM     11  C   UNL     1       6.292   3.849  13.046  0.00  0.00    +0.000 C 
ATOM     12  C   UNL     1       7.210   4.520  12.019  0.00  0.00    +0.000 C 
ENDBRANCH   9  11
ENDBRANCH   1   9
BRANCH   6  13
ATOM     13  C   UNL     1       3.803   3.911  19.228  0.00  0.00    +0.000 C 
BRANCH  13  14
ATOM     14  C   UNL     1       3.890   2.409  19.562  0.00  0.00    +0.000 C 
BRANCH  14  15
ATOM     15  O   UNL     1       5.199   2.049  20.001  0.00  0.00    +0.000 OA
ATOM     16  H   UNL     1       5.105   1.209  20.482  0.00  0.00    +0.000 HD
ENDBRANCH  14  15
ENDBRANCH  13  14
BRANCH  13  17
ATOM     17  C   UNL     1       2.327   4.361  19.057  0.00  0.00    +0.000 C 
BRANCH  17  18
ATOM     18  C   UNL     1       2.093   5.842  19.268  0.00  0.00    +0.000 A 
ATOM     19  C   UNL     1       2.346   6.746  18.225  0.00  0.00    +0.000 A 
ATOM     20  C   UNL     1       2.219   8.120  18.431  0.00  0.00    +0.000 A 
ATOM     21  C   UNL     1       1.815   8.605  19.672  0.00  0.00    +0.000 A 
ATOM     22  C   UNL     1       1.515   7.714  20.702  0.00  0.00    +0.000 A 
ATOM     23  C   UNL     1       1.647   6.339  20.499  0.00  0.00    +0.000 A 
ENDBRANCH  17  18
ENDBRANCH  13  17
ENDBRANCH   6  13
TORSDOF 7
ENDMDL
MODEL 3
REMARK VINA RESULT:      -6.9      0.623      1.407
REMARK  Name = 
REMARK  9 active torsions:
REMARK  status: ('A' for Active; 'I' for Inactive)
REMARK    1  A    between atoms: C_1  and  C_2
REMARK    2  A    between atoms: C_2  and  C_3
REMARK    3  A    between atoms: C_2  and  C_4
REMARK    4  A    between atoms: C_4  and  N_5
REMARK    5  A    between atoms: N_10  and  C_11
REMARK    6  A    between atoms: C_11  and  C_12
REMARK    7  A    between atoms: C_11  and  C_14
REMARK    8  A    between atoms: C_12  and  O_13
REMARK    9  A    between atoms: C_14  and  C_15
REMARK                            x       y       z     vdW  Elec       q    Type
REMARK                         _______ _______ _______ _____ _____    ______ ____
ROOT
ATOM      1  N   UNL     1       6.391   3.772  14.447  0.00  0.00    +0.000 NA
ATOM      2  C   UNL     1       7.377   4.794  14.818  0.00  0.00    +0.000 C 
ATOM      3  C   UNL     1       6.807   6.146  15.210  0.00  0.00    +0.000 C 
ATOM      4  C   UNL     1       6.405   6.193  16.663  0.00  0.00    +0.000 C 
ATOM      5  O   UNL     1       7.064   6.857  17.464  0.00  0.00    +0.000 OA
ATOM      6  N   UNL     1       5.260   5.504  17.035  0.00  0.00    +0.000 N 
ATOM      7  C   UNL     1       4.606   4.509  16.171  0.00  0.00    +0.000 C 
ATOM      8  C   UNL     1       5.534   3.416  15.592  0.00  0.00    +0.000 C 
ENDROOT
BRANCH   1   9
ATOM      9  C   UNL     1       5.616   4.062  13.227  0.00  0.00    +0.000 C 
BRANCH   9  11
ATOM     10  C   UNL     1       4.279   3.113  11.269  0.00  0.00    +0.000 C 
ATOM     11  C   UNL     1       5.412   2.866  12.265  0.00  0.00    +0.000 C 
ATOM     12  C   UNL     1       6.712   2.574  11.508  0.00  0.00    +0.000 C 
ENDBRANCH   9  11
ENDBRANCH   1   9
BRANCH   6  13
ATOM     13  C   UNL     1       4.663   5.854  18.355  0.00  0.00    +0.000 C 
BRANCH  13  14
ATOM     14  C   UNL     1       5.011   4.792  19.416  0.00  0.00    +0.000 C 
BRANCH  14  15
ATOM     15  O   UNL     1       6.365   4.914  19.849  0.00  0.00    +0.000 OA
ATOM     16  H   UNL     1       6.859   5.291  19.101  0.00  0.00    +0.000 HD
ENDBRANCH  14  15
ENDBRANCH  13  14
BRANCH  13  17
ATOM     17  C   UNL     1       3.144   6.172  18.361  0.00  0.00    +0.000 C 
BRANCH  17  18
ATOM     18  C   UNL     1       2.267   5.046  18.871  0.00  0.00    +0.000 A 
ATOM     19  C   UNL     1       1.905   5.001  20.226  0.00  0.00    +0.000 A 
ATOM     20  C   UNL     1       1.172   3.925  20.728  0.00  0.00    +0.000 A 
ATOM     21  C   UNL     1       0.773   2.896  19.878  0.00  0.00    +0.000 A 
ATOM     22  C   UNL     1       1.086   2.954  18.521  0.00  0.00    +0.000 A 
ATOM     23  C   UNL     1       1.824   4.027  18.018  0.00  0.00    +0.000 A 
ENDBRANCH  17  18
ENDBRANCH  13  17
ENDBRANCH   6  13
TORSDOF 7
ENDMDL
MODEL 4
REMARK VINA RESULT:      -6.7      1.915      3.017
REMARK  Name = 
REMARK  9 active torsions:
REMARK  status: ('A' for Active; 'I' for Inactive)
REMARK    1  A    between atoms: C_1  and  C_2
REMARK    2  A    between atoms: C_2  and  C_3
REMARK    3  A    between atoms: C_2  and  C_4
REMARK    4  A    between atoms: C_4  and  N_5
REMARK    5  A    between atoms: N_10  and  C_11
REMARK    6  A    between atoms: C_11  and  C_12
REMARK    7  A    between atoms: C_11  and  C_14
REMARK    8  A    between atoms: C_12  and  O_13
REMARK    9  A    between atoms: C_14  and  C_15
REMARK                            x       y       z     vdW  Elec       q    Type
REMARK                         _______ _______ _______ _____ _____    ______ ____
ROOT
ATOM      1  N   UNL     1       6.541   3.879  15.318  0.00  0.00    +0.000 NA
ATOM      2  C   UNL     1       7.258   4.833  16.172  0.00  0.00    +0.000 C 
ATOM      3  C   UNL     1       6.401   5.893  16.841  0.00  0.00    +0.000 C 
ATOM      4  C   UNL     1       5.791   5.399  18.129  0.00  0.00    +0.000 C 
ATOM      5  O   UNL     1       6.194   5.833  19.209  0.00  0.00    +0.000 OA
ATOM      6  N   UNL     1       4.750   4.487  18.039  0.00  0.00    +0.000 N 
ATOM      7  C   UNL     1       4.421   3.766  16.800  0.00  0.00    +0.000 C 
ATOM      8  C   UNL     1       5.606   3.056  16.107  0.00  0.00    +0.000 C 
ENDROOT
BRANCH   1   9
ATOM      9  C   UNL     1       5.910   4.462  14.120  0.00  0.00    +0.000 C 
BRANCH   9  11
ATOM     10  C   UNL     1       4.758   3.557  12.028  0.00  0.00    +0.000 C 
ATOM     11  C   UNL     1       6.065   3.639  12.818  0.00  0.00    +0.000 C 
ATOM     12  C   UNL     1       7.161   4.250  11.938  0.00  0.00    +0.000 C 
ENDBRANCH   9  11
ENDBRANCH   1   9
BRANCH   6  13
ATOM     13  C   UNL     1       3.914   4.296  19.259  0.00  0.00    +0.000 C 
BRANCH  13  14
ATOM     14  C   UNL     1       4.033   2.854  19.788  0.00  0.00    +0.000 C 
BRANCH  14  15
ATOM     15  O   UNL     1       3.215   2.654  20.940  0.00  0.00    +0.000 OA
ATOM     16  H   UNL     1       2.296   2.781  20.648  0.00  0.00    +0.000 HD
ENDBRANCH  14  15
ENDBRANCH  13  14
BRANCH  13  17
ATOM     17  C   UNL     1       2.428   4.730  19.149  0.00  0.00    +0.000 C 
BRANCH  17  18
ATOM     18  C   UNL     1       2.200   6.224  19.243  0.00  0.00    +0.000 A 
ATOM     19  C   UNL     1       1.797   6.795  20.460  0.00  0.00    +0.000 A 
ATOM     20  C   UNL     1       1.499   8.156  20.541  0.00  0.00    +0.000 A 
ATOM     21  C   UNL     1       1.623   8.964  19.414  0.00  0.00    +0.000 A 
ATOM     22  C   UNL     1       2.067   8.418  18.212  0.00  0.00    +0.000 A 
ATOM     23  C   UNL     1       2.361   7.055  18.127  0.00  0.00    +0.000 A 
ENDBRANCH  17  18
ENDBRANCH  13  17
ENDBRANCH   6  13
TORSDOF 7
ENDMDL
MODEL 5
REMARK VINA RESULT:      -6.5      2.041      3.243
REMARK  Name = 
REMARK  9 active torsions:
REMARK  status: ('A' for Active; 'I' for Inactive)
REMARK    1  A    between atoms: C_1  and  C_2
REMARK    2  A    between atoms: C_2  and  C_3
REMARK    3  A    between atoms: C_2  and  C_4
REMARK    4  A    between atoms: C_4  and  N_5
REMARK    5  A    between atoms: N_10  and  C_11
REMARK    6  A    between atoms: C_11  and  C_12
REMARK    7  A    between atoms: C_11  and  C_14
REMARK    8  A    between atoms: C_12  and  O_13
REMARK    9  A    between atoms: C_14  and  C_15
REMARK                            x       y       z     vdW  Elec       q    Type
REMARK                         _______ _______ _______ _____ _____    ______ ____
ROOT
ATOM      1  N   UNL     1       6.747   4.169  15.472  0.00  0.00    +0.000 NA
ATOM      2  C   UNL     1       7.413   4.677  16.678  0.00  0.00    +0.000 C 
ATOM      3  C   UNL     1       6.551   5.517  17.602  0.00  0.00    +0.000 C 
ATOM      4  C   UNL     1       5.752   4.669  18.559  0.00  0.00    +0.000 C 
ATOM      5  O   UNL     1       6.043   4.648  19.756  0.00  0.00    +0.000 OA
ATOM      6  N   UNL     1       4.671   3.965  18.047  0.00  0.00    +0.000 N 
ATOM      7  C   UNL     1       4.454   3.768  16.606  0.00  0.00    +0.000 C 
ATOM      8  C   UNL     1       5.668   3.226  15.817  0.00  0.00    +0.000 C 
ENDROOT
BRANCH   1   9
ATOM      9  C   UNL     1       6.314   5.201  14.514  0.00  0.00    +0.000 C 
BRANCH   9  11
ATOM     10  C   UNL     1       8.305   5.417  12.930  0.00  0.00    +0.000 C 
ATOM     11  C   UNL     1       6.833   5.027  13.066  0.00  0.00    +0.000 C 
ATOM     12  C   UNL     1       6.638   3.577  12.609  0.00  0.00    +0.000 C 
ENDBRANCH   9  11
ENDBRANCH   1   9
BRANCH   6  13
ATOM     13  C   UNL     1       3.678   3.448  19.030  0.00  0.00    +0.000 C 
BRANCH  13  14
ATOM     14  C   UNL     1       3.635   1.908  19.010  0.00  0.00    +0.000 C 
BRANCH  14  15
ATOM     15  O   UNL     1       2.301   1.427  18.849  0.00  0.00    +0.000 OA
ATOM     16  H   UNL     1       2.276   0.545  19.257  0.00  0.00    +0.000 HD
ENDBRANCH  14  15
ENDBRANCH  13  14
BRANCH  13  17
ATOM     17  C   UNL     1       2.248   4.047  18.944  0.00  0.00    +0.000 C 
BRANCH  17  18
ATOM     18  C   UNL     1       2.169   5.530  19.245  0.00  0.00    +0.000 A 
ATOM     19  C   UNL     1       1.714   5.965  20.499  0.00  0.00    +0.000 A 
ATOM     20  C   UNL     1       1.552   7.326  20.762  0.00  0.00    +0.000 A 
ATOM     21  C   UNL     1       1.866   8.267  19.783  0.00  0.00    +0.000 A 
ATOM     22  C   UNL     1       2.364   7.848  18.551  0.00  0.00    +0.000 A 
ATOM     23  C   UNL     1       2.520   6.486  18.285  0.00  0.00    +0.000 A 
ENDBRANCH  17  18
ENDBRANCH  13  17
ENDBRANCH   6  13
TORSDOF 7
ENDMDL
MODEL 6
REMARK VINA RESULT:      -6.5      0.949      1.448
REMARK  Name = 
REMARK  9 active torsions:
REMARK  status: ('A' for Active; 'I' for Inactive)
REMARK    1  A    between atoms: C_1  and  C_2
REMARK    2  A    between atoms: C_2  and  C_3
REMARK    3  A    between atoms: C_2  and  C_4
REMARK    4  A    between atoms: C_4  and  N_5
REMARK    5  A    between atoms: N_10  and  C_11
REMARK    6  A    between atoms: C_11  and  C_12
REMARK    7  A    between atoms: C_11  and  C_14
REMARK    8  A    between atoms: C_12  and  O_13
REMARK    9  A    between atoms: C_14  and  C_15
REMARK                            x       y       z     vdW  Elec       q    Type
REMARK                         _______ _______ _______ _____ _____    ______ ____
ROOT
ATOM      1  N   UNL     1       6.252   4.158  14.151  0.00  0.00    +0.000 NA
ATOM      2  C   UNL     1       6.308   5.613  14.334  0.00  0.00    +0.000 C 
ATOM      3  C   UNL     1       5.203   6.213  15.186  0.00  0.00    +0.000 C 
ATOM      4  C   UNL     1       5.523   6.147  16.658  0.00  0.00    +0.000 C 
ATOM      5  O   UNL     1       5.801   7.176  17.276  0.00  0.00    +0.000 OA
ATOM      6  N   UNL     1       5.449   4.908  17.278  0.00  0.00    +0.000 N 
ATOM      7  C   UNL     1       5.373   3.643  16.532  0.00  0.00    +0.000 C 
ATOM      8  C   UNL     1       6.442   3.452  15.432  0.00  0.00    +0.000 C 
ENDROOT
BRANCH   1   9
ATOM      9  C   UNL     1       5.083   3.665  13.401  0.00  0.00    +0.000 C 
BRANCH   9  11
ATOM     10  C   UNL     1       6.131   2.098  11.678  0.00  0.00    +0.000 C 
ATOM     11  C   UNL     1       5.326   3.379  11.899  0.00  0.00    +0.000 C 
ATOM     12  C   UNL     1       3.987   3.282  11.160  0.00  0.00    +0.000 C 
ENDBRANCH   9  11
ENDBRANCH   1   9
BRANCH   6  13
ATOM     13  C   UNL     1       5.390   4.902  18.767  0.00  0.00    +0.000 C 
BRANCH  13  14
ATOM     14  C   UNL     1       6.729   5.362  19.373  0.00  0.00    +0.000 C 
BRANCH  14  15
ATOM     15  O   UNL     1       7.835   4.722  18.736  0.00  0.00    +0.000 OA
ATOM     16  H   UNL     1       7.927   5.140  17.862  0.00  0.00    +0.000 HD
ENDBRANCH  14  15
ENDBRANCH  13  14
BRANCH  13  17
ATOM     17  C   UNL     1       4.898   3.588  19.430  0.00  0.00    +0.000 C 
BRANCH  17  18
ATOM     18  C   UNL     1       3.406   3.533  19.687  0.00  0.00    +0.000 A 
ATOM     19  C   UNL     1       2.926   3.090  20.929  0.00  0.00    +0.000 A 
ATOM     20  C   UNL     1       1.555   2.950  21.151  0.00  0.00    +0.000 A 
ATOM     21  C   UNL     1       0.650   3.276  20.143  0.00  0.00    +0.000 A 
ATOM     22  C   UNL     1       1.113   3.762  18.922  0.00  0.00    +0.000 A 
ATOM     23  C   UNL     1       2.484   3.896  18.697  0.00  0.00    +0.000 A 
ENDBRANCH  17  18
ENDBRANCH  13  17
ENDBRANCH   6  13
TORSDOF 7
ENDMDL
MODEL 7
REMARK VINA RESULT:      -6.5      2.246      6.303
REMARK  Name = 
REMARK  9 active torsions:
REMARK  status: ('A' for Active; 'I' for Inactive)
REMARK    1  A    between atoms: C_1  and  C_2
REMARK    2  A    between atoms: C_2  and  C_3
REMARK    3  A    between atoms: C_2  and  C_4
REMARK    4  A    between atoms: C_4  and  N_5
REMARK    5  A    between atoms: N_10  and  C_11
REMARK    6  A    between atoms: C_11  and  C_12
REMARK    7  A    between atoms: C_11  and  C_14
REMARK    8  A    between atoms: C_12  and  O_13
REMARK    9  A    between atoms: C_14  and  C_15
REMARK                            x       y       z     vdW  Elec       q    Type
REMARK                         _______ _______ _______ _____ _____    ______ ____
ROOT
ATOM      1  N   UNL     1       2.243   3.542  18.359  0.00  0.00    +0.000 NA
ATOM      2  C   UNL     1       2.196   5.006  18.440  0.00  0.00    +0.000 C 
ATOM      3  C   UNL     1       3.542   5.707  18.492  0.00  0.00    +0.000 C 
ATOM      4  C   UNL     1       4.117   5.932  17.117  0.00  0.00    +0.000 C 
ATOM      5  O   UNL     1       4.165   7.069  16.646  0.00  0.00    +0.000 OA
ATOM      6  N   UNL     1       4.619   4.829  16.441  0.00  0.00    +0.000 N 
ATOM      7  C   UNL     1       4.350   3.444  16.858  0.00  0.00    +0.000 C 
ATOM      8  C   UNL     1       2.863   3.097  17.098  0.00  0.00    +0.000 C 
ENDROOT
BRANCH   1   9
ATOM      9  C   UNL     1       2.813   2.867  19.539  0.00  0.00    +0.000 C 
BRANCH   9  11
ATOM     10  C   UNL     1       2.182   3.568  21.912  0.00  0.00    +0.000 C 
ATOM     11  C   UNL     1       1.841   2.664  20.727  0.00  0.00    +0.000 C 
ATOM     12  C   UNL     1       0.400   2.926  20.276  0.00  0.00    +0.000 C 
ENDBRANCH   9  11
ENDBRANCH   1   9
BRANCH   6  13
ATOM     13  C   UNL     1       5.511   5.100  15.279  0.00  0.00    +0.000 C 
BRANCH  13  14
ATOM     14  C   UNL     1       5.178   4.166  14.100  0.00  0.00    +0.000 C 
BRANCH  14  15
ATOM     15  O   UNL     1       6.345   3.500  13.618  0.00  0.00    +0.000 OA
ATOM     16  H   UNL     1       6.385   3.675  12.662  0.00  0.00    +0.000 HD
ENDBRANCH  14  15
ENDBRANCH  13  14
BRANCH  13  17
ATOM     17  C   UNL     1       7.036   5.109  15.570  0.00  0.00    +0.000 C 
BRANCH  17  18
ATOM     18  C   UNL     1       7.424   5.781  16.871  0.00  0.00    +0.000 A 
ATOM     19  C   UNL     1       7.577   7.175  16.920  0.00  0.00    +0.000 A 
ATOM     20  C   UNL     1       8.019   7.799  18.088  0.00  0.00    +0.000 A 
ATOM     21  C   UNL     1       8.288   7.040  19.225  0.00  0.00    +0.000 A 
ATOM     22  C   UNL     1       8.094   5.660  19.201  0.00  0.00    +0.000 A 
ATOM     23  C   UNL     1       7.658   5.033  18.032  0.00  0.00    +0.000 A 
ENDBRANCH  17  18
ENDBRANCH  13  17
ENDBRANCH   6  13
TORSDOF 7
ENDMDL
MODEL 8
REMARK VINA RESULT:      -6.5      1.595      6.910
REMARK  Name = 
REMARK  9 active torsions:
REMARK  status: ('A' for Active; 'I' for Inactive)
REMARK    1  A    between atoms: C_1  and  C_2
REMARK    2  A    between atoms: C_2  and  C_3
REMARK    3  A    between atoms: C_2  and  C_4
REMARK    4  A    between atoms: C_4  and  N_5
REMARK    5  A    between atoms: N_10  and  C_11
REMARK    6  A    between atoms: C_11  and  C_12
REMARK    7  A    between atoms: C_11  and  C_14
REMARK    8  A    between atoms: C_12  and  O_13
REMARK    9  A    between atoms: C_14  and  C_15
REMARK                            x       y       z     vdW  Elec       q    Type
REMARK                         _______ _______ _______ _____ _____    ______ ____
ROOT
ATOM      1  N   UNL     1       2.361   4.796  18.585  0.00  0.00    +0.000 NA
ATOM      2  C   UNL     1       2.610   6.136  18.040  0.00  0.00    +0.000 C 
ATOM      3  C   UNL     1       4.070   6.536  17.914  0.00  0.00    +0.000 C 
ATOM      4  C   UNL     1       4.685   6.040  16.630  0.00  0.00    +0.000 C 
ATOM      5  O   UNL     1       4.963   6.836  15.732  0.00  0.00    +0.000 OA
ATOM      6  N   UNL     1       4.956   4.684  16.527  0.00  0.00    +0.000 N 
ATOM      7  C   UNL     1       4.412   3.685  17.460  0.00  0.00    +0.000 C 
ATOM      8  C   UNL     1       2.884   3.749  17.688  0.00  0.00    +0.000 C 
ENDROOT
BRANCH   1   9
ATOM      9  C   UNL     1       2.778   4.602  19.986  0.00  0.00    +0.000 C 
BRANCH   9  11
ATOM     10  C   UNL     1       0.571   3.322  20.099  0.00  0.00    +0.000 C 
ATOM     11  C   UNL     1       1.756   3.875  20.892  0.00  0.00    +0.000 C 
ATOM     12  C   UNL     1       2.445   2.736  21.652  0.00  0.00    +0.000 C 
ENDBRANCH   9  11
ENDBRANCH   1   9
BRANCH   6  13
ATOM     13  C   UNL     1       5.890   4.263  15.445  0.00  0.00    +0.000 C 
BRANCH  13  14
ATOM     14  C   UNL     1       7.352   4.540  15.840  0.00  0.00    +0.000 C 
BRANCH  14  15
ATOM     15  O   UNL     1       7.707   5.901  15.599  0.00  0.00    +0.000 OA
ATOM     16  H   UNL     1       7.156   6.201  14.855  0.00  0.00    +0.000 HD
ENDBRANCH  14  15
ENDBRANCH  13  14
BRANCH  13  17
ATOM     17  C   UNL     1       5.584   4.806  14.023  0.00  0.00    +0.000 C 
BRANCH  17  18
ATOM     18  C   UNL     1       5.852   3.822  12.903  0.00  0.00    +0.000 A 
ATOM     19  C   UNL     1       4.784   3.141  12.299  0.00  0.00    +0.000 A 
ATOM     20  C   UNL     1       5.022   2.168  11.327  0.00  0.00    +0.000 A 
ATOM     21  C   UNL     1       6.327   1.883  10.931  0.00  0.00    +0.000 A 
ATOM     22  C   UNL     1       7.392   2.586  11.490  0.00  0.00    +0.000 A 
ATOM     23  C   UNL     1       7.156   3.556  12.467  0.00  0.00    +0.000 A 
ENDBRANCH  17  18
ENDBRANCH  13  17
ENDBRANCH   6  13
TORSDOF 7
ENDMDL
MODEL 9
REMARK VINA RESULT:      -6.5      1.509      6.354
REMARK  Name = 
REMARK  9 active torsions:
REMARK  status: ('A' for Active; 'I' for Inactive)
REMARK    1  A    between atoms: C_1  and  C_2
REMARK    2  A    between atoms: C_2  and  C_3
REMARK    3  A    between atoms: C_2  and  C_4
REMARK    4  A    between atoms: C_4  and  N_5
REMARK    5  A    between atoms: N_10  and  C_11
REMARK    6  A    between atoms: C_11  and  C_12
REMARK    7  A    between atoms: C_11  and  C_14
REMARK    8  A    between atoms: C_12  and  O_13
REMARK    9  A    between atoms: C_14  and  C_15
REMARK                            x       y       z     vdW  Elec       q    Type
REMARK                         _______ _______ _______ _____ _____    ______ ____
ROOT
ATOM      1  N   UNL     1       2.046   4.750  18.244  0.00  0.00    +0.000 NA
ATOM      2  C   UNL     1       2.357   6.122  17.826  0.00  0.00    +0.000 C 
ATOM      3  C   UNL     1       3.667   6.689  18.345  0.00  0.00    +0.000 C 
ATOM      4  C   UNL     1       4.837   6.297  17.478  0.00  0.00    +0.000 C 
ATOM      5  O   UNL     1       5.391   7.141  16.772  0.00  0.00    +0.000 OA
ATOM      6  N   UNL     1       5.276   4.983  17.546  0.00  0.00    +0.000 N 
ATOM      7  C   UNL     1       4.492   3.907  18.172  0.00  0.00    +0.000 C 
ATOM      8  C   UNL     1       3.025   3.792  17.701  0.00  0.00    +0.000 C 
ENDROOT
BRANCH   1   9
ATOM      9  C   UNL     1       1.821   4.572  19.690  0.00  0.00    +0.000 C 
BRANCH   9  11
ATOM     10  C   UNL     1       0.518   2.534  18.871  0.00  0.00    +0.000 C 
ATOM     11  C   UNL     1       0.931   3.368  20.084  0.00  0.00    +0.000 C 
ATOM     12  C   UNL     1       1.666   2.481  21.095  0.00  0.00    +0.000 C 
ENDBRANCH   9  11
ENDBRANCH   1   9
BRANCH   6  13
ATOM     13  C   UNL     1       6.633   4.698  16.998  0.00  0.00    +0.000 C 
BRANCH  13  14
ATOM     14  C   UNL     1       7.702   4.785  18.103  0.00  0.00    +0.000 C 
BRANCH  14  15
ATOM     15  O   UNL     1       7.897   6.132  18.532  0.00  0.00    +0.000 OA
ATOM     16  H   UNL     1       8.347   6.590  17.802  0.00  0.00    +0.000 HD
ENDBRANCH  14  15
ENDBRANCH  13  14
BRANCH  13  17
ATOM     17  C   UNL     1       7.055   5.513  15.746  0.00  0.00    +0.000 C 
BRANCH  17  18
ATOM     18  C   UNL     1       6.729   4.849  14.424  0.00  0.00    +0.000 A 
ATOM     19  C   UNL     1       5.568   4.070  14.300  0.00  0.00    +0.000 A 
ATOM     20  C   UNL     1       5.300   3.381  13.117  0.00  0.00    +0.000 A 
ATOM     21  C   UNL     1       6.174   3.483  12.037  0.00  0.00    +0.000 A 
ATOM     22  C   UNL     1       7.305   4.292  12.133  0.00  0.00    +0.000 A 
ATOM     23  C   UNL     1       7.578   4.977  13.318  0.00  0.00    +0.000 A 
ENDBRANCH  17  18
ENDBRANCH  13  17
ENDBRANCH   6  13
TORSDOF 7
ENDMDL
