MODEL 1
REMARK VINA RESULT:      -8.5      0.000      0.000
REMARK  Name = 
REMARK  9 active torsions:
REMARK  status: ('A' for Active; 'I' for Inactive)
REMARK    1  A    between atoms: O_1  and  C_2
REMARK    2  A    between atoms: C_5  and  C_6
REMARK    3  A    between atoms: C_10  and  O_11
REMARK    4  A    between atoms: C_15  and  O_16
REMARK    5  A    between atoms: O_16  and  C_17
REMARK    6  A    between atoms: C_20  and  O_21
REMARK    7  A    between atoms: O_21  and  C_22
REMARK    8  A    between atoms: C_22  and  C_23
REMARK    9  A    between atoms: C_23  and  N_24
REMARK                            x       y       z     vdW  Elec       q    Type
REMARK                         _______ _______ _______ _____ _____    ______ ____
ROOT
ATOM      1  C   UNL     1       2.646   5.852  18.969  0.00  0.00    +0.000 A 
ATOM      2  S   UNL     1       3.025   5.049  20.473  0.00  0.00    +0.000 S 
ATOM      3  C   UNL     1       3.487   3.607  19.650  0.00  0.00    +0.000 A 
ATOM      4  C   UNL     1       4.204   2.498  20.100  0.00  0.00    +0.000 A 
ATOM      5  C   UNL     1       4.209   1.378  19.279  0.00  0.00    +0.000 A 
ATOM      6  C   UNL     1       3.401   1.285  18.162  0.00  0.00    +0.000 A 
ATOM      7  C   UNL     1       2.787   2.439  17.675  0.00  0.00    +0.000 A 
ATOM      8  C   UNL     1       2.985   3.666  18.355  0.00  0.00    +0.000 A 
ATOM      9  C   UNL     1       3.178   5.033  17.981  0.00  0.00    +0.000 A 
ENDROOT
BRANCH   1  13
ATOM     10  C   UNL     1       1.135   9.852  18.970  0.00  0.00    +0.000 A 
ATOM     11  C   UNL     1       1.157   9.132  20.155  0.00  0.00    +0.000 A 
ATOM     12  C   UNL     1       1.720   7.851  20.178  0.00  0.00    +0.000 A 
ATOM     13  C   UNL     1       2.229   7.266  19.008  0.00  0.00    +0.000 A 
ATOM     14  C   UNL     1       2.299   8.069  17.855  0.00  0.00    +0.000 A 
ATOM     15  C   UNL     1       1.742   9.350  17.829  0.00  0.00    +0.000 A 
BRANCH  10  16
ATOM     16  O   UNL     1       0.515  11.062  18.880  0.00  0.00    +0.000 OA
ATOM     17  H   UNL     1       1.112  11.740  19.237  0.00  0.00    +0.000 HD
ENDBRANCH  10  16
ENDBRANCH   1  13
BRANCH   5  18
ATOM     18  O   UNL     1       5.053   0.339  19.543  0.00  0.00    +0.000 OA
ATOM     19  H   UNL     1       5.878   0.542  19.067  0.00  0.00    +0.000 HD
ENDBRANCH   5  18
BRANCH   9  20
ATOM     20  O   UNL     1       4.005   5.564  17.033  0.00  0.00    +0.000 OA
BRANCH  20  21
ATOM     21  C   UNL     1       5.297   5.967  17.264  0.00  0.00    +0.000 A 
ATOM     22  C   UNL     1       5.784   7.093  16.606  0.00  0.00    +0.000 A 
ATOM     23  C   UNL     1       6.967   7.692  16.981  0.00  0.00    +0.000 A 
ATOM     24  C   UNL     1       7.652   7.269  18.138  0.00  0.00    +0.000 A 
ATOM     25  C   UNL     1       7.232   6.084  18.754  0.00  0.00    +0.000 A 
ATOM     26  C   UNL     1       6.059   5.430  18.314  0.00  0.00    +0.000 A 
BRANCH  24  27
ATOM     27  O   UNL     1       8.664   7.996  18.726  0.00  0.00    +0.000 OA
BRANCH  27  28
ATOM     28  C   UNL     1       8.563   9.407  18.439  0.00  0.00    +0.000 C 
BRANCH  28  29
ATOM     29  C   UNL     1       9.579  10.296  19.176  0.00  0.00    +0.000 C 
BRANCH  29  30
ATOM     30  N   UNL     1       9.972  11.486  18.362  0.00  0.00    +0.000 NA
ATOM     31  C   UNL     1       9.262  12.691  18.818  0.00  0.00    +0.000 C 
ATOM     32  C   UNL     1       9.599  13.914  17.958  0.00  0.00    +0.000 C 
ATOM     33  C   UNL     1      11.099  14.157  17.882  0.00  0.00    +0.000 C 
ATOM     34  C   UNL     1      11.813  12.883  17.441  0.00  0.00    +0.000 C 
ATOM     35  C   UNL     1      11.424  11.703  18.348  0.00  0.00    +0.000 C 
ENDBRANCH  29  30
ENDBRANCH  28  29
ENDBRANCH  27  28
ENDBRANCH  24  27
ENDBRANCH  20  21
ENDBRANCH   9  20
TORSDOF 9
ENDMDL
MODEL 2
REMARK VINA RESULT:      -8.1      4.862      8.109
REMARK  Name = 
REMARK  9 active torsions:
REMARK  status: ('A' for Active; 'I' for Inactive)
REMARK    1  A    between atoms: O_1  and  C_2
REMARK    2  A    between atoms: C_5  and  C_6
REMARK    3  A    between atoms: C_10  and  O_11
REMARK    4  A    between atoms: C_15  and  O_16
REMARK    5  A    between atoms: O_16  and  C_17
REMARK    6  A    between atoms: C_20  and  O_21
REMARK    7  A    between atoms: O_21  and  C_22
REMARK    8  A    between atoms: C_22  and  C_23
REMARK    9  A    between atoms: C_23  and  N_24
REMARK                            x       y       z     vdW  Elec       q    Type
REMARK                         _______ _______ _______ _____ _____    ______ ____
ROOT
ATOM      1  C   UNL     1       4.511   3.866  16.938  0.00  0.00    +0.000 A 
ATOM      2  S   UNL     1       3.097   2.854  16.779  0.00  0.00    +0.000 S 
ATOM      3  C   UNL     1       2.749   2.980  18.462  0.00  0.00    +0.000 A 
ATOM      4  C   UNL     1       1.587   2.673  19.172  0.00  0.00    +0.000 A 
ATOM      5  C   UNL     1       1.688   2.646  20.556  0.00  0.00    +0.000 A 
ATOM      6  C   UNL     1       2.904   2.733  21.205  0.00  0.00    +0.000 A 
ATOM      7  C   UNL     1       4.024   3.150  20.486  0.00  0.00    +0.000 A 
ATOM      8  C   UNL     1       3.890   3.445  19.107  0.00  0.00    +0.000 A 
ATOM      9  C   UNL     1       4.411   4.425  18.206  0.00  0.00    +0.000 A 
ENDROOT
BRANCH   1  13
ATOM     10  C   UNL     1       6.895   4.626  13.471  0.00  0.00    +0.000 A 
ATOM     11  C   UNL     1       5.680   3.974  13.332  0.00  0.00    +0.000 A 
ATOM     12  C   UNL     1       4.858   3.790  14.451  0.00  0.00    +0.000 A 
ATOM     13  C   UNL     1       5.266   4.222  15.722  0.00  0.00    +0.000 A 
ATOM     14  C   UNL     1       6.446   4.983  15.806  0.00  0.00    +0.000 A 
ATOM     15  C   UNL     1       7.266   5.173  14.690  0.00  0.00    +0.000 A 
BRANCH  10  16
ATOM     16  O   UNL     1       7.766   4.745  12.430  0.00  0.00    +0.000 OA
ATOM     17  H   UNL     1       8.549   5.230  12.739  0.00  0.00    +0.000 HD
ENDBRANCH  10  16
ENDBRANCH   1  13
BRANCH   5  18
ATOM     18  O   UNL     1       0.561   2.566  21.323  0.00  0.00    +0.000 OA
ATOM     19  H   UNL     1       0.198   1.675  21.166  0.00  0.00    +0.000 HD
ENDBRANCH   5  18
BRANCH   9  20
ATOM     20  O   UNL     1       4.512   5.778  18.361  0.00  0.00    +0.000 OA
BRANCH  20  21
ATOM     21  C   UNL     1       3.444   6.625  18.525  0.00  0.00    +0.000 A 
ATOM     22  C   UNL     1       2.738   6.601  19.724  0.00  0.00    +0.000 A 
ATOM     23  C   UNL     1       1.832   7.588  20.047  0.00  0.00    +0.000 A 
ATOM     24  C   UNL     1       1.695   8.732  19.235  0.00  0.00    +0.000 A 
ATOM     25  C   UNL     1       2.322   8.729  17.985  0.00  0.00    +0.000 A 
ATOM     26  C   UNL     1       3.191   7.673  17.626  0.00  0.00    +0.000 A 
BRANCH  24  27
ATOM     27  O   UNL     1       1.035   9.872  19.641  0.00  0.00    +0.000 OA
BRANCH  27  28
ATOM     28  C   UNL     1       0.087  10.336  18.658  0.00  0.00    +0.000 C 
BRANCH  28  29
ATOM     29  C   UNL     1      -1.309  10.677  19.208  0.00  0.00    +0.000 C 
BRANCH  29  30
ATOM     30  N   UNL     1      -2.383  10.422  18.200  0.00  0.00    +0.000 NA
ATOM     31  C   UNL     1      -3.292  11.574  18.100  0.00  0.00    +0.000 C 
ATOM     32  C   UNL     1      -4.440  11.313  17.118  0.00  0.00    +0.000 C 
ATOM     33  C   UNL     1      -3.930  10.896  15.747  0.00  0.00    +0.000 C 
ATOM     34  C   UNL     1      -2.964   9.723  15.884  0.00  0.00    +0.000 C 
ATOM     35  C   UNL     1      -1.844  10.059  16.884  0.00  0.00    +0.000 C 
ENDBRANCH  29  30
ENDBRANCH  28  29
ENDBRANCH  27  28
ENDBRANCH  24  27
ENDBRANCH  20  21
ENDBRANCH   9  20
TORSDOF 9
ENDMDL
MODEL 3
REMARK VINA RESULT:      -7.9      5.266      9.670
REMARK  Name = 
REMARK  9 active torsions:
REMARK  status: ('A' for Active; 'I' for Inactive)
REMARK    1  A    between atoms: O_1  and  C_2
REMARK    2  A    between atoms: C_5  and  C_6
REMARK    3  A    between atoms: C_10  and  O_11
REMARK    4  A    between atoms: C_15  and  O_16
REMARK    5  A    between atoms: O_16  and  C_17
REMARK    6  A    between atoms: C_20  and  O_21
REMARK    7  A    between atoms: O_21  and  C_22
REMARK    8  A    between atoms: C_22  and  C_23
REMARK    9  A    between atoms: C_23  and  N_24
REMARK                            x       y       z     vdW  Elec       q    Type
REMARK                         _______ _______ _______ _____ _____    ______ ____
ROOT
ATOM      1  C   UNL     1      -1.719  12.064  18.716  0.00  0.00    +0.000 A 
ATOM      2  S   UNL     1      -0.554  13.280  18.253  0.00  0.00    +0.000 S 
ATOM      3  C   UNL     1      -0.074  13.521  19.890  0.00  0.00    +0.000 A 
ATOM      4  C   UNL     1       1.047  14.162  20.420  0.00  0.00    +0.000 A 
ATOM      5  C   UNL     1       1.038  14.414  21.786  0.00  0.00    +0.000 A 
ATOM      6  C   UNL     1      -0.088  14.216  22.561  0.00  0.00    +0.000 A 
ATOM      7  C   UNL     1      -1.147  13.475  22.035  0.00  0.00    +0.000 A 
ATOM      8  C   UNL     1      -1.050  12.972  20.715  0.00  0.00    +0.000 A 
ATOM      9  C   UNL     1      -1.422  11.768  20.040  0.00  0.00    +0.000 A 
ENDROOT
BRANCH   1  13
ATOM     10  C   UNL     1      -3.813  10.291  15.436  0.00  0.00    +0.000 A 
ATOM     11  C   UNL     1      -2.523   9.873  15.727  0.00  0.00    +0.000 A 
ATOM     12  C   UNL     1      -1.860  10.393  16.844  0.00  0.00    +0.000 A 
ATOM     13  C   UNL     1      -2.468  11.364  17.656  0.00  0.00    +0.000 A 
ATOM     14  C   UNL     1      -3.816  11.675  17.401  0.00  0.00    +0.000 A 
ATOM     15  C   UNL     1      -4.483  11.154  16.289  0.00  0.00    +0.000 A 
BRANCH  10  16
ATOM     16  O   UNL     1      -4.460   9.882  14.308  0.00  0.00    +0.000 OA
ATOM     17  H   UNL     1      -5.407  10.066  14.415  0.00  0.00    +0.000 HD
ENDBRANCH  10  16
ENDBRANCH   1  13
BRANCH   5  18
ATOM     18  O   UNL     1       2.175  14.840  22.411  0.00  0.00    +0.000 OA
ATOM     19  H   UNL     1       2.673  15.341  21.740  0.00  0.00    +0.000 HD
ENDBRANCH   5  18
BRANCH   9  20
ATOM     20  O   UNL     1      -1.236  10.469  20.419  0.00  0.00    +0.000 OA
BRANCH  20  21
ATOM     21  C   UNL     1      -0.050   9.786  20.303  0.00  0.00    +0.000 A 
ATOM     22  C   UNL     1       0.294   8.855  21.279  0.00  0.00    +0.000 A 
ATOM     23  C   UNL     1       1.328   7.964  21.093  0.00  0.00    +0.000 A 
ATOM     24  C   UNL     1       1.982   7.871  19.847  0.00  0.00    +0.000 A 
ATOM     25  C   UNL     1       1.716   8.858  18.891  0.00  0.00    +0.000 A 
ATOM     26  C   UNL     1       0.705   9.819  19.120  0.00  0.00    +0.000 A 
BRANCH  24  27
ATOM     27  O   UNL     1       2.810   6.825  19.505  0.00  0.00    +0.000 OA
BRANCH  27  28
ATOM     28  C   UNL     1       3.189   6.857  18.113  0.00  0.00    +0.000 C 
BRANCH  28  29
ATOM     29  C   UNL     1       3.752   5.538  17.559  0.00  0.00    +0.000 C 
BRANCH  29  30
ATOM     30  N   UNL     1       3.175   4.348  18.255  0.00  0.00    +0.000 NA
ATOM     31  C   UNL     1       1.747   4.197  17.937  0.00  0.00    +0.000 C 
ATOM     32  C   UNL     1       1.114   3.021  18.690  0.00  0.00    +0.000 C 
ATOM     33  C   UNL     1       1.870   1.722  18.450  0.00  0.00    +0.000 C 
ATOM     34  C   UNL     1       3.352   1.918  18.754  0.00  0.00    +0.000 C 
ATOM     35  C   UNL     1       3.914   3.114  17.966  0.00  0.00    +0.000 C 
ENDBRANCH  29  30
ENDBRANCH  28  29
ENDBRANCH  27  28
ENDBRANCH  24  27
ENDBRANCH  20  21
ENDBRANCH   9  20
TORSDOF 9
ENDMDL
MODEL 4
REMARK VINA RESULT:      -7.9      4.750      8.046
REMARK  Name = 
REMARK  9 active torsions:
REMARK  status: ('A' for Active; 'I' for Inactive)
REMARK    1  A    between atoms: O_1  and  C_2
REMARK    2  A    between atoms: C_5  and  C_6
REMARK    3  A    between atoms: C_10  and  O_11
REMARK    4  A    between atoms: C_15  and  O_16
REMARK    5  A    between atoms: O_16  and  C_17
REMARK    6  A    between atoms: C_20  and  O_21
REMARK    7  A    between atoms: O_21  and  C_22
REMARK    8  A    between atoms: C_22  and  C_23
REMARK    9  A    between atoms: C_23  and  N_24
REMARK                            x       y       z     vdW  Elec       q    Type
REMARK                         _______ _______ _______ _____ _____    ______ ____
ROOT
ATOM      1  C   UNL     1       4.755   3.705  17.403  0.00  0.00    +0.000 A 
ATOM      2  S   UNL     1       3.347   2.712  17.114  0.00  0.00    +0.000 S 
ATOM      3  C   UNL     1       2.839   2.860  18.753  0.00  0.00    +0.000 A 
ATOM      4  C   UNL     1       1.609   2.578  19.349  0.00  0.00    +0.000 A 
ATOM      5  C   UNL     1       1.573   2.562  20.737  0.00  0.00    +0.000 A 
ATOM      6  C   UNL     1       2.722   2.637  21.501  0.00  0.00    +0.000 A 
ATOM      7  C   UNL     1       3.913   3.030  20.891  0.00  0.00    +0.000 A 
ATOM      8  C   UNL     1       3.918   3.313  19.504  0.00  0.00    +0.000 A 
ATOM      9  C   UNL     1       4.541   4.276  18.650  0.00  0.00    +0.000 A 
ENDROOT
BRANCH   1  13
ATOM     10  C   UNL     1       7.134   4.967  14.081  0.00  0.00    +0.000 A 
ATOM     11  C   UNL     1       7.640   5.087  15.366  0.00  0.00    +0.000 A 
ATOM     12  C   UNL     1       6.900   4.606  16.452  0.00  0.00    +0.000 A 
ATOM     13  C   UNL     1       5.631   4.037  16.263  0.00  0.00    +0.000 A 
ATOM     14  C   UNL     1       5.202   3.823  14.940  0.00  0.00    +0.000 A 
ATOM     15  C   UNL     1       5.941   4.298  13.853  0.00  0.00    +0.000 A 
BRANCH  10  16
ATOM     16  O   UNL     1       7.777   5.504  13.006  0.00  0.00    +0.000 OA
ATOM     17  H   UNL     1       7.134   5.609  12.286  0.00  0.00    +0.000 HD
ENDBRANCH  10  16
ENDBRANCH   1  13
BRANCH   5  18
ATOM     18  O   UNL     1       0.376   2.506  21.391  0.00  0.00    +0.000 OA
ATOM     19  H   UNL     1       0.596   2.428  22.337  0.00  0.00    +0.000 HD
ENDBRANCH   5  18
BRANCH   9  20
ATOM     20  O   UNL     1       4.648   5.630  18.803  0.00  0.00    +0.000 OA
BRANCH  20  21
ATOM     21  C   UNL     1       3.604   6.513  18.678  0.00  0.00    +0.000 A 
ATOM     22  C   UNL     1       2.722   6.674  19.742  0.00  0.00    +0.000 A 
ATOM     23  C   UNL     1       1.819   7.715  19.779  0.00  0.00    +0.000 A 
ATOM     24  C   UNL     1       1.858   8.735  18.806  0.00  0.00    +0.000 A 
ATOM     25  C   UNL     1       2.669   8.540  17.683  0.00  0.00    +0.000 A 
ATOM     26  C   UNL     1       3.538   7.427  17.615  0.00  0.00    +0.000 A 
BRANCH  24  27
ATOM     27  O   UNL     1       1.193   9.933  18.942  0.00  0.00    +0.000 OA
BRANCH  27  28
ATOM     28  C   UNL     1      -0.232   9.794  18.764  0.00  0.00    +0.000 C 
BRANCH  28  29
ATOM     29  C   UNL     1      -1.054  11.060  19.059  0.00  0.00    +0.000 C 
BRANCH  29  30
ATOM     30  N   UNL     1      -2.025  11.363  17.963  0.00  0.00    +0.000 NA
ATOM     31  C   UNL     1      -1.891  10.395  16.864  0.00  0.00    +0.000 C 
ATOM     32  C   UNL     1      -2.832  10.720  15.697  0.00  0.00    +0.000 C 
ATOM     33  C   UNL     1      -4.280  10.837  16.153  0.00  0.00    +0.000 C 
ATOM     34  C   UNL     1      -4.382  11.820  17.315  0.00  0.00    +0.000 C 
ATOM     35  C   UNL     1      -3.410  11.430  18.442  0.00  0.00    +0.000 C 
ENDBRANCH  29  30
ENDBRANCH  28  29
ENDBRANCH  27  28
ENDBRANCH  24  27
ENDBRANCH  20  21
ENDBRANCH   9  20
TORSDOF 9
ENDMDL
MODEL 5
REMARK VINA RESULT:      -7.9      3.802      7.870
REMARK  Name = 
REMARK  9 active torsions:
REMARK  status: ('A' for Active; 'I' for Inactive)
REMARK    1  A    between atoms: O_1  and  C_2
REMARK    2  A    between atoms: C_5  and  C_6
REMARK    3  A    between atoms: C_10  and  O_11
REMARK    4  A    between atoms: C_15  and  O_16
REMARK    5  A    between atoms: O_16  and  C_17
REMARK    6  A    between atoms: C_20  and  O_21
REMARK    7  A    between atoms: O_21  and  C_22
REMARK    8  A    between atoms: C_22  and  C_23
REMARK    9  A    between atoms: C_23  and  N_24
REMARK                            x       y       z     vdW  Elec       q    Type
REMARK                         _______ _______ _______ _____ _____    ______ ____
ROOT
ATOM      1  C   UNL     1       4.719   5.254  18.358  0.00  0.00    +0.000 A 
ATOM      2  S   UNL     1       4.800   3.588  17.839  0.00  0.00    +0.000 S 
ATOM      3  C   UNL     1       3.158   3.313  18.283  0.00  0.00    +0.000 A 
ATOM      4  C   UNL     1       2.293   2.271  17.949  0.00  0.00    +0.000 A 
ATOM      5  C   UNL     1       1.102   2.192  18.659  0.00  0.00    +0.000 A 
ATOM      6  C   UNL     1       0.854   2.984  19.764  0.00  0.00    +0.000 A 
ATOM      7  C   UNL     1       1.676   4.084  20.004  0.00  0.00    +0.000 A 
ATOM      8  C   UNL     1       2.758   4.343  19.127  0.00  0.00    +0.000 A 
ATOM      9  C   UNL     1       3.367   5.503  18.555  0.00  0.00    +0.000 A 
ENDROOT
BRANCH   1  13
ATOM     10  C   UNL     1       8.002   7.968  17.983  0.00  0.00    +0.000 A 
ATOM     11  C   UNL     1       8.130   6.853  18.795  0.00  0.00    +0.000 A 
ATOM     12  C   UNL     1       7.089   5.919  18.864  0.00  0.00    +0.000 A 
ATOM     13  C   UNL     1       5.897   6.117  18.150  0.00  0.00    +0.000 A 
ATOM     14  C   UNL     1       5.849   7.194  17.246  0.00  0.00    +0.000 A 
ATOM     15  C   UNL     1       6.888   8.125  17.172  0.00  0.00    +0.000 A 
BRANCH  10  16
ATOM     16  O   UNL     1       8.949   8.948  17.958  0.00  0.00    +0.000 OA
ATOM     17  H   UNL     1       9.133   9.172  17.031  0.00  0.00    +0.000 HD
ENDBRANCH  10  16
ENDBRANCH   1  13
BRANCH   5  18
ATOM     18  O   UNL     1       0.117   1.339  18.252  0.00  0.00    +0.000 OA
ATOM     19  H   UNL     1       0.194   0.555  18.826  0.00  0.00    +0.000 HD
ENDBRANCH   5  18
BRANCH   9  20
ATOM     20  O   UNL     1       2.783   6.584  17.959  0.00  0.00    +0.000 OA
BRANCH  20  21
ATOM     21  C   UNL     1       2.300   7.679  18.633  0.00  0.00    +0.000 A 
ATOM     22  C   UNL     1       1.848   8.777  17.906  0.00  0.00    +0.000 A 
ATOM     23  C   UNL     1       1.124   9.787  18.502  0.00  0.00    +0.000 A 
ATOM     24  C   UNL     1       0.694   9.672  19.839  0.00  0.00    +0.000 A 
ATOM     25  C   UNL     1       1.217   8.626  20.609  0.00  0.00    +0.000 A 
ATOM     26  C   UNL     1       2.024   7.634  20.008  0.00  0.00    +0.000 A 
BRANCH  24  27
ATOM     27  O   UNL     1      -0.260  10.492  20.399  0.00  0.00    +0.000 OA
BRANCH  27  28
ATOM     28  C   UNL     1       0.267  11.291  21.478  0.00  0.00    +0.000 C 
BRANCH  28  29
ATOM     29  C   UNL     1      -0.296  12.720  21.569  0.00  0.00    +0.000 C 
BRANCH  29  30
ATOM     30  N   UNL     1      -1.192  12.892  22.752  0.00  0.00    +0.000 NA
ATOM     31  C   UNL     1      -1.219  14.297  23.188  0.00  0.00    +0.000 C 
ATOM     32  C   UNL     1      -2.082  14.491  24.441  0.00  0.00    +0.000 C 
ATOM     33  C   UNL     1      -3.490  13.949  24.249  0.00  0.00    +0.000 C 
ATOM     34  C   UNL     1      -3.431  12.503  23.764  0.00  0.00    +0.000 C 
ATOM     35  C   UNL     1      -2.549  12.388  22.509  0.00  0.00    +0.000 C 
ENDBRANCH  29  30
ENDBRANCH  28  29
ENDBRANCH  27  28
ENDBRANCH  24  27
ENDBRANCH  20  21
ENDBRANCH   9  20
TORSDOF 9
ENDMDL
MODEL 6
REMARK VINA RESULT:      -7.8      3.152      6.134
REMARK  Name = 
REMARK  9 active torsions:
REMARK  status: ('A' for Active; 'I' for Inactive)
REMARK    1  A    between atoms: O_1  and  C_2
REMARK    2  A    between atoms: C_5  and  C_6
REMARK    3  A    between atoms: C_10  and  O_11
REMARK    4  A    between atoms: C_15  and  O_16
REMARK    5  A    between atoms: O_16  and  C_17
REMARK    6  A    between atoms: C_20  and  O_21
REMARK    7  A    between atoms: O_21  and  C_22
REMARK    8  A    between atoms: C_22  and  C_23
REMARK    9  A    between atoms: C_23  and  N_24
REMARK                            x       y       z     vdW  Elec       q    Type
REMARK                         _______ _______ _______ _____ _____    ______ ____
ROOT
ATOM      1  C   UNL     1       4.723   5.285  18.357  0.00  0.00    +0.000 A 
ATOM      2  S   UNL     1       4.799   3.623  17.826  0.00  0.00    +0.000 S 
ATOM      3  C   UNL     1       3.160   3.346  18.279  0.00  0.00    +0.000 A 
ATOM      4  C   UNL     1       2.291   2.307  17.944  0.00  0.00    +0.000 A 
ATOM      5  C   UNL     1       1.105   2.225  18.662  0.00  0.00    +0.000 A 
ATOM      6  C   UNL     1       0.866   3.009  19.774  0.00  0.00    +0.000 A 
ATOM      7  C   UNL     1       1.691   4.107  20.016  0.00  0.00    +0.000 A 
ATOM      8  C   UNL     1       2.766   4.371  19.133  0.00  0.00    +0.000 A 
ATOM      9  C   UNL     1       3.373   5.534  18.565  0.00  0.00    +0.000 A 
ENDROOT
BRANCH   1  13
ATOM     10  C   UNL     1       8.006   7.999  17.977  0.00  0.00    +0.000 A 
ATOM     11  C   UNL     1       8.140   6.877  18.780  0.00  0.00    +0.000 A 
ATOM     12  C   UNL     1       7.098   5.944  18.849  0.00  0.00    +0.000 A 
ATOM     13  C   UNL     1       5.900   6.149  18.146  0.00  0.00    +0.000 A 
ATOM     14  C   UNL     1       5.846   7.233  17.251  0.00  0.00    +0.000 A 
ATOM     15  C   UNL     1       6.886   8.164  17.177  0.00  0.00    +0.000 A 
BRANCH  10  16
ATOM     16  O   UNL     1       8.954   8.978  17.952  0.00  0.00    +0.000 OA
ATOM     17  H   UNL     1       9.591   8.805  18.665  0.00  0.00    +0.000 HD
ENDBRANCH  10  16
ENDBRANCH   1  13
BRANCH   5  18
ATOM     18  O   UNL     1       0.117   1.375  18.257  0.00  0.00    +0.000 OA
ATOM     19  H   UNL     1       0.572   0.587  17.911  0.00  0.00    +0.000 HD
ENDBRANCH   5  18
BRANCH   9  20
ATOM     20  O   UNL     1       2.785   6.620  17.980  0.00  0.00    +0.000 OA
BRANCH  20  21
ATOM     21  C   UNL     1       2.276   7.695  18.667  0.00  0.00    +0.000 A 
ATOM     22  C   UNL     1       1.786   8.784  17.953  0.00  0.00    +0.000 A 
ATOM     23  C   UNL     1       1.038   9.768  18.563  0.00  0.00    +0.000 A 
ATOM     24  C   UNL     1       0.623   9.629  19.903  0.00  0.00    +0.000 A 
ATOM     25  C   UNL     1       1.182   8.593  20.659  0.00  0.00    +0.000 A 
ATOM     26  C   UNL     1       2.013   7.630  20.044  0.00  0.00    +0.000 A 
BRANCH  24  27
ATOM     27  O   UNL     1      -0.351  10.416  20.478  0.00  0.00    +0.000 OA
BRANCH  27  28
ATOM     28  C   UNL     1       0.203  11.439  21.331  0.00  0.00    +0.000 C 
BRANCH  28  29
ATOM     29  C   UNL     1       0.306  12.836  20.694  0.00  0.00    +0.000 C 
BRANCH  29  30
ATOM     30  N   UNL     1       1.695  13.137  20.234  0.00  0.00    +0.000 NA
ATOM     31  C   UNL     1       1.707  13.499  18.808  0.00  0.00    +0.000 C 
ATOM     32  C   UNL     1       3.129  13.751  18.293  0.00  0.00    +0.000 C 
ATOM     33  C   UNL     1       3.858  14.793  19.129  0.00  0.00    +0.000 C 
ATOM     34  C   UNL     1       3.800  14.410  20.605  0.00  0.00    +0.000 C 
ATOM     35  C   UNL     1       2.345  14.172  21.046  0.00  0.00    +0.000 C 
ENDBRANCH  29  30
ENDBRANCH  28  29
ENDBRANCH  27  28
ENDBRANCH  24  27
ENDBRANCH  20  21
ENDBRANCH   9  20
TORSDOF 9
ENDMDL
MODEL 7
REMARK VINA RESULT:      -7.8      3.275      6.489
REMARK  Name = 
REMARK  9 active torsions:
REMARK  status: ('A' for Active; 'I' for Inactive)
REMARK    1  A    between atoms: O_1  and  C_2
REMARK    2  A    between atoms: C_5  and  C_6
REMARK    3  A    between atoms: C_10  and  O_11
REMARK    4  A    between atoms: C_15  and  O_16
REMARK    5  A    between atoms: O_16  and  C_17
REMARK    6  A    between atoms: C_20  and  O_21
REMARK    7  A    between atoms: O_21  and  C_22
REMARK    8  A    between atoms: C_22  and  C_23
REMARK    9  A    between atoms: C_23  and  N_24
REMARK                            x       y       z     vdW  Elec       q    Type
REMARK                         _______ _______ _______ _____ _____    ______ ____
ROOT
ATOM      1  C   UNL     1       4.721   5.267  18.386  0.00  0.00    +0.000 A 
ATOM      2  S   UNL     1       4.819   3.587  17.918  0.00  0.00    +0.000 S 
ATOM      3  C   UNL     1       3.170   3.317  18.339  0.00  0.00    +0.000 A 
ATOM      4  C   UNL     1       2.316   2.260  18.019  0.00  0.00    +0.000 A 
ATOM      5  C   UNL     1       1.112   2.197  18.709  0.00  0.00    +0.000 A 
ATOM      6  C   UNL     1       0.839   3.020  19.785  0.00  0.00    +0.000 A 
ATOM      7  C   UNL     1       1.652   4.131  20.008  0.00  0.00    +0.000 A 
ATOM      8  C   UNL     1       2.749   4.369  19.144  0.00  0.00    +0.000 A 
ATOM      9  C   UNL     1       3.364   5.515  18.550  0.00  0.00    +0.000 A 
ENDROOT
BRANCH   1  13
ATOM     10  C   UNL     1       8.003   7.979  18.002  0.00  0.00    +0.000 A 
ATOM     11  C   UNL     1       8.133   6.864  18.814  0.00  0.00    +0.000 A 
ATOM     12  C   UNL     1       7.092   5.931  18.886  0.00  0.00    +0.000 A 
ATOM     13  C   UNL     1       5.898   6.129  18.175  0.00  0.00    +0.000 A 
ATOM     14  C   UNL     1       5.848   7.206  17.270  0.00  0.00    +0.000 A 
ATOM     15  C   UNL     1       6.888   8.137  17.194  0.00  0.00    +0.000 A 
BRANCH  10  16
ATOM     16  O   UNL     1       8.951   8.958  17.974  0.00  0.00    +0.000 OA
ATOM     17  H   UNL     1       9.806   8.564  18.215  0.00  0.00    +0.000 HD
ENDBRANCH  10  16
ENDBRANCH   1  13
BRANCH   5  18
ATOM     18  O   UNL     1       0.138   1.328  18.309  0.00  0.00    +0.000 OA
ATOM     19  H   UNL     1      -0.009   0.731  19.065  0.00  0.00    +0.000 HD
ENDBRANCH   5  18
BRANCH   9  20
ATOM     20  O   UNL     1       2.786   6.575  17.911  0.00  0.00    +0.000 OA
BRANCH  20  21
ATOM     21  C   UNL     1       2.372   7.728  18.532  0.00  0.00    +0.000 A 
ATOM     22  C   UNL     1       2.145   8.866  17.765  0.00  0.00    +0.000 A 
ATOM     23  C   UNL     1       1.492   9.965  18.281  0.00  0.00    +0.000 A 
ATOM     24  C   UNL     1       0.906   9.917  19.562  0.00  0.00    +0.000 A 
ATOM     25  C   UNL     1       1.205   8.821  20.380  0.00  0.00    +0.000 A 
ATOM     26  C   UNL     1       1.943   7.730  19.868  0.00  0.00    +0.000 A 
BRANCH  24  27
ATOM     27  O   UNL     1       0.005  10.854  20.017  0.00  0.00    +0.000 OA
BRANCH  27  28
ATOM     28  C   UNL     1      -0.454  11.729  18.965  0.00  0.00    +0.000 C 
BRANCH  28  29
ATOM     29  C   UNL     1      -0.708  13.186  19.392  0.00  0.00    +0.000 C 
BRANCH  29  30
ATOM     30  N   UNL     1       0.264  14.129  18.760  0.00  0.00    +0.000 NA
ATOM     31  C   UNL     1       0.024  15.508  19.212  0.00  0.00    +0.000 C 
ATOM     32  C   UNL     1       0.968  16.506  18.530  0.00  0.00    +0.000 C 
ATOM     33  C   UNL     1       2.428  16.117  18.706  0.00  0.00    +0.000 C 
ATOM     34  C   UNL     1       2.640  14.672  18.263  0.00  0.00    +0.000 C 
ATOM     35  C   UNL     1       1.659  13.734  18.987  0.00  0.00    +0.000 C 
ENDBRANCH  29  30
ENDBRANCH  28  29
ENDBRANCH  27  28
ENDBRANCH  24  27
ENDBRANCH  20  21
ENDBRANCH   9  20
TORSDOF 9
ENDMDL
MODEL 8
REMARK VINA RESULT:      -7.7      0.920      1.599
REMARK  Name = 
REMARK  9 active torsions:
REMARK  status: ('A' for Active; 'I' for Inactive)
REMARK    1  A    between atoms: O_1  and  C_2
REMARK    2  A    between atoms: C_5  and  C_6
REMARK    3  A    between atoms: C_10  and  O_11
REMARK    4  A    between atoms: C_15  and  O_16
REMARK    5  A    between atoms: O_16  and  C_17
REMARK    6  A    between atoms: C_20  and  O_21
REMARK    7  A    between atoms: O_21  and  C_22
REMARK    8  A    between atoms: C_22  and  C_23
REMARK    9  A    between atoms: C_23  and  N_24
REMARK                            x       y       z     vdW  Elec       q    Type
REMARK                         _______ _______ _______ _____ _____    ______ ____
ROOT
ATOM      1  C   UNL     1       2.614   5.784  18.879  0.00  0.00    +0.000 A 
ATOM      2  S   UNL     1       3.003   5.057  20.418  0.00  0.00    +0.000 S 
ATOM      3  C   UNL     1       3.522   3.599  19.659  0.00  0.00    +0.000 A 
ATOM      4  C   UNL     1       4.271   2.534  20.161  0.00  0.00    +0.000 A 
ATOM      5  C   UNL     1       4.321   1.383  19.386  0.00  0.00    +0.000 A 
ATOM      6  C   UNL     1       3.529   1.217  18.266  0.00  0.00    +0.000 A 
ATOM      7  C   UNL     1       2.883   2.330  17.727  0.00  0.00    +0.000 A 
ATOM      8  C   UNL     1       3.032   3.589  18.358  0.00  0.00    +0.000 A 
ATOM      9  C   UNL     1       3.183   4.945  17.931  0.00  0.00    +0.000 A 
ENDROOT
BRANCH   1  13
ATOM     10  C   UNL     1       1.578   9.933  18.924  0.00  0.00    +0.000 A 
ATOM     11  C   UNL     1       1.951   9.337  17.730  0.00  0.00    +0.000 A 
ATOM     12  C   UNL     1       2.217   7.963  17.692  0.00  0.00    +0.000 A 
ATOM     13  C   UNL     1       2.150   7.184  18.857  0.00  0.00    +0.000 A 
ATOM     14  C   UNL     1       1.654   7.796  20.023  0.00  0.00    +0.000 A 
ATOM     15  C   UNL     1       1.383   9.167  20.063  0.00  0.00    +0.000 A 
BRANCH  10  16
ATOM     16  O   UNL     1       1.401  11.280  19.027  0.00  0.00    +0.000 OA
ATOM     17  H   UNL     1       0.447  11.461  19.068  0.00  0.00    +0.000 HD
ENDBRANCH  10  16
ENDBRANCH   1  13
BRANCH   5  18
ATOM     18  O   UNL     1       5.197   0.383  19.701  0.00  0.00    +0.000 OA
ATOM     19  H   UNL     1       4.668  -0.297  20.156  0.00  0.00    +0.000 HD
ENDBRANCH   5  18
BRANCH   9  20
ATOM     20  O   UNL     1       4.003   5.465  16.970  0.00  0.00    +0.000 OA
BRANCH  20  21
ATOM     21  C   UNL     1       5.282   5.912  17.195  0.00  0.00    +0.000 A 
ATOM     22  C   UNL     1       5.662   7.155  16.698  0.00  0.00    +0.000 A 
ATOM     23  C   UNL     1       6.829   7.766  17.102  0.00  0.00    +0.000 A 
ATOM     24  C   UNL     1       7.607   7.216  18.141  0.00  0.00    +0.000 A 
ATOM     25  C   UNL     1       7.293   5.926  18.583  0.00  0.00    +0.000 A 
ATOM     26  C   UNL     1       6.135   5.271  18.106  0.00  0.00    +0.000 A 
BRANCH  24  27
ATOM     27  O   UNL     1       8.609   7.909  18.783  0.00  0.00    +0.000 OA
BRANCH  27  28
ATOM     28  C   UNL     1       8.603   9.314  18.455  0.00  0.00    +0.000 C 
BRANCH  28  29
ATOM     29  C   UNL     1       9.650  10.163  19.196  0.00  0.00    +0.000 C 
BRANCH  29  30
ATOM     30  N   UNL     1       9.058  11.417  19.754  0.00  0.00    +0.000 NA
ATOM     31  C   UNL     1       9.452  11.602  21.158  0.00  0.00    +0.000 C 
ATOM     32  C   UNL     1       8.806  12.849  21.774  0.00  0.00    +0.000 C 
ATOM     33  C   UNL     1       9.091  14.099  20.955  0.00  0.00    +0.000 C 
ATOM     34  C   UNL     1       8.705  13.866  19.497  0.00  0.00    +0.000 C 
ATOM     35  C   UNL     1       9.389  12.600  18.951  0.00  0.00    +0.000 C 
ENDBRANCH  29  30
ENDBRANCH  28  29
ENDBRANCH  27  28
ENDBRANCH  24  27
ENDBRANCH  20  21
ENDBRANCH   9  20
TORSDOF 9
ENDMDL
MODEL 9
REMARK VINA RESULT:      -7.7      3.449      7.493
REMARK  Name = 
REMARK  9 active torsions:
REMARK  status: ('A' for Active; 'I' for Inactive)
REMARK    1  A    between atoms: O_1  and  C_2
REMARK    2  A    between atoms: C_5  and  C_6
REMARK    3  A    between atoms: C_10  and  O_11
REMARK    4  A    between atoms: C_15  and  O_16
REMARK    5  A    between atoms: O_16  and  C_17
REMARK    6  A    between atoms: C_20  and  O_21
REMARK    7  A    between atoms: O_21  and  C_22
REMARK    8  A    between atoms: C_22  and  C_23
REMARK    9  A    between atoms: C_23  and  N_24
REMARK                            x       y       z     vdW  Elec       q    Type
REMARK                         _______ _______ _______ _____ _____    ______ ____
ROOT
ATOM      1  C   UNL     1       5.070   5.146  18.386  0.00  0.00    +0.000 A 
ATOM      2  S   UNL     1       4.445   4.295  16.994  0.00  0.00    +0.000 S 
ATOM      3  C   UNL     1       3.218   3.540  17.939  0.00  0.00    +0.000 A 
ATOM      4  C   UNL     1       2.058   2.869  17.548  0.00  0.00    +0.000 A 
ATOM      5  C   UNL     1       1.388   2.149  18.529  0.00  0.00    +0.000 A 
ATOM      6  C   UNL     1       1.926   1.947  19.785  0.00  0.00    +0.000 A 
ATOM      7  C   UNL     1       3.020   2.715  20.183  0.00  0.00    +0.000 A 
ATOM      8  C   UNL     1       3.565   3.660  19.280  0.00  0.00    +0.000 A 
ATOM      9  C   UNL     1       4.104   4.982  19.370  0.00  0.00    +0.000 A 
ENDROOT
BRANCH   1  13
ATOM     10  C   UNL     1       8.129   8.113  18.042  0.00  0.00    +0.000 A 
ATOM     11  C   UNL     1       8.319   7.035  18.892  0.00  0.00    +0.000 A 
ATOM     12  C   UNL     1       7.356   6.020  18.953  0.00  0.00    +0.000 A 
ATOM     13  C   UNL     1       6.179   6.097  18.192  0.00  0.00    +0.000 A 
ATOM     14  C   UNL     1       6.076   7.141  17.254  0.00  0.00    +0.000 A 
ATOM     15  C   UNL     1       7.038   8.154  17.188  0.00  0.00    +0.000 A 
BRANCH  10  16
ATOM     16  O   UNL     1       8.993   9.167  18.019  0.00  0.00    +0.000 OA
ATOM     17  H   UNL     1       9.007   9.532  17.119  0.00  0.00    +0.000 HD
ENDBRANCH  10  16
ENDBRANCH   1  13
BRANCH   5  18
ATOM     18  O   UNL     1       0.144   1.646  18.280  0.00  0.00    +0.000 OA
ATOM     19  H   UNL     1      -0.212   1.382  19.148  0.00  0.00    +0.000 HD
ENDBRANCH   5  18
BRANCH   9  20
ATOM     20  O   UNL     1       3.614   6.074  20.028  0.00  0.00    +0.000 OA
BRANCH  20  21
ATOM     21  C   UNL     1       2.697   6.953  19.505  0.00  0.00    +0.000 A 
ATOM     22  C   UNL     1       1.896   7.692  20.371  0.00  0.00    +0.000 A 
ATOM     23  C   UNL     1       1.150   8.761  19.926  0.00  0.00    +0.000 A 
ATOM     24  C   UNL     1       1.283   9.231  18.603  0.00  0.00    +0.000 A 
ATOM     25  C   UNL     1       2.007   8.447  17.698  0.00  0.00    +0.000 A 
ATOM     26  C   UNL     1       2.709   7.305  18.146  0.00  0.00    +0.000 A 
BRANCH  24  27
ATOM     27  O   UNL     1       0.797  10.449  18.182  0.00  0.00    +0.000 OA
BRANCH  27  28
ATOM     28  C   UNL     1       0.335  11.265  19.278  0.00  0.00    +0.000 C 
BRANCH  28  29
ATOM     29  C   UNL     1      -1.149  11.666  19.213  0.00  0.00    +0.000 C 
BRANCH  29  30
ATOM     30  N   UNL     1      -1.730  11.874  20.574  0.00  0.00    +0.000 NA
ATOM     31  C   UNL     1      -0.791  11.434  21.617  0.00  0.00    +0.000 C 
ATOM     32  C   UNL     1      -1.387  11.577  23.022  0.00  0.00    +0.000 C 
ATOM     33  C   UNL     1      -1.879  12.992  23.288  0.00  0.00    +0.000 C 
ATOM     34  C   UNL     1      -2.823  13.434  22.173  0.00  0.00    +0.000 C 
ATOM     35  C   UNL     1      -2.156  13.260  20.798  0.00  0.00    +0.000 C 
ENDBRANCH  29  30
ENDBRANCH  28  29
ENDBRANCH  27  28
ENDBRANCH  24  27
ENDBRANCH  20  21
ENDBRANCH   9  20
TORSDOF 9
ENDMDL
