MODEL 1
REMARK VINA RESULT:      -8.1      0.000      0.000
REMARK  Name = 
REMARK  4 active torsions:
REMARK  status: ('A' for Active; 'I' for Inactive)
REMARK    1  A    between atoms: C_1  and  C_2
REMARK    2  A    between atoms: C_5  and  N_6
REMARK    3  A    between atoms: C_7  and  C_8
REMARK    4  A    between atoms: N_24  and  C_25
REMARK                            x       y       z     vdW  Elec       q    Type
REMARK                         _______ _______ _______ _____ _____    ______ ____
ROOT
ATOM      1  N   UNL     1       2.940   6.678  18.444  0.00  0.00    +0.000 N 
ATOM      2  C   UNL     1       2.277   6.190  19.550  0.00  0.00    +0.000 A 
ATOM      3  N   UNL     1       1.467   6.927  20.246  0.00  0.00    +0.000 NA
ATOM      4  C   UNL     1       1.232   8.248  19.932  0.00  0.00    +0.000 A 
ATOM      5  C   UNL     1       1.852   8.819  18.881  0.00  0.00    +0.000 A 
ATOM      6  C   UNL     1       1.585  10.238  18.556  0.00  0.00    +0.000 A 
ATOM      7  O   UNL     1       2.113  10.823  17.617  0.00  0.00    +0.000 OA
ATOM      8  C   UNL     1       0.641  10.979  19.408  0.00  0.00    +0.000 A 
ATOM      9  C   UNL     1       0.378  12.325  19.088  0.00  0.00    +0.000 A 
ATOM     10  C   UNL     1      -0.505  13.067  19.860  0.00  0.00    +0.000 A 
ATOM     11  C   UNL     1      -1.111  12.463  20.950  0.00  0.00    +0.000 A 
ATOM     12  C   UNL     1      -0.845  11.118  21.260  0.00  0.00    +0.000 A 
ATOM     13  C   UNL     1       0.038  10.333  20.496  0.00  0.00    +0.000 A 
ATOM     14  N   UNL     1       0.337   8.978  20.752  0.00  0.00    +0.000 N 
ATOM     15  C   UNL     1      -0.260   8.291  21.908  0.00  0.00    +0.000 C 
ATOM     16  C   UNL     1       2.796   8.013  18.073  0.00  0.00    +0.000 A 
ATOM     17  O   UNL     1       3.392   8.513  17.119  0.00  0.00    +0.000 OA
ENDROOT
BRANCH   1  22
ATOM     18  C   UNL     1       6.380   3.600  15.054  0.00  0.00    +0.000 C 
ATOM     19  C   UNL     1       5.513   4.351  16.020  0.00  0.00    +0.000 A 
ATOM     20  C   UNL     1       4.205   3.930  16.276  0.00  0.00    +0.000 A 
ATOM     21  C   UNL     1       3.372   4.686  17.099  0.00  0.00    +0.000 A 
ATOM     22  C   UNL     1       3.827   5.888  17.659  0.00  0.00    +0.000 A 
ATOM     23  C   UNL     1       5.154   6.279  17.455  0.00  0.00    +0.000 A 
ATOM     24  C   UNL     1       5.990   5.514  16.637  0.00  0.00    +0.000 A 
ENDBRANCH   1  22
BRANCH   2  25
ATOM     25  C   UNL     1       2.520   4.738  20.051  0.00  0.00    +0.000 C 
ATOM     26  C   UNL     1       2.492   4.620  21.578  0.00  0.00    +0.000 C 
ATOM     27  C   UNL     1       2.041   3.202  21.898  0.00  0.00    +0.000 C 
ATOM     28  C   UNL     1       1.282   2.697  20.685  0.00  0.00    +0.000 C 
ATOM     29  C   UNL     1       1.444   3.741  19.589  0.00  0.00    +0.000 C 
ENDBRANCH   2  25
TORSDOF 2
ENDMDL
MODEL 2
REMARK VINA RESULT:      -8.0      3.691      6.736
REMARK  Name = 
REMARK  4 active torsions:
REMARK  status: ('A' for Active; 'I' for Inactive)
REMARK    1  A    between atoms: C_1  and  C_2
REMARK    2  A    between atoms: C_5  and  N_6
REMARK    3  A    between atoms: C_7  and  C_8
REMARK    4  A    between atoms: N_24  and  C_25
REMARK                            x       y       z     vdW  Elec       q    Type
REMARK                         _______ _______ _______ _____ _____    ______ ____
ROOT
ATOM      1  N   UNL     1      -0.650  11.002  19.829  0.00  0.00    +0.000 N 
ATOM      2  C   UNL     1      -1.809  11.213  19.111  0.00  0.00    +0.000 A 
ATOM      3  N   UNL     1      -2.745  12.005  19.535  0.00  0.00    +0.000 NA
ATOM      4  C   UNL     1      -2.646  12.671  20.737  0.00  0.00    +0.000 A 
ATOM      5  C   UNL     1      -1.561  12.510  21.518  0.00  0.00    +0.000 A 
ATOM      6  C   UNL     1      -1.471  13.236  22.805  0.00  0.00    +0.000 A 
ATOM      7  O   UNL     1      -0.515  13.137  23.567  0.00  0.00    +0.000 OA
ATOM      8  C   UNL     1      -2.587  14.116  23.186  0.00  0.00    +0.000 A 
ATOM      9  C   UNL     1      -2.492  14.816  24.404  0.00  0.00    +0.000 A 
ATOM     10  C   UNL     1      -3.519  15.659  24.807  0.00  0.00    +0.000 A 
ATOM     11  C   UNL     1      -4.635  15.789  23.996  0.00  0.00    +0.000 A 
ATOM     12  C   UNL     1      -4.720  15.088  22.781  0.00  0.00    +0.000 A 
ATOM     13  C   UNL     1      -3.696  14.231  22.336  0.00  0.00    +0.000 A 
ATOM     14  N   UNL     1      -3.721  13.510  21.124  0.00  0.00    +0.000 N 
ATOM     15  C   UNL     1      -4.890  13.592  20.233  0.00  0.00    +0.000 C 
ATOM     16  C   UNL     1      -0.479  11.601  21.075  0.00  0.00    +0.000 A 
ATOM     17  O   UNL     1       0.516  11.419  21.776  0.00  0.00    +0.000 OA
ENDROOT
BRANCH   1  22
ATOM     18  C   UNL     1       3.357   7.382  17.924  0.00  0.00    +0.000 C 
ATOM     19  C   UNL     1       2.380   8.375  18.477  0.00  0.00    +0.000 A 
ATOM     20  C   UNL     1       1.666   8.095  19.646  0.00  0.00    +0.000 A 
ATOM     21  C   UNL     1       0.690   8.979  20.102  0.00  0.00    +0.000 A 
ATOM     22  C   UNL     1       0.395  10.145  19.382  0.00  0.00    +0.000 A 
ATOM     23  C   UNL     1       1.151  10.459  18.248  0.00  0.00    +0.000 A 
ATOM     24  C   UNL     1       2.136   9.576  17.798  0.00  0.00    +0.000 A 
ENDBRANCH   1  22
BRANCH   2  25
ATOM     25  C   UNL     1      -2.071  10.457  17.778  0.00  0.00    +0.000 C 
ATOM     26  C   UNL     1      -3.441   9.774  17.737  0.00  0.00    +0.000 C 
ATOM     27  C   UNL     1      -3.853   9.709  16.274  0.00  0.00    +0.000 C 
ATOM     28  C   UNL     1      -3.082  10.796  15.550  0.00  0.00    +0.000 C 
ATOM     29  C   UNL     1      -2.085  11.376  16.544  0.00  0.00    +0.000 C 
ENDBRANCH   2  25
TORSDOF 2
ENDMDL
MODEL 3
REMARK VINA RESULT:      -7.8      1.686      2.478
REMARK  Name = 
REMARK  4 active torsions:
REMARK  status: ('A' for Active; 'I' for Inactive)
REMARK    1  A    between atoms: C_1  and  C_2
REMARK    2  A    between atoms: C_5  and  N_6
REMARK    3  A    between atoms: C_7  and  C_8
REMARK    4  A    between atoms: N_24  and  C_25
REMARK                            x       y       z     vdW  Elec       q    Type
REMARK                         _______ _______ _______ _____ _____    ______ ____
ROOT
ATOM      1  N   UNL     1       4.251   5.696  17.096  0.00  0.00    +0.000 N 
ATOM      2  C   UNL     1       3.899   4.897  18.165  0.00  0.00    +0.000 A 
ATOM      3  N   UNL     1       3.114   5.319  19.108  0.00  0.00    +0.000 NA
ATOM      4  C   UNL     1       2.598   6.597  19.109  0.00  0.00    +0.000 A 
ATOM      5  C   UNL     1       2.904   7.456  18.118  0.00  0.00    +0.000 A 
ATOM      6  C   UNL     1       2.337   8.823  18.133  0.00  0.00    +0.000 A 
ATOM      7  O   UNL     1       2.572   9.658  17.266  0.00  0.00    +0.000 OA
ATOM      8  C   UNL     1       1.451   9.195  19.247  0.00  0.00    +0.000 A 
ATOM      9  C   UNL     1       0.901  10.492  19.252  0.00  0.00    +0.000 A 
ATOM     10  C   UNL     1       0.059  10.890  20.281  0.00  0.00    +0.000 A 
ATOM     11  C   UNL     1      -0.221   9.994  21.301  0.00  0.00    +0.000 A 
ATOM     12  C   UNL     1       0.330   8.701  21.287  0.00  0.00    +0.000 A 
ATOM     13  C   UNL     1       1.181   8.260  20.257  0.00  0.00    +0.000 A 
ATOM     14  N   UNL     1       1.755   6.973  20.183  0.00  0.00    +0.000 N 
ATOM     15  C   UNL     1       1.511   5.988  21.249  0.00  0.00    +0.000 C 
ATOM     16  C   UNL     1       3.810   7.015  17.032  0.00  0.00    +0.000 A 
ATOM     17  O   UNL     1       4.122   7.784  16.124  0.00  0.00    +0.000 OA
ENDROOT
BRANCH   1  22
ATOM     18  C   UNL     1       7.576   4.128  12.705  0.00  0.00    +0.000 C 
ATOM     19  C   UNL     1       6.728   4.450  13.899  0.00  0.00    +0.000 A 
ATOM     20  C   UNL     1       5.372   4.114  13.919  0.00  0.00    +0.000 A 
ATOM     21  C   UNL     1       4.568   4.501  14.989  0.00  0.00    +0.000 A 
ATOM     22  C   UNL     1       5.103   5.254  16.045  0.00  0.00    +0.000 A 
ATOM     23  C   UNL     1       6.472   5.537  16.057  0.00  0.00    +0.000 A 
ATOM     24  C   UNL     1       7.279   5.140  14.987  0.00  0.00    +0.000 A 
ENDBRANCH   1  22
BRANCH   2  25
ATOM     25  C   UNL     1       4.482   3.464  18.317  0.00  0.00    +0.000 C 
ATOM     26  C   UNL     1       4.702   3.060  19.777  0.00  0.00    +0.000 C 
ATOM     27  C   UNL     1       4.577   1.544  19.834  0.00  0.00    +0.000 C 
ATOM     28  C   UNL     1       3.755   1.124  18.630  0.00  0.00    +0.000 C 
ATOM     29  C   UNL     1       3.555   2.364  17.770  0.00  0.00    +0.000 C 
ENDBRANCH   2  25
TORSDOF 2
ENDMDL
MODEL 4
REMARK VINA RESULT:      -7.6      0.927      1.134
REMARK  Name = 
REMARK  4 active torsions:
REMARK  status: ('A' for Active; 'I' for Inactive)
REMARK    1  A    between atoms: C_1  and  C_2
REMARK    2  A    between atoms: C_5  and  N_6
REMARK    3  A    between atoms: C_7  and  C_8
REMARK    4  A    between atoms: N_24  and  C_25
REMARK                            x       y       z     vdW  Elec       q    Type
REMARK                         _______ _______ _______ _____ _____    ______ ____
ROOT
ATOM      1  N   UNL     1       2.371   6.761  19.185  0.00  0.00    +0.000 N 
ATOM      2  C   UNL     1       1.740   6.430  20.366  0.00  0.00    +0.000 A 
ATOM      3  N   UNL     1       1.039   7.292  21.036  0.00  0.00    +0.000 NA
ATOM      4  C   UNL     1       0.894   8.597  20.616  0.00  0.00    +0.000 A 
ATOM      5  C   UNL     1       1.492   9.019  19.485  0.00  0.00    +0.000 A 
ATOM      6  C   UNL     1       1.323  10.423  19.048  0.00  0.00    +0.000 A 
ATOM      7  O   UNL     1       1.838  10.876  18.032  0.00  0.00    +0.000 OA
ATOM      8  C   UNL     1       0.499  11.314  19.879  0.00  0.00    +0.000 A 
ATOM      9  C   UNL     1       0.329  12.646  19.453  0.00  0.00    +0.000 A 
ATOM     10  C   UNL     1      -0.440  13.526  20.202  0.00  0.00    +0.000 A 
ATOM     11  C   UNL     1      -1.025  13.072  21.374  0.00  0.00    +0.000 A 
ATOM     12  C   UNL     1      -0.852  11.742  21.790  0.00  0.00    +0.000 A 
ATOM     13  C   UNL     1      -0.086  10.820  21.053  0.00  0.00    +0.000 A 
ATOM     14  N   UNL     1       0.116   9.470  21.414  0.00  0.00    +0.000 N 
ATOM     15  C   UNL     1      -0.462   8.940  22.660  0.00  0.00    +0.000 C 
ATOM     16  C   UNL     1       2.315   8.067  18.703  0.00  0.00    +0.000 A 
ATOM     17  O   UNL     1       2.888   8.429  17.676  0.00  0.00    +0.000 OA
ENDROOT
BRANCH   1  22
ATOM     18  C   UNL     1       5.409   3.181  15.908  0.00  0.00    +0.000 C 
ATOM     19  C   UNL     1       4.616   4.048  16.838  0.00  0.00    +0.000 A 
ATOM     20  C   UNL     1       3.219   4.005  16.832  0.00  0.00    +0.000 A 
ATOM     21  C   UNL     1       2.486   4.882  17.630  0.00  0.00    +0.000 A 
ATOM     22  C   UNL     1       3.138   5.832  18.428  0.00  0.00    +0.000 A 
ATOM     23  C   UNL     1       4.536   5.834  18.484  0.00  0.00    +0.000 A 
ATOM     24  C   UNL     1       5.269   4.948  17.690  0.00  0.00    +0.000 A 
ENDBRANCH   1  22
BRANCH   2  25
ATOM     25  C   UNL     1       1.894   5.011  20.983  0.00  0.00    +0.000 C 
ATOM     26  C   UNL     1       0.923   3.990  20.384  0.00  0.00    +0.000 C 
ATOM     27  C   UNL     1       1.593   2.628  20.503  0.00  0.00    +0.000 C 
ATOM     28  C   UNL     1       3.085   2.879  20.611  0.00  0.00    +0.000 C 
ATOM     29  C   UNL     1       3.278   4.384  20.741  0.00  0.00    +0.000 C 
ENDBRANCH   2  25
TORSDOF 2
ENDMDL
MODEL 5
REMARK VINA RESULT:      -7.6      4.133      7.556
REMARK  Name = 
REMARK  4 active torsions:
REMARK  status: ('A' for Active; 'I' for Inactive)
REMARK    1  A    between atoms: C_1  and  C_2
REMARK    2  A    between atoms: C_5  and  N_6
REMARK    3  A    between atoms: C_7  and  C_8
REMARK    4  A    between atoms: N_24  and  C_25
REMARK                            x       y       z     vdW  Elec       q    Type
REMARK                         _______ _______ _______ _____ _____    ______ ____
ROOT
ATOM      1  N   UNL     1      -1.199  11.743  20.224  0.00  0.00    +0.000 N 
ATOM      2  C   UNL     1      -2.424  11.884  19.605  0.00  0.00    +0.000 A 
ATOM      3  N   UNL     1      -3.335  12.687  20.062  0.00  0.00    +0.000 NA
ATOM      4  C   UNL     1      -3.142  13.435  21.202  0.00  0.00    +0.000 A 
ATOM      5  C   UNL     1      -1.986  13.346  21.887  0.00  0.00    +0.000 A 
ATOM      6  C   UNL     1      -1.794  14.160  23.109  0.00  0.00    +0.000 A 
ATOM      7  O   UNL     1      -0.770  14.130  23.782  0.00  0.00    +0.000 OA
ATOM      8  C   UNL     1      -2.891  15.044  23.533  0.00  0.00    +0.000 A 
ATOM      9  C   UNL     1      -2.701  15.828  24.687  0.00  0.00    +0.000 A 
ATOM     10  C   UNL     1      -3.706  16.679  25.128  0.00  0.00    +0.000 A 
ATOM     11  C   UNL     1      -4.895  16.733  24.418  0.00  0.00    +0.000 A 
ATOM     12  C   UNL     1      -5.075  15.950  23.266  0.00  0.00    +0.000 A 
ATOM     13  C   UNL     1      -4.077  15.082  22.785  0.00  0.00    +0.000 A 
ATOM     14  N   UNL     1      -4.196  14.279  21.631  0.00  0.00    +0.000 N 
ATOM     15  C   UNL     1      -5.444  14.280  20.850  0.00  0.00    +0.000 C 
ATOM     16  C   UNL     1      -0.928  12.428  21.406  0.00  0.00    +0.000 A 
ATOM     17  O   UNL     1       0.131  12.312  22.022  0.00  0.00    +0.000 OA
ENDROOT
BRANCH   1  22
ATOM     18  C   UNL     1       2.704   8.118  18.121  0.00  0.00    +0.000 C 
ATOM     19  C   UNL     1       1.752   9.097  18.740  0.00  0.00    +0.000 A 
ATOM     20  C   UNL     1       0.900   8.703  19.775  0.00  0.00    +0.000 A 
ATOM     21  C   UNL     1      -0.050   9.589  20.280  0.00  0.00    +0.000 A 
ATOM     22  C   UNL     1      -0.180  10.876  19.739  0.00  0.00    +0.000 A 
ATOM     23  C   UNL     1       0.712  11.294  18.747  0.00  0.00    +0.000 A 
ATOM     24  C   UNL     1       1.670  10.406  18.248  0.00  0.00    +0.000 A 
ENDBRANCH   1  22
BRANCH   2  25
ATOM     25  C   UNL     1      -2.790  11.034  18.356  0.00  0.00    +0.000 C 
ATOM     26  C   UNL     1      -4.285  11.069  18.026  0.00  0.00    +0.000 C 
ATOM     27  C   UNL     1      -4.407  10.846  16.526  0.00  0.00    +0.000 C 
ATOM     28  C   UNL     1      -3.079  11.246  15.912  0.00  0.00    +0.000 C 
ATOM     29  C   UNL     1      -2.120  11.526  17.061  0.00  0.00    +0.000 C 
ENDBRANCH   2  25
TORSDOF 2
ENDMDL
MODEL 6
REMARK VINA RESULT:      -7.5      5.900      9.364
REMARK  Name = 
REMARK  4 active torsions:
REMARK  status: ('A' for Active; 'I' for Inactive)
REMARK    1  A    between atoms: C_1  and  C_2
REMARK    2  A    between atoms: C_5  and  N_6
REMARK    3  A    between atoms: C_7  and  C_8
REMARK    4  A    between atoms: N_24  and  C_25
REMARK                            x       y       z     vdW  Elec       q    Type
REMARK                         _______ _______ _______ _____ _____    ______ ____
ROOT
ATOM      1  N   UNL     1      -2.125  13.456  21.210  0.00  0.00    +0.000 N 
ATOM      2  C   UNL     1      -1.139  12.501  21.079  0.00  0.00    +0.000 A 
ATOM      3  N   UNL     1      -0.044  12.731  20.422  0.00  0.00    +0.000 NA
ATOM      4  C   UNL     1       0.194  13.938  19.800  0.00  0.00    +0.000 A 
ATOM      5  C   UNL     1      -0.723  14.923  19.855  0.00  0.00    +0.000 A 
ATOM      6  C   UNL     1      -0.450  16.215  19.184  0.00  0.00    +0.000 A 
ATOM      7  O   UNL     1      -1.237  17.155  19.191  0.00  0.00    +0.000 OA
ATOM      8  C   UNL     1       0.829  16.371  18.474  0.00  0.00    +0.000 A 
ATOM      9  C   UNL     1       1.092  17.606  17.848  0.00  0.00    +0.000 A 
ATOM     10  C   UNL     1       2.284  17.802  17.166  0.00  0.00    +0.000 A 
ATOM     11  C   UNL     1       3.200  16.764  17.105  0.00  0.00    +0.000 A 
ATOM     12  C   UNL     1       2.930  15.537  17.734  0.00  0.00    +0.000 A 
ATOM     13  C   UNL     1       1.737  15.303  18.441  0.00  0.00    +0.000 A 
ATOM     14  N   UNL     1       1.414  14.097  19.100  0.00  0.00    +0.000 N 
ATOM     15  C   UNL     1       2.338  12.953  19.050  0.00  0.00    +0.000 C 
ATOM     16  C   UNL     1      -1.992  14.692  20.582  0.00  0.00    +0.000 A 
ATOM     17  O   UNL     1      -2.856  15.567  20.632  0.00  0.00    +0.000 OA
ENDROOT
BRANCH   1  22
ATOM     18  C   UNL     1      -7.018  12.835  24.120  0.00  0.00    +0.000 C 
ATOM     19  C   UNL     1      -5.717  12.900  23.379  0.00  0.00    +0.000 A 
ATOM     20  C   UNL     1      -4.545  13.291  24.033  0.00  0.00    +0.000 A 
ATOM     21  C   UNL     1      -3.359  13.444  23.318  0.00  0.00    +0.000 A 
ATOM     22  C   UNL     1      -3.332  13.232  21.932  0.00  0.00    +0.000 A 
ATOM     23  C   UNL     1      -4.487  12.780  21.286  0.00  0.00    +0.000 A 
ATOM     24  C   UNL     1      -5.673  12.619  22.007  0.00  0.00    +0.000 A 
ENDBRANCH   1  22
BRANCH   2  25
ATOM     25  C   UNL     1      -1.324  11.074  21.668  0.00  0.00    +0.000 C 
ATOM     26  C   UNL     1      -0.551  10.003  20.895  0.00  0.00    +0.000 C 
ATOM     27  C   UNL     1      -0.233   8.893  21.886  0.00  0.00    +0.000 C 
ATOM     28  C   UNL     1      -0.279   9.512  23.271  0.00  0.00    +0.000 C 
ATOM     29  C   UNL     1      -0.803  10.933  23.108  0.00  0.00    +0.000 C 
ENDBRANCH   2  25
TORSDOF 2
ENDMDL
MODEL 7
REMARK VINA RESULT:      -7.4      6.143      8.208
REMARK  Name = 
REMARK  4 active torsions:
REMARK  status: ('A' for Active; 'I' for Inactive)
REMARK    1  A    between atoms: C_1  and  C_2
REMARK    2  A    between atoms: C_5  and  N_6
REMARK    3  A    between atoms: C_7  and  C_8
REMARK    4  A    between atoms: N_24  and  C_25
REMARK                            x       y       z     vdW  Elec       q    Type
REMARK                         _______ _______ _______ _____ _____    ______ ____
ROOT
ATOM      1  N   UNL     1      -1.615  12.575  19.348  0.00  0.00    +0.000 N 
ATOM      2  C   UNL     1      -2.567  11.991  18.538  0.00  0.00    +0.000 A 
ATOM      3  N   UNL     1      -3.799  11.849  18.919  0.00  0.00    +0.000 NA
ATOM      4  C   UNL     1      -4.229  12.258  20.163  0.00  0.00    +0.000 A 
ATOM      5  C   UNL     1      -3.365  12.819  21.031  0.00  0.00    +0.000 A 
ATOM      6  C   UNL     1      -3.845  13.255  22.362  0.00  0.00    +0.000 A 
ATOM      7  O   UNL     1      -3.117  13.771  23.203  0.00  0.00    +0.000 OA
ATOM      8  C   UNL     1      -5.266  13.054  22.688  0.00  0.00    +0.000 A 
ATOM      9  C   UNL     1      -5.722  13.483  23.950  0.00  0.00    +0.000 A 
ATOM     10  C   UNL     1      -7.054  13.316  24.304  0.00  0.00    +0.000 A 
ATOM     11  C   UNL     1      -7.917  12.715  23.401  0.00  0.00    +0.000 A 
ATOM     12  C   UNL     1      -7.453  12.292  22.144  0.00  0.00    +0.000 A 
ATOM     13  C   UNL     1      -6.112  12.452  21.747  0.00  0.00    +0.000 A 
ATOM     14  N   UNL     1      -5.591  12.057  20.496  0.00  0.00    +0.000 N 
ATOM     15  C   UNL     1      -6.455  11.394  19.507  0.00  0.00    +0.000 C 
ATOM     16  C   UNL     1      -1.947  12.982  20.638  0.00  0.00    +0.000 A 
ATOM     17  O   UNL     1      -1.131  13.474  21.418  0.00  0.00    +0.000 OA
ENDROOT
BRANCH   1  22
ATOM     18  C   UNL     1       3.888  13.404  17.998  0.00  0.00    +0.000 C 
ATOM     19  C   UNL     1       2.430  13.164  18.254  0.00  0.00    +0.000 A 
ATOM     20  C   UNL     1       1.511  14.213  18.167  0.00  0.00    +0.000 A 
ATOM     21  C   UNL     1       0.174  14.005  18.500  0.00  0.00    +0.000 A 
ATOM     22  C   UNL     1      -0.259  12.750  18.950  0.00  0.00    +0.000 A 
ATOM     23  C   UNL     1       0.645  11.683  18.978  0.00  0.00    +0.000 A 
ATOM     24  C   UNL     1       1.983  11.892  18.635  0.00  0.00    +0.000 A 
ENDBRANCH   1  22
BRANCH   2  25
ATOM     25  C   UNL     1      -2.187  11.418  17.144  0.00  0.00    +0.000 C 
ATOM     26  C   UNL     1      -1.914   9.912  17.170  0.00  0.00    +0.000 C 
ATOM     27  C   UNL     1      -2.251   9.382  15.784  0.00  0.00    +0.000 C 
ATOM     28  C   UNL     1      -3.216  10.371  15.157  0.00  0.00    +0.000 C 
ATOM     29  C   UNL     1      -3.302  11.568  16.094  0.00  0.00    +0.000 C 
ENDBRANCH   2  25
TORSDOF 2
ENDMDL
MODEL 8
REMARK VINA RESULT:      -7.4      3.087      9.706
REMARK  Name = 
REMARK  4 active torsions:
REMARK  status: ('A' for Active; 'I' for Inactive)
REMARK    1  A    between atoms: C_1  and  C_2
REMARK    2  A    between atoms: C_5  and  N_6
REMARK    3  A    between atoms: C_7  and  C_8
REMARK    4  A    between atoms: N_24  and  C_25
REMARK                            x       y       z     vdW  Elec       q    Type
REMARK                         _______ _______ _______ _____ _____    ______ ____
ROOT
ATOM      1  N   UNL     1      -0.949  12.605  21.698  0.00  0.00    +0.000 N 
ATOM      2  C   UNL     1      -0.333  13.078  20.557  0.00  0.00    +0.000 A 
ATOM      3  N   UNL     1       0.384  12.310  19.796  0.00  0.00    +0.000 NA
ATOM      4  C   UNL     1       0.589  10.979  20.089  0.00  0.00    +0.000 A 
ATOM      5  C   UNL     1       0.045  10.434  21.194  0.00  0.00    +0.000 A 
ATOM      6  C   UNL     1       0.272   9.002  21.491  0.00  0.00    +0.000 A 
ATOM      7  O   UNL     1      -0.189   8.439  22.478  0.00  0.00    +0.000 OA
ATOM      8  C   UNL     1       1.096   8.221  20.555  0.00  0.00    +0.000 A 
ATOM      9  C   UNL     1       1.299   6.855  20.833  0.00  0.00    +0.000 A 
ATOM     10  C   UNL     1       2.068   6.076  19.980  0.00  0.00    +0.000 A 
ATOM     11  C   UNL     1       2.636   6.667  18.862  0.00  0.00    +0.000 A 
ATOM     12  C   UNL     1       2.426   8.030  18.591  0.00  0.00    +0.000 A 
ATOM     13  C   UNL     1       1.646   8.849  19.429  0.00  0.00    +0.000 A 
ATOM     14  N   UNL     1       1.392  10.219  19.205  0.00  0.00    +0.000 N 
ATOM     15  C   UNL     1       1.987  10.905  18.046  0.00  0.00    +0.000 C 
ATOM     16  C   UNL     1      -0.767  11.283  22.096  0.00  0.00    +0.000 A 
ATOM     17  O   UNL     1      -1.260  10.817  23.122  0.00  0.00    +0.000 OA
ENDROOT
BRANCH   1  22
ATOM     18  C   UNL     1      -4.062  16.128  24.968  0.00  0.00    +0.000 C 
ATOM     19  C   UNL     1      -3.268  15.131  24.178  0.00  0.00    +0.000 A 
ATOM     20  C   UNL     1      -1.903  14.957  24.420  0.00  0.00    +0.000 A 
ATOM     21  C   UNL     1      -1.151  14.101  23.618  0.00  0.00    +0.000 A 
ATOM     22  C   UNL     1      -1.748  13.424  22.545  0.00  0.00    +0.000 A 
ATOM     23  C   UNL     1      -3.126  13.548  22.340  0.00  0.00    +0.000 A 
ATOM     24  C   UNL     1      -3.880  14.400  23.151  0.00  0.00    +0.000 A 
ENDBRANCH   1  22
BRANCH   2  25
ATOM     25  C   UNL     1      -0.424  14.579  20.164  0.00  0.00    +0.000 C 
ATOM     26  C   UNL     1       0.679  15.431  20.799  0.00  0.00    +0.000 C 
ATOM     27  C   UNL     1       0.920  16.604  19.859  0.00  0.00    +0.000 C 
ATOM     28  C   UNL     1       0.435  16.176  18.487  0.00  0.00    +0.000 C 
ATOM     29  C   UNL     1      -0.256  14.830  18.656  0.00  0.00    +0.000 C 
ENDBRANCH   2  25
TORSDOF 2
ENDMDL
MODEL 9
REMARK VINA RESULT:      -7.3      2.715      8.584
REMARK  Name = 
REMARK  4 active torsions:
REMARK  status: ('A' for Active; 'I' for Inactive)
REMARK    1  A    between atoms: C_1  and  C_2
REMARK    2  A    between atoms: C_5  and  N_6
REMARK    3  A    between atoms: C_7  and  C_8
REMARK    4  A    between atoms: N_24  and  C_25
REMARK                            x       y       z     vdW  Elec       q    Type
REMARK                         _______ _______ _______ _____ _____    ______ ____
ROOT
ATOM      1  N   UNL     1       0.685  13.371  19.704  0.00  0.00    +0.000 N 
ATOM      2  C   UNL     1       0.103  13.022  20.905  0.00  0.00    +0.000 A 
ATOM      3  N   UNL     1       0.117  11.802  21.346  0.00  0.00    +0.000 NA
ATOM      4  C   UNL     1       0.700  10.776  20.634  0.00  0.00    +0.000 A 
ATOM      5  C   UNL     1       1.274  11.017  19.440  0.00  0.00    +0.000 A 
ATOM      6  C   UNL     1       1.899   9.904  18.691  0.00  0.00    +0.000 A 
ATOM      7  O   UNL     1       2.438  10.048  17.599  0.00  0.00    +0.000 OA
ATOM      8  C   UNL     1       1.865   8.560  19.289  0.00  0.00    +0.000 A 
ATOM      9  C   UNL     1       2.473   7.505  18.580  0.00  0.00    +0.000 A 
ATOM     10  C   UNL     1       2.468   6.219  19.102  0.00  0.00    +0.000 A 
ATOM     11  C   UNL     1       1.850   5.994  20.322  0.00  0.00    +0.000 A 
ATOM     12  C   UNL     1       1.248   7.053  21.023  0.00  0.00    +0.000 A 
ATOM     13  C   UNL     1       1.240   8.370  20.529  0.00  0.00    +0.000 A 
ATOM     14  N   UNL     1       0.662   9.474  21.191  0.00  0.00    +0.000 N 
ATOM     15  C   UNL     1      -0.028   9.292  22.478  0.00  0.00    +0.000 C 
ATOM     16  C   UNL     1       1.263  12.395  18.896  0.00  0.00    +0.000 A 
ATOM     17  O   UNL     1       1.763  12.640  17.799  0.00  0.00    +0.000 OA
ENDROOT
BRANCH   1  22
ATOM     18  C   UNL     1       0.826  18.631  17.444  0.00  0.00    +0.000 C 
ATOM     19  C   UNL     1       0.769  17.297  18.125  0.00  0.00    +0.000 A 
ATOM     20  C   UNL     1       1.924  16.722  18.662  0.00  0.00    +0.000 A 
ATOM     21  C   UNL     1       1.884  15.440  19.207  0.00  0.00    +0.000 A 
ATOM     22  C   UNL     1       0.691  14.703  19.201  0.00  0.00    +0.000 A 
ATOM     23  C   UNL     1      -0.480  15.299  18.723  0.00  0.00    +0.000 A 
ATOM     24  C   UNL     1      -0.439  16.588  18.185  0.00  0.00    +0.000 A 
ENDBRANCH   1  22
BRANCH   2  25
ATOM     25  C   UNL     1      -0.655  14.076  21.760  0.00  0.00    +0.000 C 
ATOM     26  C   UNL     1      -1.454  13.452  22.908  0.00  0.00    +0.000 C 
ATOM     27  C   UNL     1      -1.536  14.503  24.006  0.00  0.00    +0.000 C 
ATOM     28  C   UNL     1      -0.375  15.456  23.790  0.00  0.00    +0.000 C 
ATOM     29  C   UNL     1       0.275  15.077  22.466  0.00  0.00    +0.000 C 
ENDBRANCH   2  25
TORSDOF 2
ENDMDL
