MODEL 1
REMARK VINA RESULT:      -7.9      0.000      0.000
REMARK  Name = 
REMARK  9 active torsions:
REMARK  status: ('A' for Active; 'I' for Inactive)
REMARK    1  A    between atoms: C_1  and  C_2
REMARK    2  A    between atoms: C_7  and  S_8
REMARK    3  A    between atoms: S_8  and  C_9
REMARK    4  A    between atoms: C_9  and  C_10
REMARK    5  A    between atoms: C_10  and  O_11
REMARK    6  A    between atoms: C_10  and  C_12
REMARK    7  A    between atoms: C_12  and  O_13
REMARK    8  A    between atoms: O_13  and  C_14
REMARK    9  A    between atoms: C_17  and  C_18
REMARK                            x       y       z     vdW  Elec       q    Type
REMARK                         _______ _______ _______ _____ _____    ______ ____
ROOT
ATOM      1  C   UNL     1       4.826   6.974  17.295  0.00  0.00    +0.000 C 
ENDROOT
BRANCH   1   2
ATOM      2  C   UNL     1       5.569   5.641  17.098  0.00  0.00    +0.000 C 
BRANCH   2   3
ATOM      3  O   UNL     1       5.079   5.030  15.895  0.00  0.00    +0.000 OA
ATOM      4  H   UNL     1       4.700   4.169  16.151  0.00  0.00    +0.000 HD
ENDBRANCH   2   3
BRANCH   2   5
ATOM      5  C   UNL     1       5.356   4.727  18.321  0.00  0.00    +0.000 C 
BRANCH   5   6
ATOM      6  S   UNL     1       4.416   3.215  17.909  0.00  0.00    +0.000 S 
BRANCH   6  13
ATOM      7  C   UNL     1       1.262   4.036  17.596  0.00  0.00    +0.000 C 
ATOM      8  C   UNL     1       1.783   3.579  18.930  0.00  0.00    +0.000 A 
ATOM      9  C   UNL     1       0.857   3.454  19.985  0.00  0.00    +0.000 A 
ATOM     10  C   UNL     1       1.249   2.990  21.240  0.00  0.00    +0.000 A 
ATOM     11  C   UNL     1       2.577   2.654  21.466  0.00  0.00    +0.000 A 
ATOM     12  C   UNL     1       3.510   2.778  20.436  0.00  0.00    +0.000 A 
ATOM     13  C   UNL     1       3.132   3.242  19.163  0.00  0.00    +0.000 A 
ENDBRANCH   6  13
ENDBRANCH   5   6
ENDBRANCH   2   5
ENDBRANCH   1   2
BRANCH   1  14
ATOM     14  O   UNL     1       3.422   6.682  17.374  0.00  0.00    +0.000 OA
BRANCH  14  15
ATOM     15  C   UNL     1       2.713   7.355  18.324  0.00  0.00    +0.000 A 
ATOM     16  C   UNL     1       2.152   8.554  17.901  0.00  0.00    +0.000 A 
ATOM     17  C   UNL     1       1.396   9.335  18.783  0.00  0.00    +0.000 A 
ATOM     18  C   UNL     1       1.147   8.918  20.103  0.00  0.00    +0.000 A 
ATOM     19  C   UNL     1       1.699   7.687  20.494  0.00  0.00    +0.000 A 
ATOM     20  C   UNL     1       2.478   6.914  19.622  0.00  0.00    +0.000 A 
BRANCH  18  21
ATOM     21  C   UNL     1       0.349   9.752  21.034  0.00  0.00    +0.000 A 
ATOM     22  C   UNL     1      -0.049  11.058  20.694  0.00  0.00    +0.000 A 
ATOM     23  C   UNL     1      -0.761  11.863  21.588  0.00  0.00    +0.000 A 
ATOM     24  C   UNL     1      -1.111  11.370  22.840  0.00  0.00    +0.000 A 
ATOM     25  C   UNL     1      -0.753  10.076  23.198  0.00  0.00    +0.000 A 
ATOM     26  C   UNL     1      -0.026   9.279  22.306  0.00  0.00    +0.000 A 
ENDBRANCH  18  21
ENDBRANCH  14  15
ENDBRANCH   1  14
TORSDOF 8
ENDMDL
MODEL 2
REMARK VINA RESULT:      -7.1      1.021      2.152
REMARK  Name = 
REMARK  9 active torsions:
REMARK  status: ('A' for Active; 'I' for Inactive)
REMARK    1  A    between atoms: C_1  and  C_2
REMARK    2  A    between atoms: C_7  and  S_8
REMARK    3  A    between atoms: S_8  and  C_9
REMARK    4  A    between atoms: C_9  and  C_10
REMARK    5  A    between atoms: C_10  and  O_11
REMARK    6  A    between atoms: C_10  and  C_12
REMARK    7  A    between atoms: C_12  and  O_13
REMARK    8  A    between atoms: O_13  and  C_14
REMARK    9  A    between atoms: C_17  and  C_18
REMARK                            x       y       z     vdW  Elec       q    Type
REMARK                         _______ _______ _______ _____ _____    ______ ____
ROOT
ATOM      1  C   UNL     1       4.568   5.993  18.761  0.00  0.00    +0.000 C 
ENDROOT
BRANCH   1   2
ATOM      2  C   UNL     1       4.795   4.504  18.448  0.00  0.00    +0.000 C 
BRANCH   2   3
ATOM      3  O   UNL     1       6.208   4.283  18.330  0.00  0.00    +0.000 OA
ATOM      4  H   UNL     1       6.392   3.416  18.736  0.00  0.00    +0.000 HD
ENDBRANCH   2   3
BRANCH   2   5
ATOM      5  C   UNL     1       4.055   4.114  17.153  0.00  0.00    +0.000 C 
BRANCH   5   6
ATOM      6  S   UNL     1       3.066   2.589  17.345  0.00  0.00    +0.000 S 
BRANCH   6  13
ATOM      7  C   UNL     1       4.479   1.585  20.123  0.00  0.00    +0.000 C 
ATOM      8  C   UNL     1       3.170   2.322  20.178  0.00  0.00    +0.000 A 
ATOM      9  C   UNL     1       2.639   2.615  21.450  0.00  0.00    +0.000 A 
ATOM     10  C   UNL     1       1.455   3.337  21.590  0.00  0.00    +0.000 A 
ATOM     11  C   UNL     1       0.773   3.770  20.460  0.00  0.00    +0.000 A 
ATOM     12  C   UNL     1       1.280   3.483  19.192  0.00  0.00    +0.000 A 
ATOM     13  C   UNL     1       2.475   2.758  19.032  0.00  0.00    +0.000 A 
ENDBRANCH   6  13
ENDBRANCH   5   6
ENDBRANCH   2   5
ENDBRANCH   1   2
BRANCH   1  14
ATOM     14  O   UNL     1       3.409   6.420  18.028  0.00  0.00    +0.000 OA
BRANCH  14  15
ATOM     15  C   UNL     1       2.601   7.330  18.643  0.00  0.00    +0.000 A 
ATOM     16  C   UNL     1       2.302   7.049  19.971  0.00  0.00    +0.000 A 
ATOM     17  C   UNL     1       1.486   7.911  20.713  0.00  0.00    +0.000 A 
ATOM     18  C   UNL     1       0.979   9.100  20.158  0.00  0.00    +0.000 A 
ATOM     19  C   UNL     1       1.324   9.375  18.824  0.00  0.00    +0.000 A 
ATOM     20  C   UNL     1       2.120   8.502  18.070  0.00  0.00    +0.000 A 
BRANCH  18  21
ATOM     21  C   UNL     1       0.111  10.007  20.947  0.00  0.00    +0.000 A 
ATOM     22  C   UNL     1      -0.029   9.862  22.340  0.00  0.00    +0.000 A 
ATOM     23  C   UNL     1      -0.882  10.687  23.080  0.00  0.00    +0.000 A 
ATOM     24  C   UNL     1      -1.601  11.692  22.444  0.00  0.00    +0.000 A 
ATOM     25  C   UNL     1      -1.468  11.876  21.073  0.00  0.00    +0.000 A 
ATOM     26  C   UNL     1      -0.624  11.039  20.333  0.00  0.00    +0.000 A 
ENDBRANCH  18  21
ENDBRANCH  14  15
ENDBRANCH   1  14
TORSDOF 8
ENDMDL
MODEL 3
REMARK VINA RESULT:      -7.1      0.997      1.763
REMARK  Name = 
REMARK  9 active torsions:
REMARK  status: ('A' for Active; 'I' for Inactive)
REMARK    1  A    between atoms: C_1  and  C_2
REMARK    2  A    between atoms: C_7  and  S_8
REMARK    3  A    between atoms: S_8  and  C_9
REMARK    4  A    between atoms: C_9  and  C_10
REMARK    5  A    between atoms: C_10  and  O_11
REMARK    6  A    between atoms: C_10  and  C_12
REMARK    7  A    between atoms: C_12  and  O_13
REMARK    8  A    between atoms: O_13  and  C_14
REMARK    9  A    between atoms: C_17  and  C_18
REMARK                            x       y       z     vdW  Elec       q    Type
REMARK                         _______ _______ _______ _____ _____    ______ ____
ROOT
ATOM      1  C   UNL     1       4.856   6.776  17.575  0.00  0.00    +0.000 C 
ENDROOT
BRANCH   1   2
ATOM      2  C   UNL     1       5.469   5.456  17.076  0.00  0.00    +0.000 C 
BRANCH   2   3
ATOM      3  O   UNL     1       4.731   5.028  15.923  0.00  0.00    +0.000 OA
ATOM      4  H   UNL     1       4.803   5.741  15.262  0.00  0.00    +0.000 HD
ENDBRANCH   2   3
BRANCH   2   5
ATOM      5  C   UNL     1       5.431   4.396  18.195  0.00  0.00    +0.000 C 
BRANCH   5   6
ATOM      6  S   UNL     1       4.300   3.012  17.809  0.00  0.00    +0.000 S 
BRANCH   6  13
ATOM      7  C   UNL     1       1.240   4.166  17.657  0.00  0.00    +0.000 C 
ATOM      8  C   UNL     1       1.775   3.644  18.961  0.00  0.00    +0.000 A 
ATOM      9  C   UNL     1       0.894   3.608  20.061  0.00  0.00    +0.000 A 
ATOM     10  C   UNL     1       1.295   3.095  21.293  0.00  0.00    +0.000 A 
ATOM     11  C   UNL     1       2.590   2.618  21.452  0.00  0.00    +0.000 A 
ATOM     12  C   UNL     1       3.479   2.652  20.377  0.00  0.00    +0.000 A 
ATOM     13  C   UNL     1       3.090   3.164  19.125  0.00  0.00    +0.000 A 
ENDBRANCH   6  13
ENDBRANCH   5   6
ENDBRANCH   2   5
ENDBRANCH   1   2
BRANCH   1  14
ATOM     14  O   UNL     1       3.714   6.448  18.381  0.00  0.00    +0.000 OA
BRANCH  14  15
ATOM     15  C   UNL     1       2.791   7.436  18.558  0.00  0.00    +0.000 A 
ATOM     16  C   UNL     1       2.232   7.499  19.828  0.00  0.00    +0.000 A 
ATOM     17  C   UNL     1       1.276   8.474  20.136  0.00  0.00    +0.000 A 
ATOM     18  C   UNL     1       0.882   9.439  19.192  0.00  0.00    +0.000 A 
ATOM     19  C   UNL     1       1.488   9.373  17.926  0.00  0.00    +0.000 A 
ATOM     20  C   UNL     1       2.427   8.382  17.605  0.00  0.00    +0.000 A 
BRANCH  18  21
ATOM     21  C   UNL     1      -0.134  10.466  19.522  0.00  0.00    +0.000 A 
ATOM     22  C   UNL     1      -0.062  11.216  20.711  0.00  0.00    +0.000 A 
ATOM     23  C   UNL     1      -1.044  12.153  21.047  0.00  0.00    +0.000 A 
ATOM     24  C   UNL     1      -2.114  12.377  20.188  0.00  0.00    +0.000 A 
ATOM     25  C   UNL     1      -2.204  11.669  18.996  0.00  0.00    +0.000 A 
ATOM     26  C   UNL     1      -1.226  10.721  18.670  0.00  0.00    +0.000 A 
ENDBRANCH  18  21
ENDBRANCH  14  15
ENDBRANCH   1  14
TORSDOF 8
ENDMDL
MODEL 4
REMARK VINA RESULT:      -7.1      1.799      2.661
REMARK  Name = 
REMARK  9 active torsions:
REMARK  status: ('A' for Active; 'I' for Inactive)
REMARK    1  A    between atoms: C_1  and  C_2
REMARK    2  A    between atoms: C_7  and  S_8
REMARK    3  A    between atoms: S_8  and  C_9
REMARK    4  A    between atoms: C_9  and  C_10
REMARK    5  A    between atoms: C_10  and  O_11
REMARK    6  A    between atoms: C_10  and  C_12
REMARK    7  A    between atoms: C_12  and  O_13
REMARK    8  A    between atoms: O_13  and  C_14
REMARK    9  A    between atoms: C_17  and  C_18
REMARK                            x       y       z     vdW  Elec       q    Type
REMARK                         _______ _______ _______ _____ _____    ______ ____
ROOT
ATOM      1  C   UNL     1       4.938   5.770  18.097  0.00  0.00    +0.000 C 
ENDROOT
BRANCH   1   2
ATOM      2  C   UNL     1       5.256   4.280  17.886  0.00  0.00    +0.000 C 
BRANCH   2   3
ATOM      3  O   UNL     1       6.583   4.179  17.348  0.00  0.00    +0.000 OA
ATOM      4  H   UNL     1       6.517   4.382  16.397  0.00  0.00    +0.000 HD
ENDBRANCH   2   3
BRANCH   2   5
ATOM      5  C   UNL     1       4.216   3.642  16.944  0.00  0.00    +0.000 C 
BRANCH   5   6
ATOM      6  S   UNL     1       3.579   2.052  17.581  0.00  0.00    +0.000 S 
BRANCH   6  13
ATOM      7  C   UNL     1       4.607   1.880  20.685  0.00  0.00    +0.000 C 
ATOM      8  C   UNL     1       3.271   2.497  20.376  0.00  0.00    +0.000 A 
ATOM      9  C   UNL     1       2.543   3.047  21.450  0.00  0.00    +0.000 A 
ATOM     10  C   UNL     1       1.318   3.681  21.243  0.00  0.00    +0.000 A 
ATOM     11  C   UNL     1       0.794   3.766  19.960  0.00  0.00    +0.000 A 
ATOM     12  C   UNL     1       1.497   3.219  18.886  0.00  0.00    +0.000 A 
ATOM     13  C   UNL     1       2.735   2.579  19.075  0.00  0.00    +0.000 A 
ENDBRANCH   6  13
ENDBRANCH   5   6
ENDBRANCH   2   5
ENDBRANCH   1   2
BRANCH   1  14
ATOM     14  O   UNL     1       3.813   5.853  18.985  0.00  0.00    +0.000 OA
BRANCH  14  15
ATOM     15  C   UNL     1       3.021   6.956  18.862  0.00  0.00    +0.000 A 
ATOM     16  C   UNL     1       2.247   7.254  19.977  0.00  0.00    +0.000 A 
ATOM     17  C   UNL     1       1.397   8.366  19.976  0.00  0.00    +0.000 A 
ATOM     18  C   UNL     1       1.327   9.235  18.873  0.00  0.00    +0.000 A 
ATOM     19  C   UNL     1       2.145   8.930  17.772  0.00  0.00    +0.000 A 
ATOM     20  C   UNL     1       2.979   7.803  17.759  0.00  0.00    +0.000 A 
BRANCH  18  21
ATOM     21  C   UNL     1       0.422  10.409  18.876  0.00  0.00    +0.000 A 
ATOM     22  C   UNL     1      -0.976  10.259  18.813  0.00  0.00    +0.000 A 
ATOM     23  C   UNL     1      -1.830  11.365  18.769  0.00  0.00    +0.000 A 
ATOM     24  C   UNL     1      -1.304  12.651  18.807  0.00  0.00    +0.000 A 
ATOM     25  C   UNL     1       0.071  12.834  18.891  0.00  0.00    +0.000 A 
ATOM     26  C   UNL     1       0.924  11.724  18.920  0.00  0.00    +0.000 A 
ENDBRANCH  18  21
ENDBRANCH  14  15
ENDBRANCH   1  14
TORSDOF 8
ENDMDL
MODEL 5
REMARK VINA RESULT:      -7.1      0.887      1.750
REMARK  Name = 
REMARK  9 active torsions:
REMARK  status: ('A' for Active; 'I' for Inactive)
REMARK    1  A    between atoms: C_1  and  C_2
REMARK    2  A    between atoms: C_7  and  S_8
REMARK    3  A    between atoms: S_8  and  C_9
REMARK    4  A    between atoms: C_9  and  C_10
REMARK    5  A    between atoms: C_10  and  O_11
REMARK    6  A    between atoms: C_10  and  C_12
REMARK    7  A    between atoms: C_12  and  O_13
REMARK    8  A    between atoms: O_13  and  C_14
REMARK    9  A    between atoms: C_17  and  C_18
REMARK                            x       y       z     vdW  Elec       q    Type
REMARK                         _______ _______ _______ _____ _____    ______ ____
ROOT
ATOM      1  C   UNL     1       4.892   6.919  17.736  0.00  0.00    +0.000 C 
ENDROOT
BRANCH   1   2
ATOM      2  C   UNL     1       5.560   5.861  16.840  0.00  0.00    +0.000 C 
BRANCH   2   3
ATOM      3  O   UNL     1       5.102   6.062  15.495  0.00  0.00    +0.000 OA
ATOM      4  H   UNL     1       5.584   5.425  14.936  0.00  0.00    +0.000 HD
ENDBRANCH   2   3
BRANCH   2   5
ATOM      5  C   UNL     1       5.221   4.445  17.346  0.00  0.00    +0.000 C 
BRANCH   5   6
ATOM      6  S   UNL     1       4.847   4.412  19.134  0.00  0.00    +0.000 S 
BRANCH   6  13
ATOM      7  C   UNL     1       2.576   4.334  21.491  0.00  0.00    +0.000 C 
ATOM      8  C   UNL     1       2.339   3.593  20.205  0.00  0.00    +0.000 A 
ATOM      9  C   UNL     1       1.096   2.948  20.042  0.00  0.00    +0.000 A 
ATOM     10  C   UNL     1       0.778   2.280  18.860  0.00  0.00    +0.000 A 
ATOM     11  C   UNL     1       1.701   2.235  17.823  0.00  0.00    +0.000 A 
ATOM     12  C   UNL     1       2.939   2.862  17.969  0.00  0.00    +0.000 A 
ATOM     13  C   UNL     1       3.276   3.543  19.153  0.00  0.00    +0.000 A 
ENDBRANCH   6  13
ENDBRANCH   5   6
ENDBRANCH   2   5
ENDBRANCH   1   2
BRANCH   1  14
ATOM     14  O   UNL     1       3.526   7.048  17.312  0.00  0.00    +0.000 OA
BRANCH  14  15
ATOM     15  C   UNL     1       2.706   7.781  18.118  0.00  0.00    +0.000 A 
ATOM     16  C   UNL     1       2.527   7.270  19.398  0.00  0.00    +0.000 A 
ATOM     17  C   UNL     1       1.712   7.935  20.321  0.00  0.00    +0.000 A 
ATOM     18  C   UNL     1       1.083   9.151  20.001  0.00  0.00    +0.000 A 
ATOM     19  C   UNL     1       1.308   9.663  18.711  0.00  0.00    +0.000 A 
ATOM     20  C   UNL     1       2.103   8.986  17.775  0.00  0.00    +0.000 A 
BRANCH  18  21
ATOM     21  C   UNL     1       0.217   9.850  20.981  0.00  0.00    +0.000 A 
ATOM     22  C   UNL     1      -0.448  11.046  20.652  0.00  0.00    +0.000 A 
ATOM     23  C   UNL     1      -1.228  11.731  21.589  0.00  0.00    +0.000 A 
ATOM     24  C   UNL     1      -1.378  11.223  22.874  0.00  0.00    +0.000 A 
ATOM     25  C   UNL     1      -0.752  10.032  23.224  0.00  0.00    +0.000 A 
ATOM     26  C   UNL     1       0.040   9.357  22.288  0.00  0.00    +0.000 A 
ENDBRANCH  18  21
ENDBRANCH  14  15
ENDBRANCH   1  14
TORSDOF 8
ENDMDL
MODEL 6
REMARK VINA RESULT:      -7.0      1.089      1.201
REMARK  Name = 
REMARK  9 active torsions:
REMARK  status: ('A' for Active; 'I' for Inactive)
REMARK    1  A    between atoms: C_1  and  C_2
REMARK    2  A    between atoms: C_7  and  S_8
REMARK    3  A    between atoms: S_8  and  C_9
REMARK    4  A    between atoms: C_9  and  C_10
REMARK    5  A    between atoms: C_10  and  O_11
REMARK    6  A    between atoms: C_10  and  C_12
REMARK    7  A    between atoms: C_12  and  O_13
REMARK    8  A    between atoms: O_13  and  C_14
REMARK    9  A    between atoms: C_17  and  C_18
REMARK                            x       y       z     vdW  Elec       q    Type
REMARK                         _______ _______ _______ _____ _____    ______ ____
ROOT
ATOM      1  C   UNL     1       4.686   6.189  17.838  0.00  0.00    +0.000 C 
ENDROOT
BRANCH   1   2
ATOM      2  C   UNL     1       5.296   5.247  18.890  0.00  0.00    +0.000 C 
BRANCH   2   3
ATOM      3  O   UNL     1       6.598   5.744  19.233  0.00  0.00    +0.000 OA
ATOM      4  H   UNL     1       6.528   6.716  19.268  0.00  0.00    +0.000 HD
ENDBRANCH   2   3
BRANCH   2   5
ATOM      5  C   UNL     1       5.369   3.809  18.339  0.00  0.00    +0.000 C 
BRANCH   5   6
ATOM      6  S   UNL     1       4.918   2.556  19.590  0.00  0.00    +0.000 S 
BRANCH   6  13
ATOM      7  C   UNL     1       2.577   2.622  17.302  0.00  0.00    +0.000 C 
ATOM      8  C   UNL     1       2.215   2.843  18.744  0.00  0.00    +0.000 A 
ATOM      9  C   UNL     1       0.850   2.999  19.059  0.00  0.00    +0.000 A 
ATOM     10  C   UNL     1       0.425   3.160  20.376  0.00  0.00    +0.000 A 
ATOM     11  C   UNL     1       1.359   3.179  21.404  0.00  0.00    +0.000 A 
ATOM     12  C   UNL     1       2.715   3.034  21.112  0.00  0.00    +0.000 A 
ATOM     13  C   UNL     1       3.162   2.867  19.788  0.00  0.00    +0.000 A 
ENDBRANCH   6  13
ENDBRANCH   5   6
ENDBRANCH   2   5
ENDBRANCH   1   2
BRANCH   1  14
ATOM     14  O   UNL     1       3.260   6.027  17.884  0.00  0.00    +0.000 OA
BRANCH  14  15
ATOM     15  C   UNL     1       2.583   6.841  18.742  0.00  0.00    +0.000 A 
ATOM     16  C   UNL     1       2.242   8.087  18.228  0.00  0.00    +0.000 A 
ATOM     17  C   UNL     1       1.540   9.011  19.010  0.00  0.00    +0.000 A 
ATOM     18  C   UNL     1       1.124   8.699  20.317  0.00  0.00    +0.000 A 
ATOM     19  C   UNL     1       1.452   7.421  20.800  0.00  0.00    +0.000 A 
ATOM     20  C   UNL     1       2.178   6.502  20.029  0.00  0.00    +0.000 A 
BRANCH  18  21
ATOM     21  C   UNL     1       0.384   9.683  21.143  0.00  0.00    +0.000 A 
ATOM     22  C   UNL     1       0.251  11.026  20.743  0.00  0.00    +0.000 A 
ATOM     23  C   UNL     1      -0.406  11.967  21.542  0.00  0.00    +0.000 A 
ATOM     24  C   UNL     1      -0.965  11.580  22.754  0.00  0.00    +0.000 A 
ATOM     25  C   UNL     1      -0.871  10.257  23.168  0.00  0.00    +0.000 A 
ATOM     26  C   UNL     1      -0.199   9.321  22.372  0.00  0.00    +0.000 A 
ENDBRANCH  18  21
ENDBRANCH  14  15
ENDBRANCH   1  14
TORSDOF 8
ENDMDL
MODEL 7
REMARK VINA RESULT:      -7.0      0.765      1.572
REMARK  Name = 
REMARK  9 active torsions:
REMARK  status: ('A' for Active; 'I' for Inactive)
REMARK    1  A    between atoms: C_1  and  C_2
REMARK    2  A    between atoms: C_7  and  S_8
REMARK    3  A    between atoms: S_8  and  C_9
REMARK    4  A    between atoms: C_9  and  C_10
REMARK    5  A    between atoms: C_10  and  O_11
REMARK    6  A    between atoms: C_10  and  C_12
REMARK    7  A    between atoms: C_12  and  O_13
REMARK    8  A    between atoms: O_13  and  C_14
REMARK    9  A    between atoms: C_17  and  C_18
REMARK                            x       y       z     vdW  Elec       q    Type
REMARK                         _______ _______ _______ _____ _____    ______ ____
ROOT
ATOM      1  C   UNL     1       4.897   6.891  17.291  0.00  0.00    +0.000 C 
ENDROOT
BRANCH   1   2
ATOM      2  C   UNL     1       5.805   5.688  17.602  0.00  0.00    +0.000 C 
BRANCH   2   3
ATOM      3  O   UNL     1       6.877   5.679  16.649  0.00  0.00    +0.000 OA
ATOM      4  H   UNL     1       7.161   6.606  16.536  0.00  0.00    +0.000 HD
ENDBRANCH   2   3
BRANCH   2   5
ATOM      5  C   UNL     1       4.991   4.380  17.547  0.00  0.00    +0.000 C 
BRANCH   5   6
ATOM      6  S   UNL     1       5.035   3.462  19.126  0.00  0.00    +0.000 S 
BRANCH   6  13
ATOM      7  C   UNL     1       2.488   2.870  17.156  0.00  0.00    +0.000 C 
ATOM      8  C   UNL     1       2.257   3.085  18.626  0.00  0.00    +0.000 A 
ATOM      9  C   UNL     1       0.940   2.947  19.107  0.00  0.00    +0.000 A 
ATOM     10  C   UNL     1       0.648   3.082  20.464  0.00  0.00    +0.000 A 
ATOM     11  C   UNL     1       1.667   3.369  21.363  0.00  0.00    +0.000 A 
ATOM     12  C   UNL     1       2.976   3.517  20.904  0.00  0.00    +0.000 A 
ATOM     13  C   UNL     1       3.289   3.381  19.539  0.00  0.00    +0.000 A 
ENDBRANCH   6  13
ENDBRANCH   5   6
ENDBRANCH   2   5
ENDBRANCH   1   2
BRANCH   1  14
ATOM     14  O   UNL     1       3.539   6.478  17.502  0.00  0.00    +0.000 OA
BRANCH  14  15
ATOM     15  C   UNL     1       2.764   7.300  18.265  0.00  0.00    +0.000 A 
ATOM     16  C   UNL     1       2.512   6.845  19.554  0.00  0.00    +0.000 A 
ATOM     17  C   UNL     1       1.734   7.603  20.435  0.00  0.00    +0.000 A 
ATOM     18  C   UNL     1       1.218   8.858  20.065  0.00  0.00    +0.000 A 
ATOM     19  C   UNL     1       1.515   9.309  18.768  0.00  0.00    +0.000 A 
ATOM     20  C   UNL     1       2.273   8.541  17.873  0.00  0.00    +0.000 A 
BRANCH  18  21
ATOM     21  C   UNL     1       0.390   9.655  21.002  0.00  0.00    +0.000 A 
ATOM     22  C   UNL     1       0.190   9.247  22.335  0.00  0.00    +0.000 A 
ATOM     23  C   UNL     1      -0.628   9.972  23.207  0.00  0.00    +0.000 A 
ATOM     24  C   UNL     1      -1.250  11.136  22.771  0.00  0.00    +0.000 A 
ATOM     25  C   UNL     1      -1.055  11.578  21.468  0.00  0.00    +0.000 A 
ATOM     26  C   UNL     1      -0.248  10.841  20.593  0.00  0.00    +0.000 A 
ENDBRANCH  18  21
ENDBRANCH  14  15
ENDBRANCH   1  14
TORSDOF 8
ENDMDL
MODEL 8
REMARK VINA RESULT:      -6.9      0.790      1.603
REMARK  Name = 
REMARK  9 active torsions:
REMARK  status: ('A' for Active; 'I' for Inactive)
REMARK    1  A    between atoms: C_1  and  C_2
REMARK    2  A    between atoms: C_7  and  S_8
REMARK    3  A    between atoms: S_8  and  C_9
REMARK    4  A    between atoms: C_9  and  C_10
REMARK    5  A    between atoms: C_10  and  O_11
REMARK    6  A    between atoms: C_10  and  C_12
REMARK    7  A    between atoms: C_12  and  O_13
REMARK    8  A    between atoms: O_13  and  C_14
REMARK    9  A    between atoms: C_17  and  C_18
REMARK                            x       y       z     vdW  Elec       q    Type
REMARK                         _______ _______ _______ _____ _____    ______ ____
ROOT
ATOM      1  C   UNL     1       3.773   6.302  18.455  0.00  0.00    +0.000 C 
ENDROOT
BRANCH   1   2
ATOM      2  C   UNL     1       5.092   5.877  17.787  0.00  0.00    +0.000 C 
BRANCH   2   3
ATOM      3  O   UNL     1       4.907   5.922  16.364  0.00  0.00    +0.000 OA
ATOM      4  H   UNL     1       4.075   6.405  16.204  0.00  0.00    +0.000 HD
ENDBRANCH   2   3
BRANCH   2   5
ATOM      5  C   UNL     1       5.497   4.466  18.258  0.00  0.00    +0.000 C 
BRANCH   5   6
ATOM      6  S   UNL     1       4.315   3.182  17.716  0.00  0.00    +0.000 S 
BRANCH   6  13
ATOM      7  C   UNL     1       1.161   4.057  17.636  0.00  0.00    +0.000 C 
ATOM      8  C   UNL     1       1.766   3.570  18.923  0.00  0.00    +0.000 A 
ATOM      9  C   UNL     1       0.914   3.442  20.038  0.00  0.00    +0.000 A 
ATOM     10  C   UNL     1       1.384   2.952  21.256  0.00  0.00    +0.000 A 
ATOM     11  C   UNL     1       2.719   2.591  21.384  0.00  0.00    +0.000 A 
ATOM     12  C   UNL     1       3.580   2.718  20.294  0.00  0.00    +0.000 A 
ATOM     13  C   UNL     1       3.122   3.208  19.057  0.00  0.00    +0.000 A 
ENDBRANCH   6  13
ENDBRANCH   5   6
ENDBRANCH   2   5
ENDBRANCH   1   2
BRANCH   1  14
ATOM     14  O   UNL     1       3.270   7.441  17.741  0.00  0.00    +0.000 OA
BRANCH  14  15
ATOM     15  C   UNL     1       2.408   8.251  18.418  0.00  0.00    +0.000 A 
ATOM     16  C   UNL     1       2.081   7.824  19.700  0.00  0.00    +0.000 A 
ATOM     17  C   UNL     1       1.210   8.574  20.497  0.00  0.00    +0.000 A 
ATOM     18  C   UNL     1       0.672   9.794  20.050  0.00  0.00    +0.000 A 
ATOM     19  C   UNL     1       1.045  10.219  18.763  0.00  0.00    +0.000 A 
ATOM     20  C   UNL     1       1.898   9.458  17.951  0.00  0.00    +0.000 A 
BRANCH  18  21
ATOM     21  C   UNL     1      -0.255  10.583  20.897  0.00  0.00    +0.000 A 
ATOM     22  C   UNL     1      -0.392  10.323  22.274  0.00  0.00    +0.000 A 
ATOM     23  C   UNL     1      -1.298  11.034  23.066  0.00  0.00    +0.000 A 
ATOM     24  C   UNL     1      -2.076  12.038  22.503  0.00  0.00    +0.000 A 
ATOM     25  C   UNL     1      -1.949  12.334  21.150  0.00  0.00    +0.000 A 
ATOM     26  C   UNL     1      -1.051  11.610  20.357  0.00  0.00    +0.000 A 
ENDBRANCH  18  21
ENDBRANCH  14  15
ENDBRANCH   1  14
TORSDOF 8
ENDMDL
MODEL 9
REMARK VINA RESULT:      -6.9      2.142      3.799
REMARK  Name = 
REMARK  9 active torsions:
REMARK  status: ('A' for Active; 'I' for Inactive)
REMARK    1  A    between atoms: C_1  and  C_2
REMARK    2  A    between atoms: C_7  and  S_8
REMARK    3  A    between atoms: S_8  and  C_9
REMARK    4  A    between atoms: C_9  and  C_10
REMARK    5  A    between atoms: C_10  and  O_11
REMARK    6  A    between atoms: C_10  and  C_12
REMARK    7  A    between atoms: C_12  and  O_13
REMARK    8  A    between atoms: O_13  and  C_14
REMARK    9  A    between atoms: C_17  and  C_18
REMARK                            x       y       z     vdW  Elec       q    Type
REMARK                         _______ _______ _______ _____ _____    ______ ____
ROOT
ATOM      1  C   UNL     1       1.856   5.082  20.998  0.00  0.00    +0.000 C 
ENDROOT
BRANCH   1   2
ATOM      2  C   UNL     1       1.856   3.663  20.405  0.00  0.00    +0.000 C 
BRANCH   2   3
ATOM      3  O   UNL     1       0.620   3.028  20.766  0.00  0.00    +0.000 OA
ATOM      4  H   UNL     1       0.208   2.722  19.937  0.00  0.00    +0.000 HD
ENDBRANCH   2   3
BRANCH   2   5
ATOM      5  C   UNL     1       3.070   2.868  20.925  0.00  0.00    +0.000 C 
BRANCH   5   6
ATOM      6  S   UNL     1       4.066   2.148  19.572  0.00  0.00    +0.000 S 
BRANCH   6  13
ATOM      7  C   UNL     1       2.701   3.414  16.878  0.00  0.00    +0.000 C 
ATOM      8  C   UNL     1       3.869   4.110  17.518  0.00  0.00    +0.000 A 
ATOM      9  C   UNL     1       4.283   5.336  16.961  0.00  0.00    +0.000 A 
ATOM     10  C   UNL     1       5.327   6.071  17.523  0.00  0.00    +0.000 A 
ATOM     11  C   UNL     1       5.983   5.586  18.647  0.00  0.00    +0.000 A 
ATOM     12  C   UNL     1       5.592   4.370  19.208  0.00  0.00    +0.000 A 
ATOM     13  C   UNL     1       4.539   3.618  18.656  0.00  0.00    +0.000 A 
ENDBRANCH   6  13
ENDBRANCH   5   6
ENDBRANCH   2   5
ENDBRANCH   1   2
BRANCH   1  14
ATOM     14  O   UNL     1       2.568   5.934  20.087  0.00  0.00    +0.000 OA
BRANCH  14  15
ATOM     15  C   UNL     1       2.084   7.199  19.933  0.00  0.00    +0.000 A 
ATOM     16  C   UNL     1       2.278   7.756  18.675  0.00  0.00    +0.000 A 
ATOM     17  C   UNL     1       1.821   9.047  18.391  0.00  0.00    +0.000 A 
ATOM     18  C   UNL     1       1.121   9.804  19.347  0.00  0.00    +0.000 A 
ATOM     19  C   UNL     1       0.909   9.205  20.600  0.00  0.00    +0.000 A 
ATOM     20  C   UNL     1       1.388   7.921  20.897  0.00  0.00    +0.000 A 
BRANCH  18  21
ATOM     21  C   UNL     1       0.643  11.174  19.042  0.00  0.00    +0.000 A 
ATOM     22  C   UNL     1      -0.658  11.407  18.557  0.00  0.00    +0.000 A 
ATOM     23  C   UNL     1      -1.096  12.692  18.224  0.00  0.00    +0.000 A 
ATOM     24  C   UNL     1      -0.248  13.781  18.390  0.00  0.00    +0.000 A 
ATOM     25  C   UNL     1       1.035  13.588  18.889  0.00  0.00    +0.000 A 
ATOM     26  C   UNL     1       1.475  12.297  19.207  0.00  0.00    +0.000 A 
ENDBRANCH  18  21
ENDBRANCH  14  15
ENDBRANCH   1  14
TORSDOF 8
ENDMDL
