MODEL 1
REMARK VINA RESULT:      -8.9      0.000      0.000
REMARK  Name = 
REMARK  4 active torsions:
REMARK  status: ('A' for Active; 'I' for Inactive)
REMARK    1  A    between atoms: C_10  and  C_11
REMARK    2  A    between atoms: N_13  and  N_14
REMARK    3  A    between atoms: C_15  and  C_16
REMARK    4  A    between atoms: C_22  and  C_23
REMARK                            x       y       z     vdW  Elec       q    Type
REMARK                         _______ _______ _______ _____ _____    ______ ____
ROOT
ATOM      1  N   UNL     1       4.870   1.643  20.096  0.00  0.00    +0.000 N 
ATOM      2  C   UNL     1       3.902   2.126  19.300  0.00  0.00    +0.000 A 
ATOM      3  N   UNL     1       2.693   1.578  19.180  0.00  0.00    +0.000 NA
ATOM      4  O   UNL     1       1.980   2.421  18.335  0.00  0.00    +0.000 OA
ATOM      5  N   UNL     1       2.752   3.514  17.943  0.00  0.00    +0.000 NA
ATOM      6  C   UNL     1       3.928   3.314  18.543  0.00  0.00    +0.000 A 
ATOM      7  N   UNL     1       4.986   4.247  18.392  0.00  0.00    +0.000 N 
ATOM      8  N   UNL     1       6.286   3.891  18.596  0.00  0.00    +0.000 NA
ATOM      9  N   UNL     1       7.066   4.890  18.226  0.00  0.00    +0.000 NA
ATOM     10  C   UNL     1       6.273   5.962  17.890  0.00  0.00    +0.000 A 
ATOM     11  C   UNL     1       4.929   5.622  18.101  0.00  0.00    +0.000 A 
ATOM     12  H   UNL     1       4.734   0.762  20.582  0.00  0.00    +0.000 HD
ATOM     13  H   UNL     1       5.819   2.009  20.107  0.00  0.00    +0.000 HD
ENDROOT
BRANCH  11  14
ATOM     14  C   UNL     1       3.747   6.488  18.308  0.00  0.00    +0.000 A 
ATOM     15  C   UNL     1       3.343   7.420  17.349  0.00  0.00    +0.000 A 
ATOM     16  C   UNL     1       2.412   8.419  17.651  0.00  0.00    +0.000 A 
ATOM     17  C   UNL     1       1.791   8.444  18.893  0.00  0.00    +0.000 A 
ATOM     18  C   UNL     1       2.095   7.464  19.828  0.00  0.00    +0.000 A 
ATOM     19  C   UNL     1       3.083   6.517  19.549  0.00  0.00    +0.000 A 
ENDBRANCH  11  14
BRANCH  10  20
ATOM     20  C   UNL     1       6.878   7.246  17.511  0.00  0.00    +0.000 C 
ATOM     21  O   UNL     1       6.428   7.960  16.619  0.00  0.00    +0.000 OA
ATOM     22  N   UNL     1       8.016   7.560  18.233  0.00  0.00    +0.000 N 
ATOM     23  H   UNL     1       8.370   6.899  18.925  0.00  0.00    +0.000 HD
BRANCH  22  24
ATOM     24  N   UNL     1       8.667   8.759  18.016  0.00  0.00    +0.000 NA
ATOM     25  C   UNL     1       8.830   9.503  19.064  0.00  0.00    +0.000 C 
BRANCH  25  26
ATOM     26  C   UNL     1       9.516  10.775  19.001  0.00  0.00    +0.000 A 
ATOM     27  C   UNL     1      10.052  11.449  17.919  0.00  0.00    +0.000 A 
ATOM     28  C   UNL     1      10.680  12.658  18.321  0.00  0.00    +0.000 A 
ATOM     29 BR   UNL     1      11.534  13.808  17.094  0.00  0.00    +0.000 Br
ATOM     30  C   UNL     1      10.604  12.889  19.672  0.00  0.00    +0.000 A 
ATOM     31  S   UNL     1       9.754  11.638  20.466  0.00  0.00    +0.000 S 
ENDBRANCH  25  26
ENDBRANCH  22  24
ENDBRANCH  10  20
TORSDOF 4
ENDMDL
MODEL 2
REMARK VINA RESULT:      -8.0      5.755      8.086
REMARK  Name = 
REMARK  4 active torsions:
REMARK  status: ('A' for Active; 'I' for Inactive)
REMARK    1  A    between atoms: C_10  and  C_11
REMARK    2  A    between atoms: N_13  and  N_14
REMARK    3  A    between atoms: C_15  and  C_16
REMARK    4  A    between atoms: C_22  and  C_23
REMARK                            x       y       z     vdW  Elec       q    Type
REMARK                         _______ _______ _______ _____ _____    ______ ____
ROOT
ATOM      1  N   UNL     1       7.301   6.073  16.516  0.00  0.00    +0.000 N 
ATOM      2  C   UNL     1       6.339   5.151  16.340  0.00  0.00    +0.000 A 
ATOM      3  N   UNL     1       6.563   3.920  15.880  0.00  0.00    +0.000 NA
ATOM      4  O   UNL     1       5.334   3.272  15.928  0.00  0.00    +0.000 OA
ATOM      5  N   UNL     1       4.342   4.106  16.442  0.00  0.00    +0.000 NA
ATOM      6  C   UNL     1       4.978   5.255  16.686  0.00  0.00    +0.000 A 
ATOM      7  N   UNL     1       4.286   6.361  17.243  0.00  0.00    +0.000 N 
ATOM      8  N   UNL     1       4.747   7.637  17.099  0.00  0.00    +0.000 NA
ATOM      9  N   UNL     1       3.835   8.474  17.559  0.00  0.00    +0.000 NA
ATOM     10  C   UNL     1       2.817   7.744  18.124  0.00  0.00    +0.000 A 
ATOM     11  C   UNL     1       3.131   6.380  18.046  0.00  0.00    +0.000 A 
ATOM     12  H   UNL     1       8.249   5.881  16.210  0.00  0.00    +0.000 HD
ATOM     13  H   UNL     1       7.109   7.038  16.772  0.00  0.00    +0.000 HD
ENDROOT
BRANCH  11  14
ATOM     14  C   UNL     1       2.628   5.238  18.839  0.00  0.00    +0.000 A 
ATOM     15  C   UNL     1       1.655   4.369  18.339  0.00  0.00    +0.000 A 
ATOM     16  C   UNL     1       0.982   3.471  19.174  0.00  0.00    +0.000 A 
ATOM     17  C   UNL     1       1.342   3.354  20.510  0.00  0.00    +0.000 A 
ATOM     18  C   UNL     1       2.380   4.130  21.008  0.00  0.00    +0.000 A 
ATOM     19  C   UNL     1       2.993   5.082  20.189  0.00  0.00    +0.000 A 
ENDBRANCH  11  14
BRANCH  10  20
ATOM     20  C   UNL     1       1.695   8.422  18.788  0.00  0.00    +0.000 C 
ATOM     21  O   UNL     1       1.427   8.263  19.976  0.00  0.00    +0.000 OA
ATOM     22  N   UNL     1       0.955   9.232  17.945  0.00  0.00    +0.000 N 
ATOM     23  H   UNL     1       1.197   9.280  16.955  0.00  0.00    +0.000 HD
BRANCH  22  24
ATOM     24  N   UNL     1      -0.104   9.968  18.441  0.00  0.00    +0.000 NA
ATOM     25  C   UNL     1      -1.180   9.951  17.722  0.00  0.00    +0.000 C 
BRANCH  25  26
ATOM     26  C   UNL     1      -2.380  10.652  18.122  0.00  0.00    +0.000 A 
ATOM     27  C   UNL     1      -3.691  10.487  17.715  0.00  0.00    +0.000 A 
ATOM     28  C   UNL     1      -4.551  11.429  18.339  0.00  0.00    +0.000 A 
ATOM     29 BR   UNL     1      -6.403  11.494  17.985  0.00  0.00    +0.000 Br
ATOM     30  C   UNL     1      -3.900  12.273  19.204  0.00  0.00    +0.000 A 
ATOM     31  S   UNL     1      -2.231  11.917  19.274  0.00  0.00    +0.000 S 
ENDBRANCH  25  26
ENDBRANCH  22  24
ENDBRANCH  10  20
TORSDOF 4
ENDMDL
MODEL 3
REMARK VINA RESULT:      -8.0      5.154     10.447
REMARK  Name = 
REMARK  4 active torsions:
REMARK  status: ('A' for Active; 'I' for Inactive)
REMARK    1  A    between atoms: C_10  and  C_11
REMARK    2  A    between atoms: N_13  and  N_14
REMARK    3  A    between atoms: C_15  and  C_16
REMARK    4  A    between atoms: C_22  and  C_23
REMARK                            x       y       z     vdW  Elec       q    Type
REMARK                         _______ _______ _______ _____ _____    ______ ____
ROOT
ATOM      1  N   UNL     1      10.863  16.244  16.057  0.00  0.00    +0.000 N 
ATOM      2  C   UNL     1      11.159  16.370  17.362  0.00  0.00    +0.000 A 
ATOM      3  N   UNL     1      11.574  17.504  17.925  0.00  0.00    +0.000 NA
ATOM      4  O   UNL     1      11.686  17.230  19.284  0.00  0.00    +0.000 OA
ATOM      5  N   UNL     1      11.316  15.915  19.566  0.00  0.00    +0.000 NA
ATOM      6  C   UNL     1      10.999  15.403  18.374  0.00  0.00    +0.000 A 
ATOM      7  N   UNL     1      10.549  14.063  18.259  0.00  0.00    +0.000 N 
ATOM      8  N   UNL     1      10.639  13.379  17.082  0.00  0.00    +0.000 NA
ATOM      9  N   UNL     1      10.313  12.117  17.296  0.00  0.00    +0.000 NA
ATOM     10  C   UNL     1       9.883  11.991  18.596  0.00  0.00    +0.000 A 
ATOM     11  C   UNL     1       9.907  13.251  19.211  0.00  0.00    +0.000 A 
ATOM     12  H   UNL     1      11.038  17.015  15.421  0.00  0.00    +0.000 HD
ATOM     13  H   UNL     1      10.643  15.353  15.618  0.00  0.00    +0.000 HD
ENDROOT
BRANCH  11  14
ATOM     14  C   UNL     1       9.179  13.746  20.400  0.00  0.00    +0.000 A 
ATOM     15  C   UNL     1       9.649  13.520  21.696  0.00  0.00    +0.000 A 
ATOM     16  C   UNL     1       8.836  13.737  22.813  0.00  0.00    +0.000 A 
ATOM     17  C   UNL     1       7.567  14.281  22.661  0.00  0.00    +0.000 A 
ATOM     18  C   UNL     1       7.116  14.616  21.392  0.00  0.00    +0.000 A 
ATOM     19  C   UNL     1       7.901  14.323  20.273  0.00  0.00    +0.000 A 
ENDBRANCH  11  14
BRANCH  10  20
ATOM     20  C   UNL     1       9.380  10.703  19.092  0.00  0.00    +0.000 C 
ATOM     21  O   UNL     1       9.415  10.384  20.278  0.00  0.00    +0.000 OA
ATOM     22  N   UNL     1       8.891   9.875  18.097  0.00  0.00    +0.000 N 
ATOM     23  H   UNL     1       8.940  10.177  17.124  0.00  0.00    +0.000 HD
BRANCH  22  24
ATOM     24  N   UNL     1       8.344   8.648  18.421  0.00  0.00    +0.000 NA
ATOM     25  C   UNL     1       7.600   8.112  17.507  0.00  0.00    +0.000 C 
BRANCH  25  26
ATOM     26  C   UNL     1       6.978   6.818  17.688  0.00  0.00    +0.000 A 
ATOM     27  C   UNL     1       5.926   6.229  17.012  0.00  0.00    +0.000 A 
ATOM     28  C   UNL     1       5.610   4.954  17.553  0.00  0.00    +0.000 A 
ATOM     29 BR   UNL     1       4.206   3.891  16.878  0.00  0.00    +0.000 Br
ATOM     30  C   UNL     1       6.417   4.592  18.603  0.00  0.00    +0.000 A 
ATOM     31  S   UNL     1       7.579   5.800  18.933  0.00  0.00    +0.000 S 
ENDBRANCH  25  26
ENDBRANCH  22  24
ENDBRANCH  10  20
TORSDOF 4
ENDMDL
MODEL 4
REMARK VINA RESULT:      -8.0      1.184      1.545
REMARK  Name = 
REMARK  4 active torsions:
REMARK  status: ('A' for Active; 'I' for Inactive)
REMARK    1  A    between atoms: C_10  and  C_11
REMARK    2  A    between atoms: N_13  and  N_14
REMARK    3  A    between atoms: C_15  and  C_16
REMARK    4  A    between atoms: C_22  and  C_23
REMARK                            x       y       z     vdW  Elec       q    Type
REMARK                         _______ _______ _______ _____ _____    ______ ____
ROOT
ATOM      1  N   UNL     1       3.283   1.279  18.687  0.00  0.00    +0.000 N 
ATOM      2  C   UNL     1       2.444   2.218  18.217  0.00  0.00    +0.000 A 
ATOM      3  N   UNL     1       1.116   2.131  18.284  0.00  0.00    +0.000 NA
ATOM      4  O   UNL     1       0.635   3.330  17.768  0.00  0.00    +0.000 OA
ATOM      5  N   UNL     1       1.679   4.175  17.396  0.00  0.00    +0.000 NA
ATOM      6  C   UNL     1       2.781   3.474  17.677  0.00  0.00    +0.000 A 
ATOM      7  N   UNL     1       4.068   4.025  17.446  0.00  0.00    +0.000 N 
ATOM      8  N   UNL     1       5.167   3.232  17.293  0.00  0.00    +0.000 NA
ATOM      9  N   UNL     1       6.187   3.984  16.923  0.00  0.00    +0.000 NA
ATOM     10  C   UNL     1       5.794   5.301  16.953  0.00  0.00    +0.000 A 
ATOM     11  C   UNL     1       4.467   5.373  17.402  0.00  0.00    +0.000 A 
ATOM     12  H   UNL     1       2.914   0.402  19.042  0.00  0.00    +0.000 HD
ATOM     13  H   UNL     1       4.289   1.306  18.544  0.00  0.00    +0.000 HD
ENDROOT
BRANCH  11  14
ATOM     14  C   UNL     1       3.725   6.501  18.006  0.00  0.00    +0.000 A 
ATOM     15  C   UNL     1       3.238   6.442  19.314  0.00  0.00    +0.000 A 
ATOM     16  C   UNL     1       2.310   7.375  19.788  0.00  0.00    +0.000 A 
ATOM     17  C   UNL     1       1.925   8.446  18.992  0.00  0.00    +0.000 A 
ATOM     18  C   UNL     1       2.476   8.588  17.726  0.00  0.00    +0.000 A 
ATOM     19  C   UNL     1       3.341   7.610  17.229  0.00  0.00    +0.000 A 
ENDBRANCH  11  14
BRANCH  10  20
ATOM     20  C   UNL     1       6.756   6.372  16.661  0.00  0.00    +0.000 C 
ATOM     21  O   UNL     1       7.332   6.477  15.581  0.00  0.00    +0.000 OA
ATOM     22  N   UNL     1       6.973   7.231  17.724  0.00  0.00    +0.000 N 
ATOM     23  H   UNL     1       6.504   7.058  18.613  0.00  0.00    +0.000 HD
BRANCH  22  24
ATOM     24  N   UNL     1       7.820   8.313  17.581  0.00  0.00    +0.000 NA
ATOM     25  C   UNL     1       8.122   8.933  18.677  0.00  0.00    +0.000 C 
BRANCH  25  26
ATOM     26  C   UNL     1       9.018  10.069  18.691  0.00  0.00    +0.000 A 
ATOM     27  C   UNL     1       9.557  10.796  17.646  0.00  0.00    +0.000 A 
ATOM     28  C   UNL     1      10.430  11.812  18.118  0.00  0.00    +0.000 A 
ATOM     29 BR   UNL     1      11.352  12.973  16.950  0.00  0.00    +0.000 Br
ATOM     30  C   UNL     1      10.533  11.852  19.486  0.00  0.00    +0.000 A 
ATOM     31  S   UNL     1       9.554  10.655  20.213  0.00  0.00    +0.000 S 
ENDBRANCH  25  26
ENDBRANCH  22  24
ENDBRANCH  10  20
TORSDOF 4
ENDMDL
MODEL 5
REMARK VINA RESULT:      -7.9      1.014      1.451
REMARK  Name = 
REMARK  4 active torsions:
REMARK  status: ('A' for Active; 'I' for Inactive)
REMARK    1  A    between atoms: C_10  and  C_11
REMARK    2  A    between atoms: N_13  and  N_14
REMARK    3  A    between atoms: C_15  and  C_16
REMARK    4  A    between atoms: C_22  and  C_23
REMARK                            x       y       z     vdW  Elec       q    Type
REMARK                         _______ _______ _______ _____ _____    ______ ____
ROOT
ATOM      1  N   UNL     1       5.081   1.807  20.025  0.00  0.00    +0.000 N 
ATOM      2  C   UNL     1       4.110   2.336  19.261  0.00  0.00    +0.000 A 
ATOM      3  N   UNL     1       2.890   1.814  19.141  0.00  0.00    +0.000 NA
ATOM      4  O   UNL     1       2.180   2.700  18.338  0.00  0.00    +0.000 OA
ATOM      5  N   UNL     1       2.966   3.793  17.974  0.00  0.00    +0.000 NA
ATOM      6  C   UNL     1       4.147   3.550  18.548  0.00  0.00    +0.000 A 
ATOM      7  N   UNL     1       5.219   4.469  18.415  0.00  0.00    +0.000 N 
ATOM      8  N   UNL     1       6.516   4.083  18.586  0.00  0.00    +0.000 NA
ATOM      9  N   UNL     1       7.308   5.081  18.239  0.00  0.00    +0.000 NA
ATOM     10  C   UNL     1       6.530   6.178  17.955  0.00  0.00    +0.000 A 
ATOM     11  C   UNL     1       5.183   5.855  18.175  0.00  0.00    +0.000 A 
ATOM     12  H   UNL     1       4.936   0.912  20.481  0.00  0.00    +0.000 HD
ATOM     13  H   UNL     1       6.036   2.155  20.034  0.00  0.00    +0.000 HD
ENDROOT
BRANCH  11  14
ATOM     14  C   UNL     1       4.021   6.733  18.431  0.00  0.00    +0.000 A 
ATOM     15  C   UNL     1       3.289   6.654  19.618  0.00  0.00    +0.000 A 
ATOM     16  C   UNL     1       2.042   7.274  19.748  0.00  0.00    +0.000 A 
ATOM     17  C   UNL     1       1.547   8.071  18.724  0.00  0.00    +0.000 A 
ATOM     18  C   UNL     1       2.305   8.255  17.575  0.00  0.00    +0.000 A 
ATOM     19  C   UNL     1       3.512   7.569  17.420  0.00  0.00    +0.000 A 
ENDBRANCH  11  14
BRANCH  10  20
ATOM     20  C   UNL     1       7.153   7.464  17.614  0.00  0.00    +0.000 C 
ATOM     21  O   UNL     1       6.849   8.109  16.614  0.00  0.00    +0.000 OA
ATOM     22  N   UNL     1       8.131   7.864  18.507  0.00  0.00    +0.000 N 
ATOM     23  H   UNL     1       8.375   7.256  19.289  0.00  0.00    +0.000 HD
BRANCH  22  24
ATOM     24  N   UNL     1       8.773   9.076  18.338  0.00  0.00    +0.000 NA
ATOM     25  C   UNL     1       9.013   9.736  19.426  0.00  0.00    +0.000 C 
BRANCH  25  26
ATOM     26  C   UNL     1       9.701  11.008  19.413  0.00  0.00    +0.000 A 
ATOM     27  C   UNL     1       9.681  12.045  20.328  0.00  0.00    +0.000 A 
ATOM     28  C   UNL     1      10.478  13.136  19.892  0.00  0.00    +0.000 A 
ATOM     29 BR   UNL     1      10.650  14.724  20.897  0.00  0.00    +0.000 Br
ATOM     30  C   UNL     1      11.091  12.917  18.684  0.00  0.00    +0.000 A 
ATOM     31  S   UNL     1      10.709  11.369  18.071  0.00  0.00    +0.000 S 
ENDBRANCH  25  26
ENDBRANCH  22  24
ENDBRANCH  10  20
TORSDOF 4
ENDMDL
MODEL 6
REMARK VINA RESULT:      -7.9      1.438      1.508
REMARK  Name = 
REMARK  4 active torsions:
REMARK  status: ('A' for Active; 'I' for Inactive)
REMARK    1  A    between atoms: C_10  and  C_11
REMARK    2  A    between atoms: N_13  and  N_14
REMARK    3  A    between atoms: C_15  and  C_16
REMARK    4  A    between atoms: C_22  and  C_23
REMARK                            x       y       z     vdW  Elec       q    Type
REMARK                         _______ _______ _______ _____ _____    ______ ____
ROOT
ATOM      1  N   UNL     1       3.808   1.149  18.752  0.00  0.00    +0.000 N 
ATOM      2  C   UNL     1       2.741   1.892  18.413  0.00  0.00    +0.000 A 
ATOM      3  N   UNL     1       1.478   1.510  18.601  0.00  0.00    +0.000 NA
ATOM      4  O   UNL     1       0.696   2.587  18.198  0.00  0.00    +0.000 OA
ATOM      5  N   UNL     1       1.486   3.655  17.773  0.00  0.00    +0.000 NA
ATOM      6  C   UNL     1       2.737   3.208  17.911  0.00  0.00    +0.000 A 
ATOM      7  N   UNL     1       3.841   4.038  17.589  0.00  0.00    +0.000 N 
ATOM      8  N   UNL     1       5.065   3.514  17.290  0.00  0.00    +0.000 NA
ATOM      9  N   UNL     1       5.853   4.485  16.867  0.00  0.00    +0.000 NA
ATOM     10  C   UNL     1       5.187   5.680  17.003  0.00  0.00    +0.000 A 
ATOM     11  C   UNL     1       3.931   5.442  17.579  0.00  0.00    +0.000 A 
ATOM     12  H   UNL     1       3.678   0.202  19.093  0.00  0.00    +0.000 HD
ATOM     13  H   UNL     1       4.764   1.404  18.515  0.00  0.00    +0.000 HD
ENDROOT
BRANCH  11  14
ATOM     14  C   UNL     1       3.027   6.358  18.309  0.00  0.00    +0.000 A 
ATOM     15  C   UNL     1       2.522   7.518  17.717  0.00  0.00    +0.000 A 
ATOM     16  C   UNL     1       1.905   8.515  18.479  0.00  0.00    +0.000 A 
ATOM     17  C   UNL     1       1.692   8.326  19.838  0.00  0.00    +0.000 A 
ATOM     18  C   UNL     1       2.087   7.135  20.432  0.00  0.00    +0.000 A 
ATOM     19  C   UNL     1       2.774   6.177  19.682  0.00  0.00    +0.000 A 
ENDBRANCH  11  14
BRANCH  10  20
ATOM     20  C   UNL     1       5.857   6.947  16.678  0.00  0.00    +0.000 C 
ATOM     21  O   UNL     1       5.503   7.672  15.752  0.00  0.00    +0.000 OA
ATOM     22  N   UNL     1       6.937   7.231  17.495  0.00  0.00    +0.000 N 
ATOM     23  H   UNL     1       7.213   6.561  18.213  0.00  0.00    +0.000 HD
BRANCH  22  24
ATOM     24  N   UNL     1       7.636   8.412  17.336  0.00  0.00    +0.000 NA
ATOM     25  C   UNL     1       8.129   8.919  18.421  0.00  0.00    +0.000 C 
BRANCH  25  26
ATOM     26  C   UNL     1       8.907  10.138  18.411  0.00  0.00    +0.000 A 
ATOM     27  C   UNL     1      10.104  10.439  19.034  0.00  0.00    +0.000 A 
ATOM     28  C   UNL     1      10.493  11.783  18.788  0.00  0.00    +0.000 A 
ATOM     29 BR   UNL     1      12.068  12.527  19.512  0.00  0.00    +0.000 Br
ATOM     30  C   UNL     1       9.612  12.469  17.989  0.00  0.00    +0.000 A 
ATOM     31  S   UNL     1       8.304  11.475  17.519  0.00  0.00    +0.000 S 
ENDBRANCH  25  26
ENDBRANCH  22  24
ENDBRANCH  10  20
TORSDOF 4
ENDMDL
MODEL 7
REMARK VINA RESULT:      -7.8      5.450      7.249
REMARK  Name = 
REMARK  4 active torsions:
REMARK  status: ('A' for Active; 'I' for Inactive)
REMARK    1  A    between atoms: C_10  and  C_11
REMARK    2  A    between atoms: N_13  and  N_14
REMARK    3  A    between atoms: C_15  and  C_16
REMARK    4  A    between atoms: C_22  and  C_23
REMARK                            x       y       z     vdW  Elec       q    Type
REMARK                         _______ _______ _______ _____ _____    ______ ____
ROOT
ATOM      1  N   UNL     1       7.623   6.014  15.827  0.00  0.00    +0.000 N 
ATOM      2  C   UNL     1       6.645   5.194  15.406  0.00  0.00    +0.000 A 
ATOM      3  N   UNL     1       6.823   4.221  14.513  0.00  0.00    +0.000 NA
ATOM      4  O   UNL     1       5.599   3.567  14.422  0.00  0.00    +0.000 OA
ATOM      5  N   UNL     1       4.659   4.131  15.283  0.00  0.00    +0.000 NA
ATOM      6  C   UNL     1       5.320   5.129  15.876  0.00  0.00    +0.000 A 
ATOM      7  N   UNL     1       4.683   5.939  16.852  0.00  0.00    +0.000 N 
ATOM      8  N   UNL     1       5.137   7.191  17.146  0.00  0.00    +0.000 NA
ATOM      9  N   UNL     1       4.272   7.780  17.952  0.00  0.00    +0.000 NA
ATOM     10  C   UNL     1       3.302   6.868  18.294  0.00  0.00    +0.000 A 
ATOM     11  C   UNL     1       3.602   5.634  17.698  0.00  0.00    +0.000 A 
ATOM     12  H   UNL     1       8.541   5.971  15.396  0.00  0.00    +0.000 HD
ATOM     13  H   UNL     1       7.459   6.815  16.432  0.00  0.00    +0.000 HD
ENDROOT
BRANCH  11  14
ATOM     14  C   UNL     1       3.162   4.269  18.060  0.00  0.00    +0.000 A 
ATOM     15  C   UNL     1       1.877   3.809  17.762  0.00  0.00    +0.000 A 
ATOM     16  C   UNL     1       1.370   2.640  18.339  0.00  0.00    +0.000 A 
ATOM     17  C   UNL     1       2.178   1.853  19.150  0.00  0.00    +0.000 A 
ATOM     18  C   UNL     1       3.494   2.231  19.375  0.00  0.00    +0.000 A 
ATOM     19  C   UNL     1       3.970   3.440  18.861  0.00  0.00    +0.000 A 
ENDBRANCH  11  14
BRANCH  10  20
ATOM     20  C   UNL     1       2.245   7.228  19.248  0.00  0.00    +0.000 C 
ATOM     21  O   UNL     1       1.843   6.463  20.121  0.00  0.00    +0.000 OA
ATOM     22  N   UNL     1       1.727   8.497  19.054  0.00  0.00    +0.000 N 
ATOM     23  H   UNL     1       2.067   9.064  18.277  0.00  0.00    +0.000 HD
BRANCH  22  24
ATOM     24  N   UNL     1       0.757   8.989  19.906  0.00  0.00    +0.000 NA
ATOM     25  C   UNL     1       0.939  10.204  20.315  0.00  0.00    +0.000 C 
BRANCH  25  26
ATOM     26  C   UNL     1      -0.004  10.866  21.190  0.00  0.00    +0.000 A 
ATOM     27  C   UNL     1      -0.680  12.062  21.035  0.00  0.00    +0.000 A 
ATOM     28  C   UNL     1      -1.480  12.356  22.171  0.00  0.00    +0.000 A 
ATOM     29 BR   UNL     1      -2.516  13.929  22.295  0.00  0.00    +0.000 Br
ATOM     30  C   UNL     1      -1.414  11.396  23.149  0.00  0.00    +0.000 A 
ATOM     31  S   UNL     1      -0.381  10.115  22.687  0.00  0.00    +0.000 S 
ENDBRANCH  25  26
ENDBRANCH  22  24
ENDBRANCH  10  20
TORSDOF 4
ENDMDL
MODEL 8
REMARK VINA RESULT:      -7.8      5.585      7.418
REMARK  Name = 
REMARK  4 active torsions:
REMARK  status: ('A' for Active; 'I' for Inactive)
REMARK    1  A    between atoms: C_10  and  C_11
REMARK    2  A    between atoms: N_13  and  N_14
REMARK    3  A    between atoms: C_15  and  C_16
REMARK    4  A    between atoms: C_22  and  C_23
REMARK                            x       y       z     vdW  Elec       q    Type
REMARK                         _______ _______ _______ _____ _____    ______ ____
ROOT
ATOM      1  N   UNL     1       7.608   5.916  15.913  0.00  0.00    +0.000 N 
ATOM      2  C   UNL     1       6.617   5.082  15.555  0.00  0.00    +0.000 A 
ATOM      3  N   UNL     1       6.783   4.028  14.757  0.00  0.00    +0.000 NA
ATOM      4  O   UNL     1       5.546   3.395  14.709  0.00  0.00    +0.000 OA
ATOM      5  N   UNL     1       4.609   4.056  15.502  0.00  0.00    +0.000 NA
ATOM      6  C   UNL     1       5.285   5.090  16.011  0.00  0.00    +0.000 A 
ATOM      7  N   UNL     1       4.655   5.999  16.900  0.00  0.00    +0.000 N 
ATOM      8  N   UNL     1       5.134   7.263  17.085  0.00  0.00    +0.000 NA
ATOM      9  N   UNL     1       4.273   7.941  17.821  0.00  0.00    +0.000 NA
ATOM     10  C   UNL     1       3.278   7.085  18.231  0.00  0.00    +0.000 A 
ATOM     11  C   UNL     1       3.557   5.796  17.755  0.00  0.00    +0.000 A 
ATOM     12  H   UNL     1       8.530   5.815  15.500  0.00  0.00    +0.000 HD
ATOM     13  H   UNL     1       7.455   6.772  16.440  0.00  0.00    +0.000 HD
ENDROOT
BRANCH  11  14
ATOM     14  C   UNL     1       3.082   4.479  18.233  0.00  0.00    +0.000 A 
ATOM     15  C   UNL     1       1.841   3.963  17.851  0.00  0.00    +0.000 A 
ATOM     16  C   UNL     1       1.274   2.867  18.509  0.00  0.00    +0.000 A 
ATOM     17  C   UNL     1       1.985   2.202  19.500  0.00  0.00    +0.000 A 
ATOM     18  C   UNL     1       3.265   2.628  19.824  0.00  0.00    +0.000 A 
ATOM     19  C   UNL     1       3.794   3.771  19.219  0.00  0.00    +0.000 A 
ENDBRANCH  11  14
BRANCH  10  20
ATOM     20  C   UNL     1       2.218   7.554  19.134  0.00  0.00    +0.000 C 
ATOM     21  O   UNL     1       1.850   6.918  20.119  0.00  0.00    +0.000 OA
ATOM     22  N   UNL     1       1.657   8.761  18.756  0.00  0.00    +0.000 N 
ATOM     23  H   UNL     1       1.971   9.213  17.897  0.00  0.00    +0.000 HD
BRANCH  22  24
ATOM     24  N   UNL     1       0.679   9.347  19.536  0.00  0.00    +0.000 NA
ATOM     25  C   UNL     1       0.342  10.550  19.197  0.00  0.00    +0.000 C 
BRANCH  25  26
ATOM     26  C   UNL     1      -0.685  11.285  19.901  0.00  0.00    +0.000 A 
ATOM     27  C   UNL     1      -0.841  11.532  21.253  0.00  0.00    +0.000 A 
ATOM     28  C   UNL     1      -2.028  12.267  21.512  0.00  0.00    +0.000 A 
ATOM     29 BR   UNL     1      -2.554  12.750  23.259  0.00  0.00    +0.000 Br
ATOM     30  C   UNL     1      -2.739  12.574  20.379  0.00  0.00    +0.000 A 
ATOM     31  S   UNL     1      -1.958  11.978  18.981  0.00  0.00    +0.000 S 
ENDBRANCH  25  26
ENDBRANCH  22  24
ENDBRANCH  10  20
TORSDOF 4
ENDMDL
MODEL 9
REMARK VINA RESULT:      -7.8      5.470      7.423
REMARK  Name = 
REMARK  4 active torsions:
REMARK  status: ('A' for Active; 'I' for Inactive)
REMARK    1  A    between atoms: C_10  and  C_11
REMARK    2  A    between atoms: N_13  and  N_14
REMARK    3  A    between atoms: C_15  and  C_16
REMARK    4  A    between atoms: C_22  and  C_23
REMARK                            x       y       z     vdW  Elec       q    Type
REMARK                         _______ _______ _______ _____ _____    ______ ____
ROOT
ATOM      1  N   UNL     1       7.640   6.134  15.776  0.00  0.00    +0.000 N 
ATOM      2  C   UNL     1       6.716   5.220  15.433  0.00  0.00    +0.000 A 
ATOM      3  N   UNL     1       6.934   4.231  14.566  0.00  0.00    +0.000 NA
ATOM      4  O   UNL     1       5.767   3.475  14.558  0.00  0.00    +0.000 OA
ATOM      5  N   UNL     1       4.824   3.993  15.444  0.00  0.00    +0.000 NA
ATOM      6  C   UNL     1       5.424   5.064  15.969  0.00  0.00    +0.000 A 
ATOM      7  N   UNL     1       4.767   5.855  16.947  0.00  0.00    +0.000 N 
ATOM      8  N   UNL     1       5.126   7.151  17.175  0.00  0.00    +0.000 NA
ATOM      9  N   UNL     1       4.252   7.697  18.001  0.00  0.00    +0.000 NA
ATOM     10  C   UNL     1       3.379   6.721  18.421  0.00  0.00    +0.000 A 
ATOM     11  C   UNL     1       3.755   5.495  17.855  0.00  0.00    +0.000 A 
ATOM     12  H   UNL     1       8.537   6.151  15.302  0.00  0.00    +0.000 HD
ATOM     13  H   UNL     1       7.436   6.941  16.361  0.00  0.00    +0.000 HD
ENDROOT
BRANCH  11  14
ATOM     14  C   UNL     1       3.450   4.112  18.284  0.00  0.00    +0.000 A 
ATOM     15  C   UNL     1       4.286   3.414  19.159  0.00  0.00    +0.000 A 
ATOM     16  C   UNL     1       4.156   2.034  19.345  0.00  0.00    +0.000 A 
ATOM     17  C   UNL     1       3.119   1.340  18.733  0.00  0.00    +0.000 A 
ATOM     18  C   UNL     1       2.208   2.030  17.944  0.00  0.00    +0.000 A 
ATOM     19  C   UNL     1       2.391   3.393  17.699  0.00  0.00    +0.000 A 
ENDBRANCH  11  14
BRANCH  10  20
ATOM     20  C   UNL     1       2.341   7.029  19.414  0.00  0.00    +0.000 C 
ATOM     21  O   UNL     1       1.829   6.175  20.133  0.00  0.00    +0.000 OA
ATOM     22  N   UNL     1       1.975   8.363  19.442  0.00  0.00    +0.000 N 
ATOM     23  H   UNL     1       2.400   9.014  18.781  0.00  0.00    +0.000 HD
BRANCH  22  24
ATOM     24  N   UNL     1       1.040   8.808  20.357  0.00  0.00    +0.000 NA
ATOM     25  C   UNL     1       0.756  10.070  20.294  0.00  0.00    +0.000 C 
BRANCH  25  26
ATOM     26  C   UNL     1      -0.222  10.678  21.170  0.00  0.00    +0.000 A 
ATOM     27  C   UNL     1      -1.060  11.758  20.961  0.00  0.00    +0.000 A 
ATOM     28  C   UNL     1      -1.835  12.045  22.116  0.00  0.00    +0.000 A 
ATOM     29 BR   UNL     1      -3.064  13.474  22.178  0.00  0.00    +0.000 Br
ATOM     30  C   UNL     1      -1.591  11.190  23.162  0.00  0.00    +0.000 A 
ATOM     31  S   UNL     1      -0.421  10.018  22.742  0.00  0.00    +0.000 S 
ENDBRANCH  25  26
ENDBRANCH  22  24
ENDBRANCH  10  20
TORSDOF 4
ENDMDL
