MODEL 1
REMARK VINA RESULT:      -7.5      0.000      0.000
REMARK  Name = 
REMARK  14 active torsions:
REMARK  status: ('A' for Active; 'I' for Inactive)
REMARK    1  A    between atoms: C_1  and  C_2
REMARK    2  A    between atoms: C_4  and  C_5
REMARK    3  A    between atoms: C_5  and  C_7
REMARK    4  A    between atoms: C_7  and  C_8
REMARK    5  A    between atoms: C_7  and  O_9
REMARK    6  A    between atoms: O_9  and  C_10
REMARK    7  A    between atoms: C_10  and  C_12
REMARK    8  A    between atoms: C_15  and  N_16
REMARK    9  A    between atoms: C_17  and  C_19
REMARK   10  A    between atoms: C_19  and  C_20
REMARK   11  A    between atoms: C_24  and  C_25
REMARK   12  A    between atoms: N_26  and  C_27
REMARK   13  A    between atoms: C_30  and  O_31
REMARK   14  A    between atoms: O_31  and  C_32
REMARK                            x       y       z     vdW  Elec       q    Type
REMARK                         _______ _______ _______ _____ _____    ______ ____
ROOT
ATOM      1  C   UNL     1       2.012   6.499  19.557  0.00  0.00    +0.000 C 
ATOM      2  O   UNL     1       2.316   6.295  18.380  0.00  0.00    +0.000 OA
ENDROOT
BRANCH   1   6
ATOM      3  C   UNL     1      -0.066  10.228  22.360  0.00  0.00    +0.000 C 
ATOM      4  C   UNL     1       0.654   9.513  21.264  0.00  0.00    +0.000 A 
ATOM      5  C   UNL     1       1.064   8.193  21.292  0.00  0.00    +0.000 A 
ATOM      6  C   UNL     1       1.540   7.828  20.008  0.00  0.00    +0.000 A 
ATOM      7  C   UNL     1       1.473   8.985  19.230  0.00  0.00    +0.000 A 
ATOM      8  C   UNL     1       1.992   9.157  17.833  0.00  0.00    +0.000 C 
ATOM      9  N   UNL     1       0.925  10.029  19.993  0.00  0.00    +0.000 N 
BRANCH   9  10
ATOM     10  C   UNL     1       0.710  11.386  19.556  0.00  0.00    +0.000 A 
ATOM     11  C   UNL     1       1.654  12.387  19.816  0.00  0.00    +0.000 A 
ATOM     12  C   UNL     1       1.396  13.722  19.490  0.00  0.00    +0.000 A 
ATOM     13  C   UNL     1       0.221  14.077  18.834  0.00  0.00    +0.000 A 
ATOM     14  C   UNL     1      -0.716  13.091  18.539  0.00  0.00    +0.000 A 
ATOM     15  C   UNL     1      -0.476  11.757  18.907  0.00  0.00    +0.000 A 
BRANCH  13  16
ATOM     16  O   UNL     1       0.082  15.409  18.572  0.00  0.00    +0.000 OA
BRANCH  16  17
ATOM     17  C   UNL     1      -0.732  16.120  19.488  0.00  0.00    +0.000 C 
ATOM     18  F   UNL     1      -0.109  16.162  20.691  0.00  0.00    +0.000 F 
ATOM     19  F   UNL     1      -0.813  17.401  19.045  0.00  0.00    +0.000 F 
ENDBRANCH  16  17
ENDBRANCH  13  16
ENDBRANCH   9  10
ENDBRANCH   1   6
BRANCH   1  20
ATOM     20  C   UNL     1       2.006   5.334  20.576  0.00  0.00    +0.000 C 
ATOM     21  C   UNL     1       0.939   4.282  20.263  0.00  0.00    +0.000 C 
BRANCH  20  22
ATOM     22  O   UNL     1       3.280   4.719  20.810  0.00  0.00    +0.000 OA
BRANCH  22  23
ATOM     23  C   UNL     1       3.479   3.497  20.263  0.00  0.00    +0.000 C 
ATOM     24  O   UNL     1       3.222   2.419  20.770  0.00  0.00    +0.000 OA
BRANCH  23  25
ATOM     25  C   UNL     1       4.085   3.629  18.919  0.00  0.00    +0.000 A 
ATOM     26  C   UNL     1       5.237   4.396  18.723  0.00  0.00    +0.000 A 
ATOM     27  C   UNL     1       5.738   4.575  17.431  0.00  0.00    +0.000 A 
ATOM     28  C   UNL     1       5.110   3.995  16.324  0.00  0.00    +0.000 A 
ATOM     29  C   UNL     1       3.970   3.215  16.534  0.00  0.00    +0.000 A 
ATOM     30  C   UNL     1       3.450   3.036  17.824  0.00  0.00    +0.000 A 
BRANCH  28  31
ATOM     31  N   UNL     1       5.564   4.165  14.997  0.00  0.00    +0.000 N 
ATOM     32  C   UNL     1       6.831   4.577  14.605  0.00  0.00    +0.000 C 
ATOM     33  O   UNL     1       7.766   4.860  15.349  0.00  0.00    +0.000 OA
ATOM     34  H   UNL     1       4.887   3.950  14.275  0.00  0.00    +0.000 HD
BRANCH  32  35
ATOM     35  C   UNL     1       7.014   4.674  13.108  0.00  0.00    +0.000 C 
BRANCH  35  36
ATOM     36  C   UNL     1       6.263   3.611  12.448  0.00  0.00    +0.000 C 
ATOM     37  N   UNL     1       5.696   2.739  11.929  0.00  0.00    +0.000 NA
ENDBRANCH  35  36
ENDBRANCH  32  35
ENDBRANCH  28  31
ENDBRANCH  23  25
ENDBRANCH  22  23
ENDBRANCH  20  22
ENDBRANCH   1  20
TORSDOF 11
ENDMDL
MODEL 2
REMARK VINA RESULT:      -7.5      1.077      1.629
REMARK  Name = 
REMARK  14 active torsions:
REMARK  status: ('A' for Active; 'I' for Inactive)
REMARK    1  A    between atoms: C_1  and  C_2
REMARK    2  A    between atoms: C_4  and  C_5
REMARK    3  A    between atoms: C_5  and  C_7
REMARK    4  A    between atoms: C_7  and  C_8
REMARK    5  A    between atoms: C_7  and  O_9
REMARK    6  A    between atoms: O_9  and  C_10
REMARK    7  A    between atoms: C_10  and  C_12
REMARK    8  A    between atoms: C_15  and  N_16
REMARK    9  A    between atoms: C_17  and  C_19
REMARK   10  A    between atoms: C_19  and  C_20
REMARK   11  A    between atoms: C_24  and  C_25
REMARK   12  A    between atoms: N_26  and  C_27
REMARK   13  A    between atoms: C_30  and  O_31
REMARK   14  A    between atoms: O_31  and  C_32
REMARK                            x       y       z     vdW  Elec       q    Type
REMARK                         _______ _______ _______ _____ _____    ______ ____
ROOT
ATOM      1  C   UNL     1       2.291   6.268  19.245  0.00  0.00    +0.000 C 
ATOM      2  O   UNL     1       1.960   5.859  18.131  0.00  0.00    +0.000 OA
ENDROOT
BRANCH   1   6
ATOM      3  C   UNL     1       0.253   9.876  22.230  0.00  0.00    +0.000 C 
ATOM      4  C   UNL     1       0.950   9.207  21.091  0.00  0.00    +0.000 A 
ATOM      5  C   UNL     1       1.374   7.891  21.063  0.00  0.00    +0.000 A 
ATOM      6  C   UNL     1       1.818   7.576  19.754  0.00  0.00    +0.000 A 
ATOM      7  C   UNL     1       1.718   8.758  19.019  0.00  0.00    +0.000 A 
ATOM      8  C   UNL     1       2.197   8.983  17.615  0.00  0.00    +0.000 C 
ATOM      9  N   UNL     1       1.181   9.769  19.832  0.00  0.00    +0.000 N 
BRANCH   9  10
ATOM     10  C   UNL     1       0.941  11.138  19.448  0.00  0.00    +0.000 A 
ATOM     11  C   UNL     1       1.910  12.127  19.655  0.00  0.00    +0.000 A 
ATOM     12  C   UNL     1       1.635  13.471  19.385  0.00  0.00    +0.000 A 
ATOM     13  C   UNL     1       0.413  13.849  18.835  0.00  0.00    +0.000 A 
ATOM     14  C   UNL     1      -0.551  12.875  18.593  0.00  0.00    +0.000 A 
ATOM     15  C   UNL     1      -0.292  11.531  18.907  0.00  0.00    +0.000 A 
BRANCH  13  16
ATOM     16  O   UNL     1       0.262  15.188  18.619  0.00  0.00    +0.000 OA
BRANCH  16  17
ATOM     17  C   UNL     1      -0.603  15.850  19.525  0.00  0.00    +0.000 C 
ATOM     18  F   UNL     1       0.133  16.653  20.331  0.00  0.00    +0.000 F 
ATOM     19  F   UNL     1      -1.407  16.663  18.793  0.00  0.00    +0.000 F 
ENDBRANCH  16  17
ENDBRANCH  13  16
ENDBRANCH   9  10
ENDBRANCH   1   6
BRANCH   1  20
ATOM     20  C   UNL     1       3.120   5.368  20.193  0.00  0.00    +0.000 C 
ATOM     21  C   UNL     1       2.253   4.644  21.227  0.00  0.00    +0.000 C 
BRANCH  20  22
ATOM     22  O   UNL     1       4.014   4.455  19.543  0.00  0.00    +0.000 OA
BRANCH  22  23
ATOM     23  C   UNL     1       5.223   4.940  19.175  0.00  0.00    +0.000 C 
ATOM     24  O   UNL     1       6.017   5.537  19.881  0.00  0.00    +0.000 OA
BRANCH  23  25
ATOM     25  C   UNL     1       5.475   4.655  17.745  0.00  0.00    +0.000 A 
ATOM     26  C   UNL     1       4.448   4.204  16.911  0.00  0.00    +0.000 A 
ATOM     27  C   UNL     1       4.732   3.859  15.587  0.00  0.00    +0.000 A 
ATOM     28  C   UNL     1       6.029   3.963  15.074  0.00  0.00    +0.000 A 
ATOM     29  C   UNL     1       7.044   4.431  15.912  0.00  0.00    +0.000 A 
ATOM     30  C   UNL     1       6.776   4.770  17.245  0.00  0.00    +0.000 A 
BRANCH  28  31
ATOM     31  N   UNL     1       6.371   3.606  13.750  0.00  0.00    +0.000 N 
ATOM     32  C   UNL     1       7.140   4.353  12.867  0.00  0.00    +0.000 C 
ATOM     33  O   UNL     1       7.651   5.446  13.093  0.00  0.00    +0.000 OA
ATOM     34  H   UNL     1       6.020   2.709  13.437  0.00  0.00    +0.000 HD
BRANCH  32  35
ATOM     35  C   UNL     1       7.325   3.709  11.512  0.00  0.00    +0.000 C 
BRANCH  35  36
ATOM     36  C   UNL     1       6.552   2.474  11.441  0.00  0.00    +0.000 C 
ATOM     37  N   UNL     1       5.902   1.512  11.377  0.00  0.00    +0.000 NA
ENDBRANCH  35  36
ENDBRANCH  32  35
ENDBRANCH  28  31
ENDBRANCH  23  25
ENDBRANCH  22  23
ENDBRANCH  20  22
ENDBRANCH   1  20
TORSDOF 11
ENDMDL
MODEL 3
REMARK VINA RESULT:      -7.5      3.522      4.482
REMARK  Name = 
REMARK  14 active torsions:
REMARK  status: ('A' for Active; 'I' for Inactive)
REMARK    1  A    between atoms: C_1  and  C_2
REMARK    2  A    between atoms: C_4  and  C_5
REMARK    3  A    between atoms: C_5  and  C_7
REMARK    4  A    between atoms: C_7  and  C_8
REMARK    5  A    between atoms: C_7  and  O_9
REMARK    6  A    between atoms: O_9  and  C_10
REMARK    7  A    between atoms: C_10  and  C_12
REMARK    8  A    between atoms: C_15  and  N_16
REMARK    9  A    between atoms: C_17  and  C_19
REMARK   10  A    between atoms: C_19  and  C_20
REMARK   11  A    between atoms: C_24  and  C_25
REMARK   12  A    between atoms: N_26  and  C_27
REMARK   13  A    between atoms: C_30  and  O_31
REMARK   14  A    between atoms: O_31  and  C_32
REMARK                            x       y       z     vdW  Elec       q    Type
REMARK                         _______ _______ _______ _____ _____    ______ ____
ROOT
ATOM      1  C   UNL     1       3.124   5.383  19.525  0.00  0.00    +0.000 C 
ATOM      2  O   UNL     1       4.042   5.002  20.253  0.00  0.00    +0.000 OA
ENDROOT
BRANCH   1   6
ATOM      3  C   UNL     1      -0.357   8.304  21.856  0.00  0.00    +0.000 C 
ATOM      4  C   UNL     1       0.755   7.867  20.958  0.00  0.00    +0.000 A 
ATOM      5  C   UNL     1       1.422   6.659  21.027  0.00  0.00    +0.000 A 
ATOM      6  C   UNL     1       2.275   6.536  19.901  0.00  0.00    +0.000 A 
ATOM      7  C   UNL     1       2.155   7.735  19.195  0.00  0.00    +0.000 A 
ATOM      8  C   UNL     1       2.959   8.156  18.001  0.00  0.00    +0.000 C 
ATOM      9  N   UNL     1       1.218   8.562  19.836  0.00  0.00    +0.000 N 
BRANCH   9  10
ATOM     10  C   UNL     1       0.829   9.889  19.430  0.00  0.00    +0.000 A 
ATOM     11  C   UNL     1      -0.398  10.121  18.796  0.00  0.00    +0.000 A 
ATOM     12  C   UNL     1      -0.726  11.388  18.304  0.00  0.00    +0.000 A 
ATOM     13  C   UNL     1       0.132  12.467  18.496  0.00  0.00    +0.000 A 
ATOM     14  C   UNL     1       1.343  12.262  19.151  0.00  0.00    +0.000 A 
ATOM     15  C   UNL     1       1.692  10.980  19.605  0.00  0.00    +0.000 A 
BRANCH  13  16
ATOM     16  O   UNL     1      -0.295  13.650  17.968  0.00  0.00    +0.000 OA
BRANCH  16  17
ATOM     17  C   UNL     1      -0.240  14.758  18.850  0.00  0.00    +0.000 C 
ATOM     18  F   UNL     1      -0.508  15.889  18.153  0.00  0.00    +0.000 F 
ATOM     19  F   UNL     1      -1.245  14.607  19.750  0.00  0.00    +0.000 F 
ENDBRANCH  16  17
ENDBRANCH  13  16
ENDBRANCH   9  10
ENDBRANCH   1   6
BRANCH   1  20
ATOM     20  C   UNL     1       2.908   4.735  18.136  0.00  0.00    +0.000 C 
ATOM     21  C   UNL     1       1.433   4.694  17.727  0.00  0.00    +0.000 C 
BRANCH  20  22
ATOM     22  O   UNL     1       3.718   5.267  17.080  0.00  0.00    +0.000 OA
BRANCH  22  23
ATOM     23  C   UNL     1       4.932   4.698  16.894  0.00  0.00    +0.000 C 
ATOM     24  O   UNL     1       5.159   3.600  16.416  0.00  0.00    +0.000 OA
BRANCH  23  25
ATOM     25  C   UNL     1       6.001   5.604  17.370  0.00  0.00    +0.000 A 
ATOM     26  C   UNL     1       6.842   5.232  18.423  0.00  0.00    +0.000 A 
ATOM     27  C   UNL     1       7.785   6.140  18.910  0.00  0.00    +0.000 A 
ATOM     28  C   UNL     1       7.911   7.419  18.358  0.00  0.00    +0.000 A 
ATOM     29  C   UNL     1       7.077   7.774  17.294  0.00  0.00    +0.000 A 
ATOM     30  C   UNL     1       6.119   6.877  16.803  0.00  0.00    +0.000 A 
BRANCH  28  31
ATOM     31  N   UNL     1       8.833   8.381  18.830  0.00  0.00    +0.000 N 
ATOM     32  C   UNL     1       8.798   9.748  18.585  0.00  0.00    +0.000 C 
ATOM     33  O   UNL     1       7.957  10.345  17.919  0.00  0.00    +0.000 OA
ATOM     34  H   UNL     1       9.580   8.019  19.410  0.00  0.00    +0.000 HD
BRANCH  32  35
ATOM     35  C   UNL     1       9.932  10.518  19.219  0.00  0.00    +0.000 C 
BRANCH  35  36
ATOM     36  C   UNL     1      10.455  11.499  18.274  0.00  0.00    +0.000 C 
ATOM     37  N   UNL     1      10.845  12.267  17.493  0.00  0.00    +0.000 NA
ENDBRANCH  35  36
ENDBRANCH  32  35
ENDBRANCH  28  31
ENDBRANCH  23  25
ENDBRANCH  22  23
ENDBRANCH  20  22
ENDBRANCH   1  20
TORSDOF 11
ENDMDL
MODEL 4
REMARK VINA RESULT:      -7.4      5.085      9.951
REMARK  Name = 
REMARK  14 active torsions:
REMARK  status: ('A' for Active; 'I' for Inactive)
REMARK    1  A    between atoms: C_1  and  C_2
REMARK    2  A    between atoms: C_4  and  C_5
REMARK    3  A    between atoms: C_5  and  C_7
REMARK    4  A    between atoms: C_7  and  C_8
REMARK    5  A    between atoms: C_7  and  O_9
REMARK    6  A    between atoms: O_9  and  C_10
REMARK    7  A    between atoms: C_10  and  C_12
REMARK    8  A    between atoms: C_15  and  N_16
REMARK    9  A    between atoms: C_17  and  C_19
REMARK   10  A    between atoms: C_19  and  C_20
REMARK   11  A    between atoms: C_24  and  C_25
REMARK   12  A    between atoms: N_26  and  C_27
REMARK   13  A    between atoms: C_30  and  O_31
REMARK   14  A    between atoms: O_31  and  C_32
REMARK                            x       y       z     vdW  Elec       q    Type
REMARK                         _______ _______ _______ _____ _____    ______ ____
ROOT
ATOM      1  C   UNL     1      -0.186  14.934  19.656  0.00  0.00    +0.000 C 
ATOM      2  O   UNL     1      -0.675  15.350  20.707  0.00  0.00    +0.000 OA
ENDROOT
BRANCH   1   6
ATOM      3  C   UNL     1      -2.043  10.497  17.936  0.00  0.00    +0.000 C 
ATOM      4  C   UNL     1      -1.100  11.530  18.464  0.00  0.00    +0.000 A 
ATOM      5  C   UNL     1      -1.351  12.887  18.545  0.00  0.00    +0.000 A 
ATOM      6  C   UNL     1      -0.302  13.509  19.267  0.00  0.00    +0.000 A 
ATOM      7  C   UNL     1       0.621  12.501  19.551  0.00  0.00    +0.000 A 
ATOM      8  C   UNL     1       1.972  12.673  20.179  0.00  0.00    +0.000 C 
ATOM      9  N   UNL     1       0.137  11.275  19.064  0.00  0.00    +0.000 N 
BRANCH   9  10
ATOM     10  C   UNL     1       0.805  10.000  19.142  0.00  0.00    +0.000 A 
ATOM     11  C   UNL     1       0.800   9.253  20.326  0.00  0.00    +0.000 A 
ATOM     12  C   UNL     1       1.539   8.071  20.434  0.00  0.00    +0.000 A 
ATOM     13  C   UNL     1       2.242   7.572  19.341  0.00  0.00    +0.000 A 
ATOM     14  C   UNL     1       2.232   8.285  18.146  0.00  0.00    +0.000 A 
ATOM     15  C   UNL     1       1.527   9.495  18.051  0.00  0.00    +0.000 A 
BRANCH  13  16
ATOM     16  O   UNL     1       2.927   6.414  19.570  0.00  0.00    +0.000 OA
BRANCH  16  17
ATOM     17  C   UNL     1       3.978   6.146  18.659  0.00  0.00    +0.000 C 
ATOM     18  F   UNL     1       5.032   5.634  19.340  0.00  0.00    +0.000 F 
ATOM     19  F   UNL     1       3.544   5.170  17.821  0.00  0.00    +0.000 F 
ENDBRANCH  16  17
ENDBRANCH  13  16
ENDBRANCH   9  10
ENDBRANCH   1   6
BRANCH   1  20
ATOM     20  C   UNL     1       0.466  15.917  18.655  0.00  0.00    +0.000 C 
ATOM     21  C   UNL     1      -0.510  16.987  18.158  0.00  0.00    +0.000 C 
BRANCH  20  22
ATOM     22  O   UNL     1       1.698  16.508  19.091  0.00  0.00    +0.000 OA
BRANCH  22  23
ATOM     23  C   UNL     1       2.554  16.920  18.128  0.00  0.00    +0.000 C 
ATOM     24  O   UNL     1       2.300  17.655  17.189  0.00  0.00    +0.000 OA
BRANCH  23  25
ATOM     25  C   UNL     1       3.896  16.337  18.353  0.00  0.00    +0.000 A 
ATOM     26  C   UNL     1       4.866  17.029  19.085  0.00  0.00    +0.000 A 
ATOM     27  C   UNL     1       6.151  16.495  19.209  0.00  0.00    +0.000 A 
ATOM     28  C   UNL     1       6.488  15.274  18.616  0.00  0.00    +0.000 A 
ATOM     29  C   UNL     1       5.507  14.583  17.902  0.00  0.00    +0.000 A 
ATOM     30  C   UNL     1       4.216  15.112  17.760  0.00  0.00    +0.000 A 
BRANCH  28  31
ATOM     31  N   UNL     1       7.780  14.705  18.694  0.00  0.00    +0.000 N 
ATOM     32  C   UNL     1       8.347  14.096  19.805  0.00  0.00    +0.000 C 
ATOM     33  O   UNL     1       7.819  13.950  20.904  0.00  0.00    +0.000 OA
ATOM     34  H   UNL     1       8.324  14.746  17.841  0.00  0.00    +0.000 HD
BRANCH  32  35
ATOM     35  C   UNL     1       9.753  13.589  19.581  0.00  0.00    +0.000 C 
BRANCH  35  36
ATOM     36  C   UNL     1      10.288  14.143  18.342  0.00  0.00    +0.000 C 
ATOM     37  N   UNL     1      10.687  14.615  17.357  0.00  0.00    +0.000 NA
ENDBRANCH  35  36
ENDBRANCH  32  35
ENDBRANCH  28  31
ENDBRANCH  23  25
ENDBRANCH  22  23
ENDBRANCH  20  22
ENDBRANCH   1  20
TORSDOF 11
ENDMDL
MODEL 5
REMARK VINA RESULT:      -7.3      5.271     11.411
REMARK  Name = 
REMARK  14 active torsions:
REMARK  status: ('A' for Active; 'I' for Inactive)
REMARK    1  A    between atoms: C_1  and  C_2
REMARK    2  A    between atoms: C_4  and  C_5
REMARK    3  A    between atoms: C_5  and  C_7
REMARK    4  A    between atoms: C_7  and  C_8
REMARK    5  A    between atoms: C_7  and  O_9
REMARK    6  A    between atoms: O_9  and  C_10
REMARK    7  A    between atoms: C_10  and  C_12
REMARK    8  A    between atoms: C_15  and  N_16
REMARK    9  A    between atoms: C_17  and  C_19
REMARK   10  A    between atoms: C_19  and  C_20
REMARK   11  A    between atoms: C_24  and  C_25
REMARK   12  A    between atoms: N_26  and  C_27
REMARK   13  A    between atoms: C_30  and  O_31
REMARK   14  A    between atoms: O_31  and  C_32
REMARK                            x       y       z     vdW  Elec       q    Type
REMARK                         _______ _______ _______ _____ _____    ______ ____
ROOT
ATOM      1  C   UNL     1       0.738   8.145  20.839  0.00  0.00    +0.000 C 
ATOM      2  O   UNL     1      -0.245   7.910  21.544  0.00  0.00    +0.000 OA
ENDROOT
BRANCH   1   6
ATOM      3  C   UNL     1       3.280   3.728  20.501  0.00  0.00    +0.000 C 
ATOM      4  C   UNL     1       2.714   5.067  20.157  0.00  0.00    +0.000 A 
ATOM      5  C   UNL     1       1.744   5.743  20.873  0.00  0.00    +0.000 A 
ATOM      6  C   UNL     1       1.606   7.051  20.344  0.00  0.00    +0.000 A 
ATOM      7  C   UNL     1       2.466   7.115  19.247  0.00  0.00    +0.000 A 
ATOM      8  C   UNL     1       2.584   8.244  18.265  0.00  0.00    +0.000 C 
ATOM      9  N   UNL     1       3.157   5.899  19.124  0.00  0.00    +0.000 N 
BRANCH   9  10
ATOM     10  C   UNL     1       4.121   5.561  18.105  0.00  0.00    +0.000 A 
ATOM     11  C   UNL     1       3.827   4.612  17.119  0.00  0.00    +0.000 A 
ATOM     12  C   UNL     1       4.799   4.205  16.200  0.00  0.00    +0.000 A 
ATOM     13  C   UNL     1       6.063   4.789  16.200  0.00  0.00    +0.000 A 
ATOM     14  C   UNL     1       6.363   5.757  17.153  0.00  0.00    +0.000 A 
ATOM     15  C   UNL     1       5.401   6.133  18.105  0.00  0.00    +0.000 A 
BRANCH  13  16
ATOM     16  O   UNL     1       6.924   4.307  15.258  0.00  0.00    +0.000 OA
BRANCH  16  17
ATOM     17  C   UNL     1       6.555   4.565  13.915  0.00  0.00    +0.000 C 
ATOM     18  F   UNL     1       7.587   5.175  13.283  0.00  0.00    +0.000 F 
ATOM     19  F   UNL     1       6.380   3.364  13.307  0.00  0.00    +0.000 F 
ENDBRANCH  16  17
ENDBRANCH  13  16
ENDBRANCH   9  10
ENDBRANCH   1   6
BRANCH   1  20
ATOM     20  C   UNL     1       1.026   9.585  20.353  0.00  0.00    +0.000 C 
ATOM     21  C   UNL     1       0.063  10.041  19.253  0.00  0.00    +0.000 C 
BRANCH  20  22
ATOM     22  O   UNL     1       1.126  10.572  21.389  0.00  0.00    +0.000 OA
BRANCH  22  23
ATOM     23  C   UNL     1       0.841  11.850  21.046  0.00  0.00    +0.000 C 
ATOM     24  O   UNL     1       1.559  12.618  20.429  0.00  0.00    +0.000 OA
BRANCH  23  25
ATOM     25  C   UNL     1      -0.502  12.226  21.541  0.00  0.00    +0.000 A 
ATOM     26  C   UNL     1      -0.993  11.713  22.745  0.00  0.00    +0.000 A 
ATOM     27  C   UNL     1      -2.297  12.015  23.146  0.00  0.00    +0.000 A 
ATOM     28  C   UNL     1      -3.123  12.830  22.366  0.00  0.00    +0.000 A 
ATOM     29  C   UNL     1      -2.616  13.352  21.173  0.00  0.00    +0.000 A 
ATOM     30  C   UNL     1      -1.314  13.048  20.753  0.00  0.00    +0.000 A 
BRANCH  28  31
ATOM     31  N   UNL     1      -4.456  13.146  22.716  0.00  0.00    +0.000 N 
ATOM     32  C   UNL     1      -5.143  12.696  23.836  0.00  0.00    +0.000 C 
ATOM     33  O   UNL     1      -4.705  11.951  24.708  0.00  0.00    +0.000 OA
ATOM     34  H   UNL     1      -4.935  13.772  22.081  0.00  0.00    +0.000 HD
BRANCH  32  35
ATOM     35  C   UNL     1      -6.564  13.202  23.934  0.00  0.00    +0.000 C 
BRANCH  35  36
ATOM     36  C   UNL     1      -7.016  13.664  22.626  0.00  0.00    +0.000 C 
ATOM     37  N   UNL     1      -7.365  13.998  21.568  0.00  0.00    +0.000 NA
ENDBRANCH  35  36
ENDBRANCH  32  35
ENDBRANCH  28  31
ENDBRANCH  23  25
ENDBRANCH  22  23
ENDBRANCH  20  22
ENDBRANCH   1  20
TORSDOF 11
ENDMDL
MODEL 6
REMARK VINA RESULT:      -7.2      1.657      1.954
REMARK  Name = 
REMARK  14 active torsions:
REMARK  status: ('A' for Active; 'I' for Inactive)
REMARK    1  A    between atoms: C_1  and  C_2
REMARK    2  A    between atoms: C_4  and  C_5
REMARK    3  A    between atoms: C_5  and  C_7
REMARK    4  A    between atoms: C_7  and  C_8
REMARK    5  A    between atoms: C_7  and  O_9
REMARK    6  A    between atoms: O_9  and  C_10
REMARK    7  A    between atoms: C_10  and  C_12
REMARK    8  A    between atoms: C_15  and  N_16
REMARK    9  A    between atoms: C_17  and  C_19
REMARK   10  A    between atoms: C_19  and  C_20
REMARK   11  A    between atoms: C_24  and  C_25
REMARK   12  A    between atoms: N_26  and  C_27
REMARK   13  A    between atoms: C_30  and  O_31
REMARK   14  A    between atoms: O_31  and  C_32
REMARK                            x       y       z     vdW  Elec       q    Type
REMARK                         _______ _______ _______ _____ _____    ______ ____
ROOT
ATOM      1  C   UNL     1       2.431   6.885  19.151  0.00  0.00    +0.000 C 
ATOM      2  O   UNL     1       2.573   6.968  17.930  0.00  0.00    +0.000 OA
ENDROOT
BRANCH   1   6
ATOM      3  C   UNL     1       0.127   9.482  22.897  0.00  0.00    +0.000 C 
ATOM      4  C   UNL     1       0.788   9.156  21.597  0.00  0.00    +0.000 A 
ATOM      5  C   UNL     1       1.456   7.983  21.302  0.00  0.00    +0.000 A 
ATOM      6  C   UNL     1       1.779   7.969  19.922  0.00  0.00    +0.000 A 
ATOM      7  C   UNL     1       1.352   9.197  19.414  0.00  0.00    +0.000 A 
ATOM      8  C   UNL     1       1.589   9.727  18.031  0.00  0.00    +0.000 C 
ATOM      9  N   UNL     1       0.736   9.936  20.438  0.00  0.00    +0.000 N 
BRANCH   9  10
ATOM     10  C   UNL     1       0.181  11.262  20.321  0.00  0.00    +0.000 A 
ATOM     11  C   UNL     1       0.972  12.397  20.535  0.00  0.00    +0.000 A 
ATOM     12  C   UNL     1       0.409  13.677  20.530  0.00  0.00    +0.000 A 
ATOM     13  C   UNL     1      -0.941  13.857  20.242  0.00  0.00    +0.000 A 
ATOM     14  C   UNL     1      -1.736  12.742  19.996  0.00  0.00    +0.000 A 
ATOM     15  C   UNL     1      -1.180  11.453  20.045  0.00  0.00    +0.000 A 
BRANCH  13  16
ATOM     16  O   UNL     1      -1.373  15.151  20.270  0.00  0.00    +0.000 OA
BRANCH  16  17
ATOM     17  C   UNL     1      -2.672  15.340  20.804  0.00  0.00    +0.000 C 
ATOM     18  F   UNL     1      -2.613  15.240  22.154  0.00  0.00    +0.000 F 
ATOM     19  F   UNL     1      -3.041  16.616  20.523  0.00  0.00    +0.000 F 
ENDBRANCH  16  17
ENDBRANCH  13  16
ENDBRANCH   9  10
ENDBRANCH   1   6
BRANCH   1  20
ATOM     20  C   UNL     1       2.827   5.590  19.899  0.00  0.00    +0.000 C 
ATOM     21  C   UNL     1       1.620   4.857  20.489  0.00  0.00    +0.000 C 
BRANCH  20  22
ATOM     22  O   UNL     1       3.664   4.689  19.161  0.00  0.00    +0.000 OA
BRANCH  22  23
ATOM     23  C   UNL     1       4.967   5.031  19.032  0.00  0.00    +0.000 C 
ATOM     24  O   UNL     1       5.655   5.612  19.853  0.00  0.00    +0.000 OA
BRANCH  23  25
ATOM     25  C   UNL     1       5.479   4.605  17.710  0.00  0.00    +0.000 A 
ATOM     26  C   UNL     1       6.825   4.777  17.372  0.00  0.00    +0.000 A 
ATOM     27  C   UNL     1       7.264   4.446  16.088  0.00  0.00    +0.000 A 
ATOM     28  C   UNL     1       6.381   3.939  15.129  0.00  0.00    +0.000 A 
ATOM     29  C   UNL     1       5.042   3.754  15.483  0.00  0.00    +0.000 A 
ATOM     30  C   UNL     1       4.586   4.092  16.765  0.00  0.00    +0.000 A 
BRANCH  28  31
ATOM     31  N   UNL     1       6.771   3.612  13.811  0.00  0.00    +0.000 N 
ATOM     32  C   UNL     1       5.936   3.499  12.707  0.00  0.00    +0.000 C 
ATOM     33  O   UNL     1       4.720   3.669  12.695  0.00  0.00    +0.000 OA
ATOM     34  H   UNL     1       7.763   3.457  13.677  0.00  0.00    +0.000 HD
BRANCH  32  35
ATOM     35  C   UNL     1       6.649   3.125  11.428  0.00  0.00    +0.000 C 
BRANCH  35  36
ATOM     36  C   UNL     1       6.488   1.698  11.170  0.00  0.00    +0.000 C 
ATOM     37  N   UNL     1       6.325   0.563  10.984  0.00  0.00    +0.000 NA
ENDBRANCH  35  36
ENDBRANCH  32  35
ENDBRANCH  28  31
ENDBRANCH  23  25
ENDBRANCH  22  23
ENDBRANCH  20  22
ENDBRANCH   1  20
TORSDOF 11
ENDMDL
MODEL 7
REMARK VINA RESULT:      -7.1      3.745      8.232
REMARK  Name = 
REMARK  14 active torsions:
REMARK  status: ('A' for Active; 'I' for Inactive)
REMARK    1  A    between atoms: C_1  and  C_2
REMARK    2  A    between atoms: C_4  and  C_5
REMARK    3  A    between atoms: C_5  and  C_7
REMARK    4  A    between atoms: C_7  and  C_8
REMARK    5  A    between atoms: C_7  and  O_9
REMARK    6  A    between atoms: O_9  and  C_10
REMARK    7  A    between atoms: C_10  and  C_12
REMARK    8  A    between atoms: C_15  and  N_16
REMARK    9  A    between atoms: C_17  and  C_19
REMARK   10  A    between atoms: C_19  and  C_20
REMARK   11  A    between atoms: C_24  and  C_25
REMARK   12  A    between atoms: N_26  and  C_27
REMARK   13  A    between atoms: C_30  and  O_31
REMARK   14  A    between atoms: O_31  and  C_32
REMARK                            x       y       z     vdW  Elec       q    Type
REMARK                         _______ _______ _______ _____ _____    ______ ____
ROOT
ATOM      1  C   UNL     1       3.464   2.463  18.276  0.00  0.00    +0.000 C 
ATOM      2  O   UNL     1       3.922   1.473  18.849  0.00  0.00    +0.000 OA
ENDROOT
BRANCH   1   6
ATOM      3  C   UNL     1       6.250   5.066  14.877  0.00  0.00    +0.000 C 
ATOM      4  C   UNL     1       5.570   4.672  16.148  0.00  0.00    +0.000 A 
ATOM      5  C   UNL     1       4.624   3.673  16.283  0.00  0.00    +0.000 A 
ATOM      6  C   UNL     1       4.354   3.474  17.660  0.00  0.00    +0.000 A 
ATOM      7  C   UNL     1       5.108   4.430  18.342  0.00  0.00    +0.000 A 
ATOM      8  C   UNL     1       5.065   4.724  19.813  0.00  0.00    +0.000 C 
ATOM      9  N   UNL     1       5.864   5.173  17.420  0.00  0.00    +0.000 N 
BRANCH   9  10
ATOM     10  C   UNL     1       6.754   6.265  17.726  0.00  0.00    +0.000 A 
ATOM     11  C   UNL     1       7.750   6.135  18.701  0.00  0.00    +0.000 A 
ATOM     12  C   UNL     1       8.539   7.227  19.075  0.00  0.00    +0.000 A 
ATOM     13  C   UNL     1       8.399   8.454  18.433  0.00  0.00    +0.000 A 
ATOM     14  C   UNL     1       7.435   8.595  17.440  0.00  0.00    +0.000 A 
ATOM     15  C   UNL     1       6.612   7.510  17.096  0.00  0.00    +0.000 A 
BRANCH  13  16
ATOM     16  O   UNL     1       9.222   9.444  18.887  0.00  0.00    +0.000 OA
BRANCH  16  17
ATOM     17  C   UNL     1       9.065  10.698  18.248  0.00  0.00    +0.000 C 
ATOM     18  F   UNL     1       8.925  11.660  19.193  0.00  0.00    +0.000 F 
ATOM     19  F   UNL     1      10.223  10.963  17.591  0.00  0.00    +0.000 F 
ENDBRANCH  16  17
ENDBRANCH  13  16
ENDBRANCH   9  10
ENDBRANCH   1   6
BRANCH   1  20
ATOM     20  C   UNL     1       1.936   2.616  18.082  0.00  0.00    +0.000 C 
ATOM     21  C   UNL     1       1.132   1.618  18.919  0.00  0.00    +0.000 C 
BRANCH  20  22
ATOM     22  O   UNL     1       1.429   3.947  18.243  0.00  0.00    +0.000 OA
BRANCH  22  23
ATOM     23  C   UNL     1       1.703   4.569  19.414  0.00  0.00    +0.000 C 
ATOM     24  O   UNL     1       1.868   4.041  20.500  0.00  0.00    +0.000 OA
BRANCH  23  25
ATOM     25  C   UNL     1       1.771   6.033  19.212  0.00  0.00    +0.000 A 
ATOM     26  C   UNL     1       2.139   6.572  17.976  0.00  0.00    +0.000 A 
ATOM     27  C   UNL     1       2.279   7.955  17.837  0.00  0.00    +0.000 A 
ATOM     28  C   UNL     1       2.053   8.817  18.915  0.00  0.00    +0.000 A 
ATOM     29  C   UNL     1       1.669   8.270  20.141  0.00  0.00    +0.000 A 
ATOM     30  C   UNL     1       1.535   6.883  20.298  0.00  0.00    +0.000 A 
BRANCH  28  31
ATOM     31  N   UNL     1       2.204  10.220  18.831  0.00  0.00    +0.000 N 
ATOM     32  C   UNL     1       1.203  11.169  18.994  0.00  0.00    +0.000 C 
ATOM     33  O   UNL     1       0.022  10.944  19.241  0.00  0.00    +0.000 OA
ATOM     34  H   UNL     1       3.144  10.545  18.643  0.00  0.00    +0.000 HD
BRANCH  32  35
ATOM     35  C   UNL     1       1.673  12.596  18.836  0.00  0.00    +0.000 C 
BRANCH  35  36
ATOM     36  C   UNL     1       0.527  13.476  18.637  0.00  0.00    +0.000 C 
ATOM     37  N   UNL     1      -0.374  14.200  18.509  0.00  0.00    +0.000 NA
ENDBRANCH  35  36
ENDBRANCH  32  35
ENDBRANCH  28  31
ENDBRANCH  23  25
ENDBRANCH  22  23
ENDBRANCH  20  22
ENDBRANCH   1  20
TORSDOF 11
ENDMDL
MODEL 8
REMARK VINA RESULT:      -7.1      3.746      5.084
REMARK  Name = 
REMARK  14 active torsions:
REMARK  status: ('A' for Active; 'I' for Inactive)
REMARK    1  A    between atoms: C_1  and  C_2
REMARK    2  A    between atoms: C_4  and  C_5
REMARK    3  A    between atoms: C_5  and  C_7
REMARK    4  A    between atoms: C_7  and  C_8
REMARK    5  A    between atoms: C_7  and  O_9
REMARK    6  A    between atoms: O_9  and  C_10
REMARK    7  A    between atoms: C_10  and  C_12
REMARK    8  A    between atoms: C_15  and  N_16
REMARK    9  A    between atoms: C_17  and  C_19
REMARK   10  A    between atoms: C_19  and  C_20
REMARK   11  A    between atoms: C_24  and  C_25
REMARK   12  A    between atoms: N_26  and  C_27
REMARK   13  A    between atoms: C_30  and  O_31
REMARK   14  A    between atoms: O_31  and  C_32
REMARK                            x       y       z     vdW  Elec       q    Type
REMARK                         _______ _______ _______ _____ _____    ______ ____
ROOT
ATOM      1  C   UNL     1       0.312  11.186  21.179  0.00  0.00    +0.000 C 
ATOM      2  O   UNL     1       1.354  11.842  21.229  0.00  0.00    +0.000 OA
ENDROOT
BRANCH   1   6
ATOM      3  C   UNL     1      -3.716  12.273  24.125  0.00  0.00    +0.000 C 
ATOM      4  C   UNL     1      -2.756  12.275  22.980  0.00  0.00    +0.000 A 
ATOM      5  C   UNL     1      -1.499  11.700  22.978  0.00  0.00    +0.000 A 
ATOM      6  C   UNL     1      -0.971  11.745  21.664  0.00  0.00    +0.000 A 
ATOM      7  C   UNL     1      -1.914  12.428  20.893  0.00  0.00    +0.000 A 
ATOM      8  C   UNL     1      -1.763  12.857  19.464  0.00  0.00    +0.000 C 
ATOM      9  N   UNL     1      -3.021  12.756  21.694  0.00  0.00    +0.000 N 
BRANCH   9  10
ATOM     10  C   UNL     1      -4.195  13.480  21.275  0.00  0.00    +0.000 A 
ATOM     11  C   UNL     1      -5.341  12.806  20.836  0.00  0.00    +0.000 A 
ATOM     12  C   UNL     1      -6.438  13.507  20.326  0.00  0.00    +0.000 A 
ATOM     13  C   UNL     1      -6.443  14.899  20.310  0.00  0.00    +0.000 A 
ATOM     14  C   UNL     1      -5.325  15.588  20.772  0.00  0.00    +0.000 A 
ATOM     15  C   UNL     1      -4.206  14.881  21.242  0.00  0.00    +0.000 A 
BRANCH  13  16
ATOM     16  O   UNL     1      -7.567  15.469  19.787  0.00  0.00    +0.000 OA
BRANCH  16  17
ATOM     17  C   UNL     1      -7.490  15.801  18.411  0.00  0.00    +0.000 C 
ATOM     18  F   UNL     1      -7.177  17.114  18.292  0.00  0.00    +0.000 F 
ATOM     19  F   UNL     1      -6.450  15.103  17.887  0.00  0.00    +0.000 F 
ENDBRANCH  16  17
ENDBRANCH  13  16
ENDBRANCH   9  10
ENDBRANCH   1   6
BRANCH   1  20
ATOM     20  C   UNL     1       0.295   9.796  20.498  0.00  0.00    +0.000 C 
ATOM     21  C   UNL     1      -0.319   9.834  19.096  0.00  0.00    +0.000 C 
BRANCH  20  22
ATOM     22  O   UNL     1       1.551   9.104  20.490  0.00  0.00    +0.000 OA
BRANCH  22  23
ATOM     23  C   UNL     1       1.504   7.751  20.473  0.00  0.00    +0.000 C 
ATOM     24  O   UNL     1       0.781   7.037  21.144  0.00  0.00    +0.000 OA
BRANCH  23  25
ATOM     25  C   UNL     1       2.487   7.217  19.504  0.00  0.00    +0.000 A 
ATOM     26  C   UNL     1       2.757   7.891  18.309  0.00  0.00    +0.000 A 
ATOM     27  C   UNL     1       3.624   7.321  17.373  0.00  0.00    +0.000 A 
ATOM     28  C   UNL     1       4.235   6.086  17.611  0.00  0.00    +0.000 A 
ATOM     29  C   UNL     1       3.972   5.430  18.816  0.00  0.00    +0.000 A 
ATOM     30  C   UNL     1       3.096   5.984  19.759  0.00  0.00    +0.000 A 
BRANCH  28  31
ATOM     31  N   UNL     1       5.101   5.458  16.687  0.00  0.00    +0.000 N 
ATOM     32  C   UNL     1       6.490   5.481  16.711  0.00  0.00    +0.000 C 
ATOM     33  O   UNL     1       7.193   6.050  17.541  0.00  0.00    +0.000 OA
ATOM     34  H   UNL     1       4.645   4.937  15.949  0.00  0.00    +0.000 HD
BRANCH  32  35
ATOM     35  C   UNL     1       7.140   4.720  15.578  0.00  0.00    +0.000 C 
BRANCH  35  36
ATOM     36  C   UNL     1       6.133   4.345  14.591  0.00  0.00    +0.000 C 
ATOM     37  N   UNL     1       5.358   4.050  13.776  0.00  0.00    +0.000 NA
ENDBRANCH  35  36
ENDBRANCH  32  35
ENDBRANCH  28  31
ENDBRANCH  23  25
ENDBRANCH  22  23
ENDBRANCH  20  22
ENDBRANCH   1  20
TORSDOF 11
ENDMDL
MODEL 9
REMARK VINA RESULT:      -7.1      5.032      9.862
REMARK  Name = 
REMARK  14 active torsions:
REMARK  status: ('A' for Active; 'I' for Inactive)
REMARK    1  A    between atoms: C_1  and  C_2
REMARK    2  A    between atoms: C_4  and  C_5
REMARK    3  A    between atoms: C_5  and  C_7
REMARK    4  A    between atoms: C_7  and  C_8
REMARK    5  A    between atoms: C_7  and  O_9
REMARK    6  A    between atoms: O_9  and  C_10
REMARK    7  A    between atoms: C_10  and  C_12
REMARK    8  A    between atoms: C_15  and  N_16
REMARK    9  A    between atoms: C_17  and  C_19
REMARK   10  A    between atoms: C_19  and  C_20
REMARK   11  A    between atoms: C_24  and  C_25
REMARK   12  A    between atoms: N_26  and  C_27
REMARK   13  A    between atoms: C_30  and  O_31
REMARK   14  A    between atoms: O_31  and  C_32
REMARK                            x       y       z     vdW  Elec       q    Type
REMARK                         _______ _______ _______ _____ _____    ______ ____
ROOT
ATOM      1  C   UNL     1       0.605   9.498  20.077  0.00  0.00    +0.000 C 
ATOM      2  O   UNL     1      -0.105   9.937  19.172  0.00  0.00    +0.000 OA
ENDROOT
BRANCH   1   6
ATOM      3  C   UNL     1       2.279   4.793  21.149  0.00  0.00    +0.000 C 
ATOM      4  C   UNL     1       1.980   6.057  20.410  0.00  0.00    +0.000 A 
ATOM      5  C   UNL     1       1.142   7.068  20.843  0.00  0.00    +0.000 A 
ATOM      6  C   UNL     1       1.260   8.174  19.965  0.00  0.00    +0.000 A 
ATOM      7  C   UNL     1       2.135   7.772  18.954  0.00  0.00    +0.000 A 
ATOM      8  C   UNL     1       2.479   8.536  17.710  0.00  0.00    +0.000 C 
ATOM      9  N   UNL     1       2.588   6.469  19.220  0.00  0.00    +0.000 N 
BRANCH   9  10
ATOM     10  C   UNL     1       3.487   5.693  18.404  0.00  0.00    +0.000 A 
ATOM     11  C   UNL     1       4.830   6.062  18.255  0.00  0.00    +0.000 A 
ATOM     12  C   UNL     1       5.672   5.373  17.377  0.00  0.00    +0.000 A 
ATOM     13  C   UNL     1       5.213   4.258  16.682  0.00  0.00    +0.000 A 
ATOM     14  C   UNL     1       3.890   3.858  16.841  0.00  0.00    +0.000 A 
ATOM     15  C   UNL     1       3.031   4.577  17.688  0.00  0.00    +0.000 A 
BRANCH  13  16
ATOM     16  O   UNL     1       6.127   3.673  15.854  0.00  0.00    +0.000 OA
BRANCH  16  17
ATOM     17  C   UNL     1       6.314   4.323  14.609  0.00  0.00    +0.000 C 
ATOM     18  F   UNL     1       5.317   5.224  14.428  0.00  0.00    +0.000 F 
ATOM     19  F   UNL     1       7.469   5.032  14.694  0.00  0.00    +0.000 F 
ENDBRANCH  16  17
ENDBRANCH  13  16
ENDBRANCH   9  10
ENDBRANCH   1   6
BRANCH   1  20
ATOM     20  C   UNL     1       0.927  10.373  21.313  0.00  0.00    +0.000 C 
ATOM     21  C   UNL     1       1.318   9.543  22.538  0.00  0.00    +0.000 C 
BRANCH  20  22
ATOM     22  O   UNL     1       1.871  11.429  21.086  0.00  0.00    +0.000 OA
BRANCH  22  23
ATOM     23  C   UNL     1       1.373  12.613  20.661  0.00  0.00    +0.000 C 
ATOM     24  O   UNL     1       0.204  12.956  20.657  0.00  0.00    +0.000 OA
BRANCH  23  25
ATOM     25  C   UNL     1       2.466  13.480  20.168  0.00  0.00    +0.000 A 
ATOM     26  C   UNL     1       2.596  13.769  18.806  0.00  0.00    +0.000 A 
ATOM     27  C   UNL     1       3.686  14.518  18.358  0.00  0.00    +0.000 A 
ATOM     28  C   UNL     1       4.653  14.994  19.249  0.00  0.00    +0.000 A 
ATOM     29  C   UNL     1       4.505  14.715  20.610  0.00  0.00    +0.000 A 
ATOM     30  C   UNL     1       3.422  13.955  21.072  0.00  0.00    +0.000 A 
BRANCH  28  31
ATOM     31  N   UNL     1       5.786  15.736  18.842  0.00  0.00    +0.000 N 
ATOM     32  C   UNL     1       6.945  15.227  18.272  0.00  0.00    +0.000 C 
ATOM     33  O   UNL     1       7.176  14.046  18.025  0.00  0.00    +0.000 OA
ATOM     34  H   UNL     1       5.721  16.737  18.979  0.00  0.00    +0.000 HD
BRANCH  32  35
ATOM     35  C   UNL     1       7.987  16.273  17.952  0.00  0.00    +0.000 C 
BRANCH  35  36
ATOM     36  C   UNL     1       7.823  17.423  18.834  0.00  0.00    +0.000 C 
ATOM     37  N   UNL     1       7.651  18.335  19.534  0.00  0.00    +0.000 NA
ENDBRANCH  35  36
ENDBRANCH  32  35
ENDBRANCH  28  31
ENDBRANCH  23  25
ENDBRANCH  22  23
ENDBRANCH  20  22
ENDBRANCH   1  20
TORSDOF 11
ENDMDL
