MODEL 1
REMARK VINA RESULT:      -7.4      0.000      0.000
REMARK  Name = 
REMARK  9 active torsions:
REMARK  status: ('A' for Active; 'I' for Inactive)
REMARK    1  A    between atoms: C_1  and  C_2
REMARK    2  A    between atoms: C_2  and  C_3
REMARK    3  A    between atoms: C_3  and  C_4
REMARK    4  A    between atoms: C_4  and  N_5
REMARK    5  A    between atoms: N_5  and  C_6
REMARK    6  A    between atoms: C_9  and  C_10
REMARK    7  A    between atoms: C_17  and  C_18
REMARK    8  A    between atoms: C_18  and  C_19
REMARK    9  A    between atoms: C_21  and  N_22
REMARK                            x       y       z     vdW  Elec       q    Type
REMARK                         _______ _______ _______ _____ _____    ______ ____
ROOT
ATOM      1  C   UNL     1       6.424   4.676  15.878  0.00  0.00    +0.000 A 
ATOM      2  C   UNL     1       5.289   3.903  15.655  0.00  0.00    +0.000 A 
ATOM      3  C   UNL     1       4.369   3.677  16.683  0.00  0.00    +0.000 A 
ATOM      4  C   UNL     1       4.593   4.129  17.998  0.00  0.00    +0.000 A 
ATOM      5  C   UNL     1       5.741   4.910  18.198  0.00  0.00    +0.000 A 
ATOM      6  C   UNL     1       6.575   5.284  17.142  0.00  0.00    +0.000 A 
ENDROOT
BRANCH   4   7
ATOM      7  C   UNL     1       3.688   3.745  19.119  0.00  0.00    +0.000 A 
ATOM      8  C   UNL     1       3.968   2.665  19.973  0.00  0.00    +0.000 A 
ATOM      9  N   UNL     1       5.072   1.819  19.793  0.00  0.00    +0.000 N 
ATOM     10  N   UNL     1       3.222   2.309  21.024  0.00  0.00    +0.000 NA
ATOM     11  C   UNL     1       2.161   3.064  21.284  0.00  0.00    +0.000 A 
ATOM     12  N   UNL     1       1.407   2.734  22.391  0.00  0.00    +0.000 N 
ATOM     13  N   UNL     1       1.766   4.092  20.543  0.00  0.00    +0.000 NA
ATOM     14  C   UNL     1       2.501   4.424  19.460  0.00  0.00    +0.000 A 
ATOM     15  H   UNL     1       5.935   2.347  19.720  0.00  0.00    +0.000 HD
ATOM     16  H   UNL     1       5.079   1.168  20.567  0.00  0.00    +0.000 HD
ATOM     17  H   UNL     1       1.536   1.754  22.603  0.00  0.00    +0.000 HD
ATOM     18  H   UNL     1       0.460   3.057  22.253  0.00  0.00    +0.000 HD
BRANCH  14  19
ATOM     19  C   UNL     1       1.991   5.640  18.713  0.00  0.00    +0.000 C 
ATOM     20  C   UNL     1       2.524   6.982  19.198  0.00  0.00    +0.000 C 
ENDBRANCH  14  19
ENDBRANCH   4   7
BRANCH   6  21
ATOM     21  N   UNL     1       7.695   6.119  17.386  0.00  0.00    +0.000 N 
ATOM     22  H   UNL     1       7.467   7.100  17.259  0.00  0.00    +0.000 HD
ATOM     23  H   UNL     1       8.442   5.834  16.747  0.00  0.00    +0.000 HD
ENDBRANCH   6  21
BRANCH   1  24
ATOM     24  N   UNL     1       7.408   4.934  14.909  0.00  0.00    +0.000 N 
ATOM     25  H   UNL     1       8.108   4.193  15.005  0.00  0.00    +0.000 HD
BRANCH  24  26
ATOM     26  C   UNL     1       7.020   5.182  13.527  0.00  0.00    +0.000 C 
BRANCH  26  27
ATOM     27  C   UNL     1       7.104   3.884  12.727  0.00  0.00    +0.000 C 
BRANCH  27  29
ATOM     28  C   UNL     1       5.839   2.048  11.553  0.00  0.00    +0.000 C 
ATOM     29  C   UNL     1       5.740   3.409  12.219  0.00  0.00    +0.000 C 
ENDBRANCH  27  29
ENDBRANCH  26  27
ENDBRANCH  24  26
ENDBRANCH   1  24
TORSDOF 7
ENDMDL
MODEL 2
REMARK VINA RESULT:      -7.3      1.118      1.170
REMARK  Name = 
REMARK  9 active torsions:
REMARK  status: ('A' for Active; 'I' for Inactive)
REMARK    1  A    between atoms: C_1  and  C_2
REMARK    2  A    between atoms: C_2  and  C_3
REMARK    3  A    between atoms: C_3  and  C_4
REMARK    4  A    between atoms: C_4  and  N_5
REMARK    5  A    between atoms: N_5  and  C_6
REMARK    6  A    between atoms: C_9  and  C_10
REMARK    7  A    between atoms: C_17  and  C_18
REMARK    8  A    between atoms: C_18  and  C_19
REMARK    9  A    between atoms: C_21  and  N_22
REMARK                            x       y       z     vdW  Elec       q    Type
REMARK                         _______ _______ _______ _____ _____    ______ ____
ROOT
ATOM      1  C   UNL     1       6.522   5.235  15.841  0.00  0.00    +0.000 A 
ATOM      2  C   UNL     1       5.188   5.598  15.685  0.00  0.00    +0.000 A 
ATOM      3  C   UNL     1       4.249   5.302  16.678  0.00  0.00    +0.000 A 
ATOM      4  C   UNL     1       4.581   4.548  17.820  0.00  0.00    +0.000 A 
ATOM      5  C   UNL     1       5.933   4.198  17.959  0.00  0.00    +0.000 A 
ATOM      6  C   UNL     1       6.908   4.635  17.059  0.00  0.00    +0.000 A 
ENDROOT
BRANCH   4   7
ATOM      7  C   UNL     1       3.540   4.102  18.789  0.00  0.00    +0.000 A 
ATOM      8  C   UNL     1       3.193   2.750  18.946  0.00  0.00    +0.000 A 
ATOM      9  N   UNL     1       3.735   1.728  18.153  0.00  0.00    +0.000 N 
ATOM     10  N   UNL     1       2.308   2.287  19.835  0.00  0.00    +0.000 NA
ATOM     11  C   UNL     1       1.752   3.183  20.643  0.00  0.00    +0.000 A 
ATOM     12  N   UNL     1       0.869   2.714  21.594  0.00  0.00    +0.000 N 
ATOM     13  N   UNL     1       1.968   4.491  20.583  0.00  0.00    +0.000 NA
ATOM     14  C   UNL     1       2.834   4.957  19.658  0.00  0.00    +0.000 A 
ATOM     15  H   UNL     1       4.749   1.755  18.156  0.00  0.00    +0.000 HD
ATOM     16  H   UNL     1       3.370   0.851  18.505  0.00  0.00    +0.000 HD
ATOM     17  H   UNL     1       0.479   1.835  21.283  0.00  0.00    +0.000 HD
ATOM     18  H   UNL     1       0.221   3.450  21.833  0.00  0.00    +0.000 HD
BRANCH  14  19
ATOM     19  C   UNL     1       3.045   6.457  19.706  0.00  0.00    +0.000 C 
ATOM     20  C   UNL     1       2.218   7.271  18.720  0.00  0.00    +0.000 C 
ENDBRANCH  14  19
ENDBRANCH   4   7
BRANCH   6  21
ATOM     21  N   UNL     1       8.269   4.298  17.271  0.00  0.00    +0.000 N 
ATOM     22  H   UNL     1       8.472   3.350  16.969  0.00  0.00    +0.000 HD
ATOM     23  H   UNL     1       8.467   4.412  18.268  0.00  0.00    +0.000 HD
ENDBRANCH   6  21
BRANCH   1  24
ATOM     24  N   UNL     1       7.524   5.474  14.886  0.00  0.00    +0.000 N 
ATOM     25  H   UNL     1       8.416   5.303  15.358  0.00  0.00    +0.000 HD
BRANCH  24  26
ATOM     26  C   UNL     1       7.440   4.850  13.573  0.00  0.00    +0.000 C 
BRANCH  26  27
ATOM     27  C   UNL     1       6.270   3.870  13.541  0.00  0.00    +0.000 C 
BRANCH  27  29
ATOM     28  C   UNL     1       4.590   3.313  11.747  0.00  0.00    +0.000 C 
ATOM     29  C   UNL     1       6.051   3.250  12.159  0.00  0.00    +0.000 C 
ENDBRANCH  27  29
ENDBRANCH  26  27
ENDBRANCH  24  26
ENDBRANCH   1  24
TORSDOF 7
ENDMDL
MODEL 3
REMARK VINA RESULT:      -6.9      2.729      4.474
REMARK  Name = 
REMARK  9 active torsions:
REMARK  status: ('A' for Active; 'I' for Inactive)
REMARK    1  A    between atoms: C_1  and  C_2
REMARK    2  A    between atoms: C_2  and  C_3
REMARK    3  A    between atoms: C_3  and  C_4
REMARK    4  A    between atoms: C_4  and  N_5
REMARK    5  A    between atoms: N_5  and  C_6
REMARK    6  A    between atoms: C_9  and  C_10
REMARK    7  A    between atoms: C_17  and  C_18
REMARK    8  A    between atoms: C_18  and  C_19
REMARK    9  A    between atoms: C_21  and  N_22
REMARK                            x       y       z     vdW  Elec       q    Type
REMARK                         _______ _______ _______ _____ _____    ______ ____
ROOT
ATOM      1  C   UNL     1       6.968   6.674  17.629  0.00  0.00    +0.000 A 
ATOM      2  C   UNL     1       7.206   6.066  18.857  0.00  0.00    +0.000 A 
ATOM      3  C   UNL     1       6.216   5.295  19.474  0.00  0.00    +0.000 A 
ATOM      4  C   UNL     1       4.918   5.179  18.940  0.00  0.00    +0.000 A 
ATOM      5  C   UNL     1       4.703   5.796  17.698  0.00  0.00    +0.000 A 
ATOM      6  C   UNL     1       5.733   6.423  16.994  0.00  0.00    +0.000 A 
ENDROOT
BRANCH   4   7
ATOM      7  C   UNL     1       3.827   4.490  19.686  0.00  0.00    +0.000 A 
ATOM      8  C   UNL     1       3.883   3.123  20.003  0.00  0.00    +0.000 A 
ATOM      9  N   UNL     1       4.925   2.285  19.577  0.00  0.00    +0.000 N 
ATOM     10  N   UNL     1       2.962   2.465  20.714  0.00  0.00    +0.000 NA
ATOM     11  C   UNL     1       1.943   3.181  21.175  0.00  0.00    +0.000 A 
ATOM     12  N   UNL     1       1.007   2.524  21.947  0.00  0.00    +0.000 N 
ATOM     13  N   UNL     1       1.752   4.470  20.925  0.00  0.00    +0.000 NA
ATOM     14  C   UNL     1       2.666   5.122  20.174  0.00  0.00    +0.000 A 
ATOM     15  H   UNL     1       5.831   2.665  19.827  0.00  0.00    +0.000 HD
ATOM     16  H   UNL     1       4.761   1.373  19.985  0.00  0.00    +0.000 HD
ATOM     17  H   UNL     1       1.018   1.539  21.719  0.00  0.00    +0.000 HD
ATOM     18  H   UNL     1       0.123   3.007  21.874  0.00  0.00    +0.000 HD
BRANCH  14  19
ATOM     19  C   UNL     1       2.380   6.599  19.991  0.00  0.00    +0.000 C 
ATOM     20  C   UNL     1       1.304   7.179  20.899  0.00  0.00    +0.000 C 
ENDBRANCH  14  19
ENDBRANCH   4   7
BRANCH   6  21
ATOM     21  N   UNL     1       5.477   6.987  15.718  0.00  0.00    +0.000 N 
ATOM     22  H   UNL     1       4.493   6.930  15.473  0.00  0.00    +0.000 HD
ATOM     23  H   UNL     1       6.050   6.486  15.035  0.00  0.00    +0.000 HD
ENDBRANCH   6  21
BRANCH   1  24
ATOM     24  N   UNL     1       7.897   7.480  16.952  0.00  0.00    +0.000 N 
ATOM     25  H   UNL     1       7.771   7.288  15.955  0.00  0.00    +0.000 HD
BRANCH  24  26
ATOM     26  C   UNL     1       7.985   8.901  17.257  0.00  0.00    +0.000 C 
BRANCH  26  27
ATOM     27  C   UNL     1       8.713   9.100  18.584  0.00  0.00    +0.000 C 
BRANCH  27  29
ATOM     28  C   UNL     1       9.545  10.814  20.233  0.00  0.00    +0.000 C 
ATOM     29  C   UNL     1       9.217  10.533  18.777  0.00  0.00    +0.000 C 
ENDBRANCH  27  29
ENDBRANCH  26  27
ENDBRANCH  24  26
ENDBRANCH   1  24
TORSDOF 7
ENDMDL
MODEL 4
REMARK VINA RESULT:      -6.8      1.990      6.662
REMARK  Name = 
REMARK  9 active torsions:
REMARK  status: ('A' for Active; 'I' for Inactive)
REMARK    1  A    between atoms: C_1  and  C_2
REMARK    2  A    between atoms: C_2  and  C_3
REMARK    3  A    between atoms: C_3  and  C_4
REMARK    4  A    between atoms: C_4  and  N_5
REMARK    5  A    between atoms: N_5  and  C_6
REMARK    6  A    between atoms: C_9  and  C_10
REMARK    7  A    between atoms: C_17  and  C_18
REMARK    8  A    between atoms: C_18  and  C_19
REMARK    9  A    between atoms: C_21  and  N_22
REMARK                            x       y       z     vdW  Elec       q    Type
REMARK                         _______ _______ _______ _____ _____    ______ ____
ROOT
ATOM      1  C   UNL     1       3.273   4.485  20.378  0.00  0.00    +0.000 A 
ATOM      2  C   UNL     1       4.233   3.533  20.052  0.00  0.00    +0.000 A 
ATOM      3  C   UNL     1       5.116   3.747  18.989  0.00  0.00    +0.000 A 
ATOM      4  C   UNL     1       5.013   4.871  18.148  0.00  0.00    +0.000 A 
ATOM      5  C   UNL     1       4.041   5.821  18.499  0.00  0.00    +0.000 A 
ATOM      6  C   UNL     1       3.271   5.698  19.658  0.00  0.00    +0.000 A 
ENDROOT
BRANCH   4   7
ATOM      7  C   UNL     1       5.852   5.008  16.924  0.00  0.00    +0.000 A 
ATOM      8  C   UNL     1       5.534   4.357  15.720  0.00  0.00    +0.000 A 
ATOM      9  N   UNL     1       4.455   3.470  15.596  0.00  0.00    +0.000 N 
ATOM     10  N   UNL     1       6.219   4.486  14.579  0.00  0.00    +0.000 NA
ATOM     11  C   UNL     1       7.252   5.320  14.594  0.00  0.00    +0.000 A 
ATOM     12  N   UNL     1       7.941   5.496  13.412  0.00  0.00    +0.000 N 
ATOM     13  N   UNL     1       7.678   5.974  15.668  0.00  0.00    +0.000 NA
ATOM     14  C   UNL     1       7.006   5.811  16.828  0.00  0.00    +0.000 A 
ATOM     15  H   UNL     1       3.591   3.891  15.921  0.00  0.00    +0.000 HD
ATOM     16  H   UNL     1       4.408   3.189  14.625  0.00  0.00    +0.000 HD
ATOM     17  H   UNL     1       7.812   4.681  12.827  0.00  0.00    +0.000 HD
ATOM     18  H   UNL     1       8.890   5.770  13.621  0.00  0.00    +0.000 HD
BRANCH  14  19
ATOM     19  C   UNL     1       7.545   6.638  17.978  0.00  0.00    +0.000 C 
ATOM     20  C   UNL     1       7.761   8.117  17.682  0.00  0.00    +0.000 C 
ENDBRANCH  14  19
ENDBRANCH   4   7
BRANCH   6  21
ATOM     21  N   UNL     1       2.338   6.710  19.998  0.00  0.00    +0.000 N 
ATOM     22  H   UNL     1       1.803   7.015  19.189  0.00  0.00    +0.000 HD
ATOM     23  H   UNL     1       2.858   7.491  20.404  0.00  0.00    +0.000 HD
ENDBRANCH   6  21
BRANCH   1  24
ATOM     24  N   UNL     1       2.336   4.341  21.415  0.00  0.00    +0.000 N 
ATOM     25  H   UNL     1       1.955   5.275  21.589  0.00  0.00    +0.000 HD
BRANCH  24  26
ATOM     26  C   UNL     1       1.313   3.308  21.332  0.00  0.00    +0.000 C 
BRANCH  26  27
ATOM     27  C   UNL     1       0.585   3.410  19.994  0.00  0.00    +0.000 C 
BRANCH  27  29
ATOM     28  C   UNL     1       1.734   2.679  17.874  0.00  0.00    +0.000 C 
ATOM     29  C   UNL     1       0.892   2.238  19.058  0.00  0.00    +0.000 C 
ENDBRANCH  27  29
ENDBRANCH  26  27
ENDBRANCH  24  26
ENDBRANCH   1  24
TORSDOF 7
ENDMDL
MODEL 5
REMARK VINA RESULT:      -6.8      3.815      6.710
REMARK  Name = 
REMARK  9 active torsions:
REMARK  status: ('A' for Active; 'I' for Inactive)
REMARK    1  A    between atoms: C_1  and  C_2
REMARK    2  A    between atoms: C_2  and  C_3
REMARK    3  A    between atoms: C_3  and  C_4
REMARK    4  A    between atoms: C_4  and  N_5
REMARK    5  A    between atoms: N_5  and  C_6
REMARK    6  A    between atoms: C_9  and  C_10
REMARK    7  A    between atoms: C_17  and  C_18
REMARK    8  A    between atoms: C_18  and  C_19
REMARK    9  A    between atoms: C_21  and  N_22
REMARK                            x       y       z     vdW  Elec       q    Type
REMARK                         _______ _______ _______ _____ _____    ______ ____
ROOT
ATOM      1  C   UNL     1       1.602   8.852  19.111  0.00  0.00    +0.000 A 
ATOM      2  C   UNL     1       2.050   8.165  17.987  0.00  0.00    +0.000 A 
ATOM      3  C   UNL     1       2.508   6.849  18.093  0.00  0.00    +0.000 A 
ATOM      4  C   UNL     1       2.631   6.198  19.336  0.00  0.00    +0.000 A 
ATOM      5  C   UNL     1       2.168   6.908  20.455  0.00  0.00    +0.000 A 
ATOM      6  C   UNL     1       1.552   8.156  20.337  0.00  0.00    +0.000 A 
ENDROOT
BRANCH   4   7
ATOM      7  C   UNL     1       3.271   4.857  19.454  0.00  0.00    +0.000 A 
ATOM      8  C   UNL     1       4.663   4.681  19.379  0.00  0.00    +0.000 A 
ATOM      9  N   UNL     1       5.550   5.734  19.108  0.00  0.00    +0.000 N 
ATOM     10  N   UNL     1       5.294   3.513  19.531  0.00  0.00    +0.000 NA
ATOM     11  C   UNL     1       4.536   2.458  19.807  0.00  0.00    +0.000 A 
ATOM     12  N   UNL     1       5.178   1.253  20.009  0.00  0.00    +0.000 N 
ATOM     13  N   UNL     1       3.211   2.478  19.877  0.00  0.00    +0.000 NA
ATOM     14  C   UNL     1       2.575   3.654  19.684  0.00  0.00    +0.000 A 
ATOM     15  H   UNL     1       5.403   6.514  19.740  0.00  0.00    +0.000 HD
ATOM     16  H   UNL     1       6.487   5.358  19.168  0.00  0.00    +0.000 HD
ATOM     17  H   UNL     1       6.070   1.267  19.534  0.00  0.00    +0.000 HD
ATOM     18  H   UNL     1       4.544   0.500  19.784  0.00  0.00    +0.000 HD
BRANCH  14  19
ATOM     19  C   UNL     1       1.069   3.577  19.834  0.00  0.00    +0.000 C 
ATOM     20  C   UNL     1       0.362   2.612  18.891  0.00  0.00    +0.000 C 
ENDBRANCH  14  19
ENDBRANCH   4   7
BRANCH   6  21
ATOM     21  N   UNL     1       1.053   8.810  21.492  0.00  0.00    +0.000 N 
ATOM     22  H   UNL     1       1.794   9.276  22.008  0.00  0.00    +0.000 HD
ATOM     23  H   UNL     1       0.591   8.108  22.073  0.00  0.00    +0.000 HD
ENDBRANCH   6  21
BRANCH   1  24
ATOM     24  N   UNL     1       1.146  10.180  19.096  0.00  0.00    +0.000 N 
ATOM     25  H   UNL     1       1.640  10.645  18.329  0.00  0.00    +0.000 HD
BRANCH  24  26
ATOM     26  C   UNL     1      -0.283  10.459  19.113  0.00  0.00    +0.000 C 
BRANCH  26  27
ATOM     27  C   UNL     1      -0.892  10.111  17.756  0.00  0.00    +0.000 C 
BRANCH  27  29
ATOM     28  C   UNL     1      -3.362   9.664  17.539  0.00  0.00    +0.000 C 
ATOM     29  C   UNL     1      -2.278  10.727  17.551  0.00  0.00    +0.000 C 
ENDBRANCH  27  29
ENDBRANCH  26  27
ENDBRANCH  24  26
ENDBRANCH   1  24
TORSDOF 7
ENDMDL
MODEL 6
REMARK VINA RESULT:      -6.8      3.206      4.934
REMARK  Name = 
REMARK  9 active torsions:
REMARK  status: ('A' for Active; 'I' for Inactive)
REMARK    1  A    between atoms: C_1  and  C_2
REMARK    2  A    between atoms: C_2  and  C_3
REMARK    3  A    between atoms: C_3  and  C_4
REMARK    4  A    between atoms: C_4  and  N_5
REMARK    5  A    between atoms: N_5  and  C_6
REMARK    6  A    between atoms: C_9  and  C_10
REMARK    7  A    between atoms: C_17  and  C_18
REMARK    8  A    between atoms: C_18  and  C_19
REMARK    9  A    between atoms: C_21  and  N_22
REMARK                            x       y       z     vdW  Elec       q    Type
REMARK                         _______ _______ _______ _____ _____    ______ ____
ROOT
ATOM      1  C   UNL     1       7.116   6.952  18.006  0.00  0.00    +0.000 A 
ATOM      2  C   UNL     1       5.956   7.171  17.271  0.00  0.00    +0.000 A 
ATOM      3  C   UNL     1       4.827   6.370  17.465  0.00  0.00    +0.000 A 
ATOM      4  C   UNL     1       4.841   5.257  18.328  0.00  0.00    +0.000 A 
ATOM      5  C   UNL     1       6.020   5.059  19.064  0.00  0.00    +0.000 A 
ATOM      6  C   UNL     1       7.090   5.954  19.002  0.00  0.00    +0.000 A 
ENDROOT
BRANCH   4   7
ATOM      7  C   UNL     1       3.687   4.317  18.406  0.00  0.00    +0.000 A 
ATOM      8  C   UNL     1       3.623   3.144  17.636  0.00  0.00    +0.000 A 
ATOM      9  N   UNL     1       4.593   2.807  16.680  0.00  0.00    +0.000 N 
ATOM     10  N   UNL     1       2.641   2.239  17.703  0.00  0.00    +0.000 NA
ATOM     11  C   UNL     1       1.682   2.465  18.594  0.00  0.00    +0.000 A 
ATOM     12  N   UNL     1       0.686   1.518  18.705  0.00  0.00    +0.000 N 
ATOM     13  N   UNL     1       1.605   3.545  19.362  0.00  0.00    +0.000 NA
ATOM     14  C   UNL     1       2.580   4.475  19.263  0.00  0.00    +0.000 A 
ATOM     15  H   UNL     1       5.526   2.827  17.077  0.00  0.00    +0.000 HD
ATOM     16  H   UNL     1       4.347   1.896  16.313  0.00  0.00    +0.000 HD
ATOM     17  H   UNL     1       0.615   1.005  17.836  0.00  0.00    +0.000 HD
ATOM     18  H   UNL     1      -0.153   1.961  19.051  0.00  0.00    +0.000 HD
BRANCH  14  19
ATOM     19  C   UNL     1       2.423   5.642  20.217  0.00  0.00    +0.000 C 
ATOM     20  C   UNL     1       2.090   6.981  19.571  0.00  0.00    +0.000 C 
ENDBRANCH  14  19
ENDBRANCH   4   7
BRANCH   6  21
ATOM     21  N   UNL     1       8.240   5.737  19.805  0.00  0.00    +0.000 N 
ATOM     22  H   UNL     1       9.063   6.181  19.407  0.00  0.00    +0.000 HD
ATOM     23  H   UNL     1       8.376   4.728  19.889  0.00  0.00    +0.000 HD
ENDBRANCH   6  21
BRANCH   1  24
ATOM     24  N   UNL     1       8.299   7.695  17.858  0.00  0.00    +0.000 N 
ATOM     25  H   UNL     1       8.756   7.342  17.013  0.00  0.00    +0.000 HD
BRANCH  24  26
ATOM     26  C   UNL     1       8.258   9.149  17.926  0.00  0.00    +0.000 C 
BRANCH  26  27
ATOM     27  C   UNL     1       9.083   9.634  19.115  0.00  0.00    +0.000 C 
BRANCH  27  29
ATOM     28  C   UNL     1      10.203  11.638  20.154  0.00  0.00    +0.000 C 
ATOM     29  C   UNL     1       9.764  10.981  18.857  0.00  0.00    +0.000 C 
ENDBRANCH  27  29
ENDBRANCH  26  27
ENDBRANCH  24  26
ENDBRANCH   1  24
TORSDOF 7
ENDMDL
MODEL 7
REMARK VINA RESULT:      -6.7      3.793      8.176
REMARK  Name = 
REMARK  9 active torsions:
REMARK  status: ('A' for Active; 'I' for Inactive)
REMARK    1  A    between atoms: C_1  and  C_2
REMARK    2  A    between atoms: C_2  and  C_3
REMARK    3  A    between atoms: C_3  and  C_4
REMARK    4  A    between atoms: C_4  and  N_5
REMARK    5  A    between atoms: N_5  and  C_6
REMARK    6  A    between atoms: C_9  and  C_10
REMARK    7  A    between atoms: C_17  and  C_18
REMARK    8  A    between atoms: C_18  and  C_19
REMARK    9  A    between atoms: C_21  and  N_22
REMARK                            x       y       z     vdW  Elec       q    Type
REMARK                         _______ _______ _______ _____ _____    ______ ____
ROOT
ATOM      1  C   UNL     1       1.056   8.997  19.895  0.00  0.00    +0.000 A 
ATOM      2  C   UNL     1       1.574   7.902  20.578  0.00  0.00    +0.000 A 
ATOM      3  C   UNL     1       2.419   6.994  19.933  0.00  0.00    +0.000 A 
ATOM      4  C   UNL     1       2.701   7.086  18.556  0.00  0.00    +0.000 A 
ATOM      5  C   UNL     1       2.172   8.202  17.889  0.00  0.00    +0.000 A 
ATOM      6  C   UNL     1       1.471   9.204  18.563  0.00  0.00    +0.000 A 
ENDROOT
BRANCH   4   7
ATOM      7  C   UNL     1       3.469   6.025  17.845  0.00  0.00    +0.000 A 
ATOM      8  C   UNL     1       4.807   6.202  17.454  0.00  0.00    +0.000 A 
ATOM      9  N   UNL     1       5.497   7.411  17.628  0.00  0.00    +0.000 N 
ATOM     10  N   UNL     1       5.560   5.269  16.863  0.00  0.00    +0.000 NA
ATOM     11  C   UNL     1       4.996   4.082  16.671  0.00  0.00    +0.000 A 
ATOM     12  N   UNL     1       5.775   3.097  16.102  0.00  0.00    +0.000 N 
ATOM     13  N   UNL     1       3.735   3.790  16.965  0.00  0.00    +0.000 NA
ATOM     14  C   UNL     1       2.967   4.748  17.527  0.00  0.00    +0.000 A 
ATOM     15  H   UNL     1       5.444   7.733  18.588  0.00  0.00    +0.000 HD
ATOM     16  H   UNL     1       6.450   7.259  17.322  0.00  0.00    +0.000 HD
ATOM     17  H   UNL     1       6.513   3.526  15.560  0.00  0.00    +0.000 HD
ATOM     18  H   UNL     1       5.176   2.436  15.627  0.00  0.00    +0.000 HD
BRANCH  14  19
ATOM     19  C   UNL     1       1.561   4.296  17.867  0.00  0.00    +0.000 C 
ATOM     20  C   UNL     1       1.454   3.245  18.964  0.00  0.00    +0.000 C 
ENDBRANCH  14  19
ENDBRANCH   4   7
BRANCH   6  21
ATOM     21  N   UNL     1       1.001  10.339  17.853  0.00  0.00    +0.000 N 
ATOM     22  H   UNL     1      -0.005  10.303  17.712  0.00  0.00    +0.000 HD
ATOM     23  H   UNL     1       1.492  10.372  16.957  0.00  0.00    +0.000 HD
ENDBRANCH   6  21
BRANCH   1  24
ATOM     24  N   UNL     1       0.186   9.943  20.461  0.00  0.00    +0.000 N 
ATOM     25  H   UNL     1      -0.737   9.502  20.492  0.00  0.00    +0.000 HD
BRANCH  24  26
ATOM     26  C   UNL     1       0.546  10.611  21.704  0.00  0.00    +0.000 C 
BRANCH  26  27
ATOM     27  C   UNL     1      -0.441  10.222  22.803  0.00  0.00    +0.000 C 
BRANCH  27  29
ATOM     28  C   UNL     1      -1.013  12.675  22.831  0.00  0.00    +0.000 C 
ATOM     29  C   UNL     1      -1.544  11.263  23.007  0.00  0.00    +0.000 C 
ENDBRANCH  27  29
ENDBRANCH  26  27
ENDBRANCH  24  26
ENDBRANCH   1  24
TORSDOF 7
ENDMDL
MODEL 8
REMARK VINA RESULT:      -6.6      3.803      7.135
REMARK  Name = 
REMARK  9 active torsions:
REMARK  status: ('A' for Active; 'I' for Inactive)
REMARK    1  A    between atoms: C_1  and  C_2
REMARK    2  A    between atoms: C_2  and  C_3
REMARK    3  A    between atoms: C_3  and  C_4
REMARK    4  A    between atoms: C_4  and  N_5
REMARK    5  A    between atoms: N_5  and  C_6
REMARK    6  A    between atoms: C_9  and  C_10
REMARK    7  A    between atoms: C_17  and  C_18
REMARK    8  A    between atoms: C_18  and  C_19
REMARK    9  A    between atoms: C_21  and  N_22
REMARK                            x       y       z     vdW  Elec       q    Type
REMARK                         _______ _______ _______ _____ _____    ______ ____
ROOT
ATOM      1  C   UNL     1       1.616   8.892  19.067  0.00  0.00    +0.000 A 
ATOM      2  C   UNL     1       2.053   8.199  17.944  0.00  0.00    +0.000 A 
ATOM      3  C   UNL     1       2.505   6.880  18.052  0.00  0.00    +0.000 A 
ATOM      4  C   UNL     1       2.632   6.234  19.296  0.00  0.00    +0.000 A 
ATOM      5  C   UNL     1       2.179   6.951  20.415  0.00  0.00    +0.000 A 
ATOM      6  C   UNL     1       1.569   8.201  20.296  0.00  0.00    +0.000 A 
ENDROOT
BRANCH   4   7
ATOM      7  C   UNL     1       3.265   4.890  19.416  0.00  0.00    +0.000 A 
ATOM      8  C   UNL     1       4.657   4.708  19.349  0.00  0.00    +0.000 A 
ATOM      9  N   UNL     1       5.550   5.757  19.086  0.00  0.00    +0.000 N 
ATOM     10  N   UNL     1       5.282   3.536  19.503  0.00  0.00    +0.000 NA
ATOM     11  C   UNL     1       4.518   2.484  19.771  0.00  0.00    +0.000 A 
ATOM     12  N   UNL     1       5.153   1.277  19.975  0.00  0.00    +0.000 N 
ATOM     13  N   UNL     1       3.193   2.510  19.833  0.00  0.00    +0.000 NA
ATOM     14  C   UNL     1       2.563   3.689  19.639  0.00  0.00    +0.000 A 
ATOM     15  H   UNL     1       5.402   6.536  19.719  0.00  0.00    +0.000 HD
ATOM     16  H   UNL     1       6.485   5.377  19.151  0.00  0.00    +0.000 HD
ATOM     17  H   UNL     1       6.049   1.288  19.506  0.00  0.00    +0.000 HD
ATOM     18  H   UNL     1       4.518   0.527  19.744  0.00  0.00    +0.000 HD
BRANCH  14  19
ATOM     19  C   UNL     1       1.055   3.618  19.778  0.00  0.00    +0.000 C 
ATOM     20  C   UNL     1       0.361   2.581  18.905  0.00  0.00    +0.000 C 
ENDBRANCH  14  19
ENDBRANCH   4   7
BRANCH   6  21
ATOM     21  N   UNL     1       1.080   8.862  21.451  0.00  0.00    +0.000 N 
ATOM     22  H   UNL     1       0.068   8.803  21.518  0.00  0.00    +0.000 HD
ATOM     23  H   UNL     1       1.384   9.837  21.405  0.00  0.00    +0.000 HD
ENDBRANCH   6  21
BRANCH   1  24
ATOM     24  N   UNL     1       1.167  10.223  19.050  0.00  0.00    +0.000 N 
ATOM     25  H   UNL     1       1.957  10.788  18.729  0.00  0.00    +0.000 HD
BRANCH  24  26
ATOM     26  C   UNL     1      -0.087  10.559  18.390  0.00  0.00    +0.000 C 
BRANCH  26  27
ATOM     27  C   UNL     1      -1.199  10.684  19.429  0.00  0.00    +0.000 C 
BRANCH  27  29
ATOM     28  C   UNL     1      -1.260  11.692  21.738  0.00  0.00    +0.000 C 
ATOM     29  C   UNL     1      -1.100  11.971  20.253  0.00  0.00    +0.000 C 
ENDBRANCH  27  29
ENDBRANCH  26  27
ENDBRANCH  24  26
ENDBRANCH   1  24
TORSDOF 7
ENDMDL
MODEL 9
REMARK VINA RESULT:      -6.6      2.739      7.879
REMARK  Name = 
REMARK  9 active torsions:
REMARK  status: ('A' for Active; 'I' for Inactive)
REMARK    1  A    between atoms: C_1  and  C_2
REMARK    2  A    between atoms: C_2  and  C_3
REMARK    3  A    between atoms: C_3  and  C_4
REMARK    4  A    between atoms: C_4  and  N_5
REMARK    5  A    between atoms: N_5  and  C_6
REMARK    6  A    between atoms: C_9  and  C_10
REMARK    7  A    between atoms: C_17  and  C_18
REMARK    8  A    between atoms: C_18  and  C_19
REMARK    9  A    between atoms: C_21  and  N_22
REMARK                            x       y       z     vdW  Elec       q    Type
REMARK                         _______ _______ _______ _____ _____    ______ ____
ROOT
ATOM      1  C   UNL     1       2.226   6.908  19.971  0.00  0.00    +0.000 A 
ATOM      2  C   UNL     1       2.420   7.644  18.807  0.00  0.00    +0.000 A 
ATOM      3  C   UNL     1       3.296   7.192  17.816  0.00  0.00    +0.000 A 
ATOM      4  C   UNL     1       4.088   6.041  17.987  0.00  0.00    +0.000 A 
ATOM      5  C   UNL     1       3.871   5.311  19.167  0.00  0.00    +0.000 A 
ATOM      6  C   UNL     1       2.877   5.661  20.082  0.00  0.00    +0.000 A 
ENDROOT
BRANCH   4   7
ATOM      7  C   UNL     1       5.134   5.658  16.997  0.00  0.00    +0.000 A 
ATOM      8  C   UNL     1       4.989   4.553  16.143  0.00  0.00    +0.000 A 
ATOM      9  N   UNL     1       3.893   3.679  16.208  0.00  0.00    +0.000 N 
ATOM     10  N   UNL     1       5.867   4.195  15.200  0.00  0.00    +0.000 NA
ATOM     11  C   UNL     1       6.933   4.974  15.053  0.00  0.00    +0.000 A 
ATOM     12  N   UNL     1       7.826   4.642  14.056  0.00  0.00    +0.000 N 
ATOM     13  N   UNL     1       7.207   6.029  15.810  0.00  0.00    +0.000 NA
ATOM     14  C   UNL     1       6.336   6.364  16.786  0.00  0.00    +0.000 A 
ATOM     15  H   UNL     1       3.014   4.183  16.160  0.00  0.00    +0.000 HD
ATOM     16  H   UNL     1       3.998   3.011  15.455  0.00  0.00    +0.000 HD
ATOM     17  H   UNL     1       7.749   3.654  13.854  0.00  0.00    +0.000 HD
ATOM     18  H   UNL     1       8.740   4.995  14.300  0.00  0.00    +0.000 HD
BRANCH  14  19
ATOM     19  C   UNL     1       6.718   7.610  17.559  0.00  0.00    +0.000 C 
ATOM     20  C   UNL     1       8.077   7.569  18.245  0.00  0.00    +0.000 C 
ENDBRANCH  14  19
ENDBRANCH   4   7
BRANCH   6  21
ATOM     21  N   UNL     1       2.662   4.862  21.234  0.00  0.00    +0.000 N 
ATOM     22  H   UNL     1       3.078   3.941  21.134  0.00  0.00    +0.000 HD
ATOM     23  H   UNL     1       1.652   4.790  21.380  0.00  0.00    +0.000 HD
ENDBRANCH   6  21
BRANCH   1  24
ATOM     24  N   UNL     1       1.382   7.300  21.023  0.00  0.00    +0.000 N 
ATOM     25  H   UNL     1       1.777   6.891  21.874  0.00  0.00    +0.000 HD
BRANCH  24  26
ATOM     26  C   UNL     1       1.011   8.699  21.175  0.00  0.00    +0.000 C 
BRANCH  26  27
ATOM     27  C   UNL     1      -0.371   8.800  21.816  0.00  0.00    +0.000 C 
BRANCH  27  29
ATOM     28  C   UNL     1      -0.764  11.105  22.756  0.00  0.00    +0.000 C 
ATOM     29  C   UNL     1      -0.380   9.671  23.076  0.00  0.00    +0.000 C 
ENDBRANCH  27  29
ENDBRANCH  26  27
ENDBRANCH  24  26
ENDBRANCH   1  24
TORSDOF 7
ENDMDL
