MODEL 1
REMARK VINA RESULT:      -8.2      0.000      0.000
REMARK  Name = 
REMARK  3 active torsions:
REMARK  status: ('A' for Active; 'I' for Inactive)
REMARK    1  A    between atoms: C_2  and  C_11
REMARK    2  A    between atoms: N_3  and  C_4
REMARK    3  A    between atoms: C_4  and  C_5
REMARK                            x       y       z     vdW  Elec       q    Type
REMARK                         _______ _______ _______ _____ _____    ______ ____
ROOT
ATOM      1  C   UNL     1       1.663   8.058  19.071  0.00  0.00    +0.000 C 
ATOM      2  C   UNL     1       1.490   9.577  18.855  0.00  0.00    +0.000 C 
ATOM      3  N   UNL     1       0.622  10.197  19.870  0.00  0.00    +0.000 N 
ATOM      4  C   UNL     1      -0.626  10.670  19.506  0.00  0.00    +0.000 A 
ATOM      5  C   UNL     1      -1.254  11.679  20.240  0.00  0.00    +0.000 A 
ATOM      6  N   UNL     1      -2.460  12.221  19.941  0.00  0.00    +0.000 NA
ATOM      7  C   UNL     1      -3.061  11.729  18.850  0.00  0.00    +0.000 A 
ATOM      8  C   UNL     1      -4.307  12.227  18.483  0.00  0.00    +0.000 A 
ATOM      9  C   UNL     1      -4.984  11.737  17.368  0.00  0.00    +0.000 A 
ATOM     10  C   UNL     1      -4.398  10.737  16.603  0.00  0.00    +0.000 A 
ATOM     11  C   UNL     1      -3.140  10.240  16.958  0.00  0.00    +0.000 A 
ATOM     12  C   UNL     1      -2.454  10.713  18.073  0.00  0.00    +0.000 A 
ATOM     13  N   UNL     1      -1.242  10.198  18.399  0.00  0.00    +0.000 NA
ATOM     14  C   UNL     1       0.868   9.796  21.262  0.00  0.00    +0.000 C 
ATOM     15  C   UNL     1       1.063   8.266  21.391  0.00  0.00    +0.000 C 
ATOM     16  N   UNL     1       2.075   7.703  20.470  0.00  0.00    +0.000 NA
ATOM     17  H   UNL     1       2.041   6.686  20.550  0.00  0.00    +0.000 HD
ENDROOT
BRANCH   1  19
ATOM     18  O   UNL     1       3.199   8.302  17.205  0.00  0.00    +0.000 OA
ATOM     19  C   UNL     1       2.700   7.554  18.045  0.00  0.00    +0.000 C 
ATOM     20  N   UNL     1       3.018   6.214  18.121  0.00  0.00    +0.000 N 
ATOM     21  H   UNL     1       2.776   5.757  18.995  0.00  0.00    +0.000 HD
BRANCH  20  22
ATOM     22  C   UNL     1       4.074   5.666  17.298  0.00  0.00    +0.000 C 
BRANCH  22  23
ATOM     23  C   UNL     1       5.424   5.834  17.929  0.00  0.00    +0.000 A 
ATOM     24  C   UNL     1       6.403   6.643  17.343  0.00  0.00    +0.000 A 
ATOM     25  C   UNL     1       7.643   6.786  17.958  0.00  0.00    +0.000 A 
ATOM     26  C   UNL     1       7.869   6.103  19.141  0.00  0.00    +0.000 A 
ATOM     27  N   UNL     1       6.955   5.306  19.733  0.00  0.00    +0.000 NA
ATOM     28  C   UNL     1       5.755   5.192  19.117  0.00  0.00    +0.000 A 
ENDBRANCH  22  23
ENDBRANCH  20  22
ENDBRANCH   1  19
TORSDOF 3
ENDMDL
MODEL 2
REMARK VINA RESULT:      -8.0      6.039      8.206
REMARK  Name = 
REMARK  3 active torsions:
REMARK  status: ('A' for Active; 'I' for Inactive)
REMARK    1  A    between atoms: C_2  and  C_11
REMARK    2  A    between atoms: N_3  and  C_4
REMARK    3  A    between atoms: C_4  and  C_5
REMARK                            x       y       z     vdW  Elec       q    Type
REMARK                         _______ _______ _______ _____ _____    ______ ____
ROOT
ATOM      1  C   UNL     1       6.983   6.443  17.552  0.00  0.00    +0.000 C 
ATOM      2  C   UNL     1       6.823   5.030  18.152  0.00  0.00    +0.000 C 
ATOM      3  N   UNL     1       5.989   4.151  17.316  0.00  0.00    +0.000 N 
ATOM      4  C   UNL     1       4.738   3.766  17.765  0.00  0.00    +0.000 A 
ATOM      5  C   UNL     1       4.140   2.589  17.306  0.00  0.00    +0.000 A 
ATOM      6  N   UNL     1       2.934   2.123  17.710  0.00  0.00    +0.000 NA
ATOM      7  C   UNL     1       2.300   2.870  18.622  0.00  0.00    +0.000 A 
ATOM      8  C   UNL     1       1.052   2.462  19.080  0.00  0.00    +0.000 A 
ATOM      9  C   UNL     1       0.340   3.214  20.014  0.00  0.00    +0.000 A 
ATOM     10  C   UNL     1       0.895   4.388  20.504  0.00  0.00    +0.000 A 
ATOM     11  C   UNL     1       2.155   4.799  20.059  0.00  0.00    +0.000 A 
ATOM     12  C   UNL     1       2.875   4.065  19.120  0.00  0.00    +0.000 A 
ATOM     13  N   UNL     1       4.089   4.499  18.697  0.00  0.00    +0.000 NA
ATOM     14  C   UNL     1       6.265   4.180  15.873  0.00  0.00    +0.000 C 
ATOM     15  C   UNL     1       6.444   5.627  15.354  0.00  0.00    +0.000 C 
ATOM     16  N   UNL     1       7.425   6.428  16.117  0.00  0.00    +0.000 NA
ATOM     17  H   UNL     1       7.381   7.389  15.774  0.00  0.00    +0.000 HD
ENDROOT
BRANCH   1  19
ATOM     18  O   UNL     1       8.610   6.667  19.342  0.00  0.00    +0.000 OA
ATOM     19  C   UNL     1       7.988   7.216  18.432  0.00  0.00    +0.000 C 
ATOM     20  N   UNL     1       8.130   8.557  18.145  0.00  0.00    +0.000 N 
ATOM     21  H   UNL     1       7.798   8.845  17.229  0.00  0.00    +0.000 HD
BRANCH  20  22
ATOM     22  C   UNL     1       9.140   9.345  18.818  0.00  0.00    +0.000 C 
BRANCH  22  23
ATOM     23  C   UNL     1       9.244  10.729  18.250  0.00  0.00    +0.000 A 
ATOM     24  C   UNL     1      10.486  11.343  18.056  0.00  0.00    +0.000 A 
ATOM     25  C   UNL     1      10.550  12.625  17.519  0.00  0.00    +0.000 A 
ATOM     26  C   UNL     1       9.362  13.260  17.200  0.00  0.00    +0.000 A 
ATOM     27  N   UNL     1       8.144  12.707  17.380  0.00  0.00    +0.000 NA
ATOM     28  C   UNL     1       8.112  11.456  17.898  0.00  0.00    +0.000 A 
ENDBRANCH  22  23
ENDBRANCH  20  22
ENDBRANCH   1  19
TORSDOF 3
ENDMDL
MODEL 3
REMARK VINA RESULT:      -7.7      1.752      2.415
REMARK  Name = 
REMARK  3 active torsions:
REMARK  status: ('A' for Active; 'I' for Inactive)
REMARK    1  A    between atoms: C_2  and  C_11
REMARK    2  A    between atoms: N_3  and  C_4
REMARK    3  A    between atoms: C_4  and  C_5
REMARK                            x       y       z     vdW  Elec       q    Type
REMARK                         _______ _______ _______ _____ _____    ______ ____
ROOT
ATOM      1  C   UNL     1       1.492   8.063  20.003  0.00  0.00    +0.000 C 
ATOM      2  C   UNL     1       1.399   9.489  19.421  0.00  0.00    +0.000 C 
ATOM      3  N   UNL     1       0.515  10.364  20.208  0.00  0.00    +0.000 N 
ATOM      4  C   UNL     1      -0.692  10.777  19.671  0.00  0.00    +0.000 A 
ATOM      5  C   UNL     1      -1.307  11.954  20.106  0.00  0.00    +0.000 A 
ATOM      6  N   UNL     1      -2.471  12.447  19.619  0.00  0.00    +0.000 NA
ATOM      7  C   UNL     1      -3.042  11.728  18.644  0.00  0.00    +0.000 A 
ATOM      8  C   UNL     1      -4.245  12.164  18.100  0.00  0.00    +0.000 A 
ATOM      9  C   UNL     1      -4.891  11.442  17.097  0.00  0.00    +0.000 A 
ATOM     10  C   UNL     1      -4.316  10.269  16.628  0.00  0.00    +0.000 A 
ATOM     11  C   UNL     1      -3.100   9.830  17.161  0.00  0.00    +0.000 A 
ATOM     12  C   UNL     1      -2.447  10.534  18.168  0.00  0.00    +0.000 A 
ATOM     13  N   UNL     1      -1.276  10.073  18.676  0.00  0.00    +0.000 NA
ATOM     14  C   UNL     1       0.676  10.303  21.667  0.00  0.00    +0.000 C 
ATOM     15  C   UNL     1       0.794   8.844  22.169  0.00  0.00    +0.000 C 
ATOM     16  N   UNL     1       1.821   8.042  21.468  0.00  0.00    +0.000 NA
ATOM     17  H   UNL     1       1.737   7.075  21.787  0.00  0.00    +0.000 HD
ENDROOT
BRANCH   1  19
ATOM     18  O   UNL     1       2.806   7.578  18.018  0.00  0.00    +0.000 OA
ATOM     19  C   UNL     1       2.552   7.291  19.188  0.00  0.00    +0.000 C 
ATOM     20  N   UNL     1       3.181   6.256  19.847  0.00  0.00    +0.000 N 
ATOM     21  H   UNL     1       3.109   6.276  20.860  0.00  0.00    +0.000 HD
BRANCH  20  22
ATOM     22  C   UNL     1       4.282   5.555  19.224  0.00  0.00    +0.000 C 
BRANCH  22  23
ATOM     23  C   UNL     1       3.925   4.140  18.880  0.00  0.00    +0.000 A 
ATOM     24  C   UNL     1       3.055   3.847  17.824  0.00  0.00    +0.000 A 
ATOM     25  C   UNL     1       2.750   2.523  17.524  0.00  0.00    +0.000 A 
ATOM     26  C   UNL     1       3.320   1.528  18.300  0.00  0.00    +0.000 A 
ATOM     27  N   UNL     1       4.155   1.769  19.333  0.00  0.00    +0.000 NA
ATOM     28  C   UNL     1       4.440   3.066  19.597  0.00  0.00    +0.000 A 
ENDBRANCH  22  23
ENDBRANCH  20  22
ENDBRANCH   1  19
TORSDOF 3
ENDMDL
MODEL 4
REMARK VINA RESULT:      -7.7      3.241      9.374
REMARK  Name = 
REMARK  3 active torsions:
REMARK  status: ('A' for Active; 'I' for Inactive)
REMARK    1  A    between atoms: C_2  and  C_11
REMARK    2  A    between atoms: N_3  and  C_4
REMARK    3  A    between atoms: C_4  and  C_5
REMARK                            x       y       z     vdW  Elec       q    Type
REMARK                         _______ _______ _______ _____ _____    ______ ____
ROOT
ATOM      1  C   UNL     1      -0.066   9.708  20.623  0.00  0.00    +0.000 C 
ATOM      2  C   UNL     1       1.432   9.338  20.651  0.00  0.00    +0.000 C 
ATOM      3  N   UNL     1       1.899   8.779  19.372  0.00  0.00    +0.000 N 
ATOM      4  C   UNL     1       2.247   7.441  19.297  0.00  0.00    +0.000 A 
ATOM      5  C   UNL     1       3.141   6.985  18.325  0.00  0.00    +0.000 A 
ATOM      6  N   UNL     1       3.557   5.702  18.195  0.00  0.00    +0.000 NA
ATOM      7  C   UNL     1       3.056   4.837  19.087  0.00  0.00    +0.000 A 
ATOM      8  C   UNL     1       3.428   3.499  19.013  0.00  0.00    +0.000 A 
ATOM      9  C   UNL     1       2.921   2.555  19.904  0.00  0.00    +0.000 A 
ATOM     10  C   UNL     1       2.033   2.961  20.890  0.00  0.00    +0.000 A 
ATOM     11  C   UNL     1       1.663   4.307  20.980  0.00  0.00    +0.000 A 
ATOM     12  C   UNL     1       2.154   5.261  20.093  0.00  0.00    +0.000 A 
ATOM     13  N   UNL     1       1.764   6.556  20.197  0.00  0.00    +0.000 NA
ATOM     14  C   UNL     1       1.460   9.483  18.159  0.00  0.00    +0.000 C 
ATOM     15  C   UNL     1      -0.043   9.848  18.222  0.00  0.00    +0.000 C 
ATOM     16  N   UNL     1      -0.442  10.568  19.451  0.00  0.00    +0.000 NA
ATOM     17  H   UNL     1      -1.460  10.654  19.449  0.00  0.00    +0.000 HD
ENDROOT
BRANCH   1  19
ATOM     18  O   UNL     1       0.205  10.156  22.996  0.00  0.00    +0.000 OA
ATOM     19  C   UNL     1      -0.400  10.414  21.955  0.00  0.00    +0.000 C 
ATOM     20  N   UNL     1      -1.424  11.337  21.907  0.00  0.00    +0.000 N 
ATOM     21  H   UNL     1      -1.664  11.674  20.979  0.00  0.00    +0.000 HD
BRANCH  20  22
ATOM     22  C   UNL     1      -1.729  12.151  23.062  0.00  0.00    +0.000 C 
BRANCH  22  23
ATOM     23  C   UNL     1      -3.198  12.427  23.184  0.00  0.00    +0.000 A 
ATOM     24  C   UNL     1      -3.940  12.903  22.098  0.00  0.00    +0.000 A 
ATOM     25  C   UNL     1      -5.303  13.140  22.240  0.00  0.00    +0.000 A 
ATOM     26  C   UNL     1      -5.884  12.902  23.475  0.00  0.00    +0.000 A 
ATOM     27  N   UNL     1      -5.201  12.453  24.549  0.00  0.00    +0.000 NA
ATOM     28  C   UNL     1      -3.878  12.223  24.379  0.00  0.00    +0.000 A 
ENDBRANCH  22  23
ENDBRANCH  20  22
ENDBRANCH   1  19
TORSDOF 3
ENDMDL
MODEL 5
REMARK VINA RESULT:      -7.6      3.269      9.337
REMARK  Name = 
REMARK  3 active torsions:
REMARK  status: ('A' for Active; 'I' for Inactive)
REMARK    1  A    between atoms: C_2  and  C_11
REMARK    2  A    between atoms: N_3  and  C_4
REMARK    3  A    between atoms: C_4  and  C_5
REMARK                            x       y       z     vdW  Elec       q    Type
REMARK                         _______ _______ _______ _____ _____    ______ ____
ROOT
ATOM      1  C   UNL     1      -0.028   9.468  20.581  0.00  0.00    +0.000 C 
ATOM      2  C   UNL     1       1.429   8.980  20.728  0.00  0.00    +0.000 C 
ATOM      3  N   UNL     1       1.987   8.479  19.461  0.00  0.00    +0.000 N 
ATOM      4  C   UNL     1       2.245   7.126  19.316  0.00  0.00    +0.000 A 
ATOM      5  C   UNL     1       3.201   6.672  18.405  0.00  0.00    +0.000 A 
ATOM      6  N   UNL     1       3.537   5.372  18.216  0.00  0.00    +0.000 NA
ATOM      7  C   UNL     1       2.884   4.488  18.982  0.00  0.00    +0.000 A 
ATOM      8  C   UNL     1       3.166   3.134  18.839  0.00  0.00    +0.000 A 
ATOM      9  C   UNL     1       2.502   2.171  19.597  0.00  0.00    +0.000 A 
ATOM     10  C   UNL     1       1.546   2.575  20.520  0.00  0.00    +0.000 A 
ATOM     11  C   UNL     1       1.266   3.936  20.679  0.00  0.00    +0.000 A 
ATOM     12  C   UNL     1       1.914   4.909  19.924  0.00  0.00    +0.000 A 
ATOM     13  N   UNL     1       1.608   6.220  20.090  0.00  0.00    +0.000 NA
ATOM     14  C   UNL     1       1.729   9.300  18.271  0.00  0.00    +0.000 C 
ATOM     15  C   UNL     1       0.258   9.777  18.213  0.00  0.00    +0.000 C 
ATOM     16  N   UNL     1      -0.216  10.436  19.449  0.00  0.00    +0.000 NA
ATOM     17  H   UNL     1      -1.219  10.602  19.352  0.00  0.00    +0.000 HD
ENDROOT
BRANCH   1  19
ATOM     18  O   UNL     1      -0.137   9.599  23.005  0.00  0.00    +0.000 OA
ATOM     19  C   UNL     1      -0.448  10.101  21.925  0.00  0.00    +0.000 C 
ATOM     20  N   UNL     1      -1.204  11.252  21.837  0.00  0.00    +0.000 N 
ATOM     21  H   UNL     1      -1.172  11.727  20.940  0.00  0.00    +0.000 HD
BRANCH  20  22
ATOM     22  C   UNL     1      -1.538  11.999  23.029  0.00  0.00    +0.000 C 
BRANCH  22  23
ATOM     23  C   UNL     1      -2.988  12.380  23.067  0.00  0.00    +0.000 A 
ATOM     24  C   UNL     1      -3.696  12.425  24.273  0.00  0.00    +0.000 A 
ATOM     25  C   UNL     1      -5.038  12.791  24.276  0.00  0.00    +0.000 A 
ATOM     26  C   UNL     1      -5.637  13.091  23.064  0.00  0.00    +0.000 A 
ATOM     27  N   UNL     1      -4.993  13.049  21.879  0.00  0.00    +0.000 NA
ATOM     28  C   UNL     1      -3.685  12.698  21.907  0.00  0.00    +0.000 A 
ENDBRANCH  22  23
ENDBRANCH  20  22
ENDBRANCH   1  19
TORSDOF 3
ENDMDL
MODEL 6
REMARK VINA RESULT:      -7.5      6.629      8.284
REMARK  Name = 
REMARK  3 active torsions:
REMARK  status: ('A' for Active; 'I' for Inactive)
REMARK    1  A    between atoms: C_2  and  C_11
REMARK    2  A    between atoms: N_3  and  C_4
REMARK    3  A    between atoms: C_4  and  C_5
REMARK                            x       y       z     vdW  Elec       q    Type
REMARK                         _______ _______ _______ _____ _____    ______ ____
ROOT
ATOM      1  C   UNL     1       6.587   6.742  17.544  0.00  0.00    +0.000 C 
ATOM      2  C   UNL     1       6.620   5.227  17.839  0.00  0.00    +0.000 C 
ATOM      3  N   UNL     1       5.602   4.481  17.081  0.00  0.00    +0.000 N 
ATOM      4  C   UNL     1       4.529   3.918  17.750  0.00  0.00    +0.000 A 
ATOM      5  C   UNL     1       3.847   2.821  17.217  0.00  0.00    +0.000 A 
ATOM      6  N   UNL     1       2.806   2.190  17.814  0.00  0.00    +0.000 NA
ATOM      7  C   UNL     1       2.436   2.682  19.003  0.00  0.00    +0.000 A 
ATOM      8  C   UNL     1       1.369   2.095  19.674  0.00  0.00    +0.000 A 
ATOM      9  C   UNL     1       0.930   2.579  20.905  0.00  0.00    +0.000 A 
ATOM     10  C   UNL     1       1.580   3.665  21.477  0.00  0.00    +0.000 A 
ATOM     11  C   UNL     1       2.663   4.253  20.816  0.00  0.00    +0.000 A 
ATOM     12  C   UNL     1       3.107   3.787  19.582  0.00  0.00    +0.000 A 
ATOM     13  N   UNL     1       4.151   4.390  18.958  0.00  0.00    +0.000 NA
ATOM     14  C   UNL     1       5.470   4.830  15.660  0.00  0.00    +0.000 C 
ATOM     15  C   UNL     1       5.476   6.363  15.445  0.00  0.00    +0.000 C 
ATOM     16  N   UNL     1       6.617   7.060  16.078  0.00  0.00    +0.000 NA
ATOM     17  H   UNL     1       6.465   8.065  15.979  0.00  0.00    +0.000 HD
ENDROOT
BRANCH   1  19
ATOM     18  O   UNL     1       8.507   6.743  19.032  0.00  0.00    +0.000 OA
ATOM     19  C   UNL     1       7.783   7.388  18.275  0.00  0.00    +0.000 C 
ATOM     20  N   UNL     1       7.977   8.733  18.037  0.00  0.00    +0.000 N 
ATOM     21  H   UNL     1       7.517   9.101  17.209  0.00  0.00    +0.000 HD
BRANCH  20  22
ATOM     22  C   UNL     1       9.143   9.408  18.563  0.00  0.00    +0.000 C 
BRANCH  22  23
ATOM     23  C   UNL     1       9.124  10.878  18.268  0.00  0.00    +0.000 A 
ATOM     24  C   UNL     1       8.034  11.474  17.625  0.00  0.00    +0.000 A 
ATOM     25  C   UNL     1       8.042  12.843  17.373  0.00  0.00    +0.000 A 
ATOM     26  C   UNL     1       9.150  13.574  17.768  0.00  0.00    +0.000 A 
ATOM     27  N   UNL     1      10.224  13.035  18.382  0.00  0.00    +0.000 NA
ATOM     28  C   UNL     1      10.186  11.703  18.620  0.00  0.00    +0.000 A 
ENDBRANCH  22  23
ENDBRANCH  20  22
ENDBRANCH   1  19
TORSDOF 3
ENDMDL
MODEL 7
REMARK VINA RESULT:      -7.5      3.038      4.755
REMARK  Name = 
REMARK  3 active torsions:
REMARK  status: ('A' for Active; 'I' for Inactive)
REMARK    1  A    between atoms: C_2  and  C_11
REMARK    2  A    between atoms: N_3  and  C_4
REMARK    3  A    between atoms: C_4  and  C_5
REMARK                            x       y       z     vdW  Elec       q    Type
REMARK                         _______ _______ _______ _____ _____    ______ ____
ROOT
ATOM      1  C   UNL     1       3.596   5.770  17.440  0.00  0.00    +0.000 C 
ATOM      2  C   UNL     1       3.828   6.539  18.758  0.00  0.00    +0.000 C 
ATOM      3  N   UNL     1       2.701   6.405  19.696  0.00  0.00    +0.000 N 
ATOM      4  C   UNL     1       1.902   7.503  19.966  0.00  0.00    +0.000 A 
ATOM      5  C   UNL     1       1.187   7.594  21.163  0.00  0.00    +0.000 A 
ATOM      6  N   UNL     1       0.404   8.641  21.521  0.00  0.00    +0.000 NA
ATOM      7  C   UNL     1       0.341   9.646  20.637  0.00  0.00    +0.000 A 
ATOM      8  C   UNL     1      -0.451  10.751  20.929  0.00  0.00    +0.000 A 
ATOM      9  C   UNL     1      -0.567  11.816  20.036  0.00  0.00    +0.000 A 
ATOM     10  C   UNL     1       0.128  11.773  18.835  0.00  0.00    +0.000 A 
ATOM     11  C   UNL     1       0.937  10.670  18.540  0.00  0.00    +0.000 A 
ATOM     12  C   UNL     1       1.057   9.596  19.417  0.00  0.00    +0.000 A 
ATOM     13  N   UNL     1       1.837   8.534  19.094  0.00  0.00    +0.000 NA
ATOM     14  C   UNL     1       2.154   5.052  19.860  0.00  0.00    +0.000 C 
ATOM     15  C   UNL     1       1.981   4.336  18.499  0.00  0.00    +0.000 C 
ATOM     16  N   UNL     1       3.194   4.340  17.653  0.00  0.00    +0.000 NA
ATOM     17  H   UNL     1       2.943   3.953  16.741  0.00  0.00    +0.000 HD
ENDROOT
BRANCH   1  19
ATOM     18  O   UNL     1       5.158   6.852  15.926  0.00  0.00    +0.000 OA
ATOM     19  C   UNL     1       4.893   5.862  16.609  0.00  0.00    +0.000 C 
ATOM     20  N   UNL     1       5.725   4.763  16.668  0.00  0.00    +0.000 N 
ATOM     21  H   UNL     1       5.563   4.136  17.451  0.00  0.00    +0.000 HD
BRANCH  20  22
ATOM     22  C   UNL     1       7.025   4.796  16.037  0.00  0.00    +0.000 C 
BRANCH  22  23
ATOM     23  C   UNL     1       6.941   4.546  14.561  0.00  0.00    +0.000 A 
ATOM     24  C   UNL     1       6.040   3.616  14.032  0.00  0.00    +0.000 A 
ATOM     25  C   UNL     1       5.979   3.413  12.657  0.00  0.00    +0.000 A 
ATOM     26  C   UNL     1       6.833   4.146  11.850  0.00  0.00    +0.000 A 
ATOM     27  N   UNL     1       7.723   5.045  12.321  0.00  0.00    +0.000 NA
ATOM     28  C   UNL     1       7.754   5.227  13.662  0.00  0.00    +0.000 A 
ENDBRANCH  22  23
ENDBRANCH  20  22
ENDBRANCH   1  19
TORSDOF 3
ENDMDL
MODEL 8
REMARK VINA RESULT:      -7.4      3.223      5.024
REMARK  Name = 
REMARK  3 active torsions:
REMARK  status: ('A' for Active; 'I' for Inactive)
REMARK    1  A    between atoms: C_2  and  C_11
REMARK    2  A    between atoms: N_3  and  C_4
REMARK    3  A    between atoms: C_4  and  C_5
REMARK                            x       y       z     vdW  Elec       q    Type
REMARK                         _______ _______ _______ _____ _____    ______ ____
ROOT
ATOM      1  C   UNL     1       3.842   4.897  18.315  0.00  0.00    +0.000 C 
ATOM      2  C   UNL     1       3.844   5.747  19.604  0.00  0.00    +0.000 C 
ATOM      3  N   UNL     1       2.513   5.831  20.227  0.00  0.00    +0.000 N 
ATOM      4  C   UNL     1       1.831   7.036  20.221  0.00  0.00    +0.000 A 
ATOM      5  C   UNL     1       0.862   7.317  21.187  0.00  0.00    +0.000 A 
ATOM      6  N   UNL     1       0.166   8.477  21.274  0.00  0.00    +0.000 NA
ATOM      7  C   UNL     1       0.462   9.400  20.349  0.00  0.00    +0.000 A 
ATOM      8  C   UNL     1      -0.217  10.613  20.365  0.00  0.00    +0.000 A 
ATOM      9  C   UNL     1       0.038  11.600  19.414  0.00  0.00    +0.000 A 
ATOM     10  C   UNL     1       0.996  11.369  18.436  0.00  0.00    +0.000 A 
ATOM     11  C   UNL     1       1.692  10.156  18.421  0.00  0.00    +0.000 A 
ATOM     12  C   UNL     1       1.444   9.157  19.358  0.00  0.00    +0.000 A 
ATOM     13  N   UNL     1       2.126   7.985  19.305  0.00  0.00    +0.000 NA
ATOM     14  C   UNL     1       1.762   4.572  20.320  0.00  0.00    +0.000 C 
ATOM     15  C   UNL     1       1.834   3.764  19.003  0.00  0.00    +0.000 C 
ATOM     16  N   UNL     1       3.207   3.548  18.498  0.00  0.00    +0.000 NA
ATOM     17  H   UNL     1       3.139   3.115  17.575  0.00  0.00    +0.000 HD
ENDROOT
BRANCH   1  19
ATOM     18  O   UNL     1       6.168   4.236  18.544  0.00  0.00    +0.000 OA
ATOM     19  C   UNL     1       5.304   4.760  17.841  0.00  0.00    +0.000 C 
ATOM     20  N   UNL     1       5.582   5.274  16.591  0.00  0.00    +0.000 N 
ATOM     21  H   UNL     1       4.775   5.427  15.994  0.00  0.00    +0.000 HD
BRANCH  20  22
ATOM     22  C   UNL     1       6.885   5.081  15.994  0.00  0.00    +0.000 C 
BRANCH  22  23
ATOM     23  C   UNL     1       6.789   4.663  14.558  0.00  0.00    +0.000 A 
ATOM     24  C   UNL     1       5.815   3.755  14.129  0.00  0.00    +0.000 A 
ATOM     25  C   UNL     1       5.746   3.394  12.787  0.00  0.00    +0.000 A 
ATOM     26  C   UNL     1       6.665   3.949  11.912  0.00  0.00    +0.000 A 
ATOM     27  N   UNL     1       7.625   4.820  12.287  0.00  0.00    +0.000 NA
ATOM     28  C   UNL     1       7.664   5.159  13.598  0.00  0.00    +0.000 A 
ENDBRANCH  22  23
ENDBRANCH  20  22
ENDBRANCH   1  19
TORSDOF 3
ENDMDL
MODEL 9
REMARK VINA RESULT:      -7.3      1.180      1.233
REMARK  Name = 
REMARK  3 active torsions:
REMARK  status: ('A' for Active; 'I' for Inactive)
REMARK    1  A    between atoms: C_2  and  C_11
REMARK    2  A    between atoms: N_3  and  C_4
REMARK    3  A    between atoms: C_4  and  C_5
REMARK                            x       y       z     vdW  Elec       q    Type
REMARK                         _______ _______ _______ _____ _____    ______ ____
ROOT
ATOM      1  C   UNL     1       1.850   7.386  18.986  0.00  0.00    +0.000 C 
ATOM      2  C   UNL     1       1.823   8.869  18.559  0.00  0.00    +0.000 C 
ATOM      3  N   UNL     1       0.950   9.688  19.415  0.00  0.00    +0.000 N 
ATOM      4  C   UNL     1      -0.227  10.202  18.899  0.00  0.00    +0.000 A 
ATOM      5  C   UNL     1      -0.810  11.348  19.445  0.00  0.00    +0.000 A 
ATOM      6  N   UNL     1      -1.943  11.935  18.988  0.00  0.00    +0.000 NA
ATOM      7  C   UNL     1      -2.514  11.345  17.929  0.00  0.00    +0.000 A 
ATOM      8  C   UNL     1      -3.686  11.882  17.408  0.00  0.00    +0.000 A 
ATOM      9  C   UNL     1      -4.332  11.296  16.320  0.00  0.00    +0.000 A 
ATOM     10  C   UNL     1      -3.787  10.159  15.740  0.00  0.00    +0.000 A 
ATOM     11  C   UNL     1      -2.602   9.619  16.250  0.00  0.00    +0.000 A 
ATOM     12  C   UNL     1      -1.950  10.187  17.341  0.00  0.00    +0.000 A 
ATOM     13  N   UNL     1      -0.810   9.630  17.822  0.00  0.00    +0.000 NA
ATOM     14  C   UNL     1       1.072   9.466  20.862  0.00  0.00    +0.000 C 
ATOM     15  C   UNL     1       1.124   7.958  21.207  0.00  0.00    +0.000 C 
ATOM     16  N   UNL     1       2.140   7.197  20.447  0.00  0.00    +0.000 NA
ATOM     17  H   UNL     1       2.013   6.206  20.658  0.00  0.00    +0.000 HD
ENDROOT
BRANCH   1  19
ATOM     18  O   UNL     1       2.859   5.452  17.917  0.00  0.00    +0.000 OA
ATOM     19  C   UNL     1       2.902   6.666  18.116  0.00  0.00    +0.000 C 
ATOM     20  N   UNL     1       3.898   7.464  17.592  0.00  0.00    +0.000 N 
ATOM     21  H   UNL     1       3.697   8.460  17.580  0.00  0.00    +0.000 HD
BRANCH  20  22
ATOM     22  C   UNL     1       4.856   6.919  16.657  0.00  0.00    +0.000 C 
BRANCH  22  23
ATOM     23  C   UNL     1       6.051   6.338  17.351  0.00  0.00    +0.000 A 
ATOM     24  C   UNL     1       7.064   7.157  17.860  0.00  0.00    +0.000 A 
ATOM     25  C   UNL     1       8.157   6.588  18.507  0.00  0.00    +0.000 A 
ATOM     26  C   UNL     1       8.207   5.208  18.616  0.00  0.00    +0.000 A 
ATOM     27  N   UNL     1       7.256   4.383  18.129  0.00  0.00    +0.000 NA
ATOM     28  C   UNL     1       6.201   4.965  17.511  0.00  0.00    +0.000 A 
ENDBRANCH  22  23
ENDBRANCH  20  22
ENDBRANCH   1  19
TORSDOF 3
ENDMDL
