MODEL 1
REMARK VINA RESULT:      -6.6      0.000      0.000
REMARK  Name = 
REMARK  14 active torsions:
REMARK  status: ('A' for Active; 'I' for Inactive)
REMARK    1  A    between atoms: C_1  and  C_2
REMARK    2  A    between atoms: C_2  and  C_3
REMARK    3  A    between atoms: C_3  and  C_4
REMARK    4  A    between atoms: C_4  and  C_5
REMARK    5  A    between atoms: C_5  and  C_6
REMARK    6  A    between atoms: C_6  and  C_7
REMARK    7  A    between atoms: C_7  and  C_8
REMARK    8  A    between atoms: C_8  and  C_9
REMARK    9  A    between atoms: C_9  and  C_10
REMARK   10  A    between atoms: C_10  and  C_11
REMARK   11  A    between atoms: C_11  and  O_12
REMARK   12  A    between atoms: C_15  and  O_16
REMARK   13  A    between atoms: C_17  and  O_18
REMARK   14  A    between atoms: C_19  and  O_20
REMARK                            x       y       z     vdW  Elec       q    Type
REMARK                         _______ _______ _______ _____ _____    ______ ____
ROOT
ATOM      1  C   UNL     1       3.778   4.683  18.162  0.00  0.00    +0.000 C 
ATOM      2  N   UNL     1       2.663   5.563  18.570  0.00  0.00    +0.000 NA
ATOM      3  C   UNL     1       1.872   5.131  19.746  0.00  0.00    +0.000 C 
ATOM      4  C   UNL     1       1.397   3.663  19.612  0.00  0.00    +0.000 C 
ATOM      5  C   UNL     1       2.522   2.695  19.186  0.00  0.00    +0.000 C 
ATOM      6  C   UNL     1       3.217   3.248  17.916  0.00  0.00    +0.000 C 
ATOM      7  H   UNL     1       1.985   5.644  17.765  0.00  0.00    +0.000 HD
ENDROOT
BRANCH   4   8
ATOM      8  O   UNL     1       0.791   3.237  20.812  0.00  0.00    +0.000 OA
ATOM      9  H   UNL     1      -0.155   3.535  20.783  0.00  0.00    +0.000 HD
ENDBRANCH   4   8
BRANCH   5  10
ATOM     10  O   UNL     1       2.005   1.404  18.960  0.00  0.00    +0.000 OA
ATOM     11  H   UNL     1       2.769   0.800  18.770  0.00  0.00    +0.000 HD
ENDBRANCH   5  10
BRANCH   6  12
ATOM     12  O   UNL     1       4.155   2.352  17.381  0.00  0.00    +0.000 OA
ATOM     13  H   UNL     1       3.984   1.448  17.749  0.00  0.00    +0.000 HD
ENDBRANCH   6  12
BRANCH   1  14
ATOM     14  C   UNL     1       4.337   5.201  16.778  0.00  0.00    +0.000 C 
BRANCH  14  15
ATOM     15  C   UNL     1       5.866   5.323  16.776  0.00  0.00    +0.000 C 
BRANCH  15  16
ATOM     16  C   UNL     1       6.614   4.277  15.975  0.00  0.00    +0.000 C 
BRANCH  16  17
ATOM     17  C   UNL     1       5.820   4.075  14.688  0.00  0.00    +0.000 C 
BRANCH  17  18
ATOM     18  C   UNL     1       6.718   4.188  13.493  0.00  0.00    +0.000 C 
BRANCH  18  19
ATOM     19  C   UNL     1       6.173   3.363  12.344  0.00  0.00    +0.000 C 
BRANCH  19  20
ATOM     20  C   UNL     1       4.731   3.758  12.102  0.00  0.00    +0.000 C 
BRANCH  20  22
ATOM     21  C   UNL     1       3.164   3.760  10.171  0.00  0.00    +0.000 C 
ATOM     22  C   UNL     1       4.119   2.912  11.000  0.00  0.00    +0.000 C 
ENDBRANCH  20  22
ENDBRANCH  19  20
ENDBRANCH  18  19
ENDBRANCH  17  18
ENDBRANCH  16  17
ENDBRANCH  15  16
ENDBRANCH  14  15
ENDBRANCH   1  14
BRANCH   1  23
ATOM     23  C   UNL     1       4.933   4.662  19.305  0.00  0.00    +0.000 C 
BRANCH  23  24
ATOM     24  O   UNL     1       5.565   3.426  19.442  0.00  0.00    +0.000 OA
ATOM     25  H   UNL     1       4.959   2.820  19.939  0.00  0.00    +0.000 HD
ENDBRANCH  23  24
ENDBRANCH   1  23
TORSDOF 13
ENDMDL
MODEL 2
REMARK VINA RESULT:      -6.6      1.211      1.693
REMARK  Name = 
REMARK  14 active torsions:
REMARK  status: ('A' for Active; 'I' for Inactive)
REMARK    1  A    between atoms: C_1  and  C_2
REMARK    2  A    between atoms: C_2  and  C_3
REMARK    3  A    between atoms: C_3  and  C_4
REMARK    4  A    between atoms: C_4  and  C_5
REMARK    5  A    between atoms: C_5  and  C_6
REMARK    6  A    between atoms: C_6  and  C_7
REMARK    7  A    between atoms: C_7  and  C_8
REMARK    8  A    between atoms: C_8  and  C_9
REMARK    9  A    between atoms: C_9  and  C_10
REMARK   10  A    between atoms: C_10  and  C_11
REMARK   11  A    between atoms: C_11  and  O_12
REMARK   12  A    between atoms: C_15  and  O_16
REMARK   13  A    between atoms: C_17  and  O_18
REMARK   14  A    between atoms: C_19  and  O_20
REMARK                            x       y       z     vdW  Elec       q    Type
REMARK                         _______ _______ _______ _____ _____    ______ ____
ROOT
ATOM      1  C   UNL     1       3.817   3.617  18.515  0.00  0.00    +0.000 C 
ATOM      2  N   UNL     1       3.890   5.086  18.369  0.00  0.00    +0.000 NA
ATOM      3  C   UNL     1       3.363   5.892  19.494  0.00  0.00    +0.000 C 
ATOM      4  C   UNL     1       1.936   5.449  19.901  0.00  0.00    +0.000 C 
ATOM      5  C   UNL     1       1.799   3.920  20.068  0.00  0.00    +0.000 C 
ATOM      6  C   UNL     1       2.335   3.218  18.795  0.00  0.00    +0.000 C 
ATOM      7  H   UNL     1       3.340   5.368  17.513  0.00  0.00    +0.000 HD
ENDROOT
BRANCH   4   8
ATOM      8  O   UNL     1       1.533   6.124  21.072  0.00  0.00    +0.000 OA
ATOM      9  H   UNL     1       1.773   5.545  21.840  0.00  0.00    +0.000 HD
ENDBRANCH   4   8
BRANCH   5  10
ATOM     10  O   UNL     1       0.456   3.568  20.315  0.00  0.00    +0.000 OA
ATOM     11  H   UNL     1       0.275   2.714  19.843  0.00  0.00    +0.000 HD
ENDBRANCH   5  10
BRANCH   6  12
ATOM     12  O   UNL     1       2.109   1.832  18.808  0.00  0.00    +0.000 OA
ATOM     13  H   UNL     1       1.268   1.647  19.297  0.00  0.00    +0.000 HD
ENDBRANCH   6  12
BRANCH   1  14
ATOM     14  C   UNL     1       4.215   2.961  17.134  0.00  0.00    +0.000 C 
BRANCH  14  15
ATOM     15  C   UNL     1       4.660   4.004  16.100  0.00  0.00    +0.000 C 
BRANCH  15  16
ATOM     16  C   UNL     1       5.903   3.662  15.305  0.00  0.00    +0.000 C 
BRANCH  16  17
ATOM     17  C   UNL     1       5.794   4.426  13.989  0.00  0.00    +0.000 C 
BRANCH  17  18
ATOM     18  C   UNL     1       6.524   3.702  12.898  0.00  0.00    +0.000 C 
BRANCH  18  19
ATOM     19  C   UNL     1       5.550   2.918  12.041  0.00  0.00    +0.000 C 
BRANCH  19  20
ATOM     20  C   UNL     1       4.395   3.823  11.667  0.00  0.00    +0.000 C 
BRANCH  20  22
ATOM     21  C   UNL     1       2.969   4.099   9.648  0.00  0.00    +0.000 C 
ATOM     22  C   UNL     1       3.449   3.119  10.709  0.00  0.00    +0.000 C 
ENDBRANCH  20  22
ENDBRANCH  19  20
ENDBRANCH  18  19
ENDBRANCH  17  18
ENDBRANCH  16  17
ENDBRANCH  15  16
ENDBRANCH  14  15
ENDBRANCH   1  14
BRANCH   1  23
ATOM     23  C   UNL     1       4.787   3.116  19.719  0.00  0.00    +0.000 C 
BRANCH  23  24
ATOM     24  O   UNL     1       5.033   1.743  19.706  0.00  0.00    +0.000 OA
ATOM     25  H   UNL     1       4.839   1.400  18.798  0.00  0.00    +0.000 HD
ENDBRANCH  23  24
ENDBRANCH   1  23
TORSDOF 13
ENDMDL
MODEL 3
REMARK VINA RESULT:      -6.5      3.314      6.458
REMARK  Name = 
REMARK  14 active torsions:
REMARK  status: ('A' for Active; 'I' for Inactive)
REMARK    1  A    between atoms: C_1  and  C_2
REMARK    2  A    between atoms: C_2  and  C_3
REMARK    3  A    between atoms: C_3  and  C_4
REMARK    4  A    between atoms: C_4  and  C_5
REMARK    5  A    between atoms: C_5  and  C_6
REMARK    6  A    between atoms: C_6  and  C_7
REMARK    7  A    between atoms: C_7  and  C_8
REMARK    8  A    between atoms: C_8  and  C_9
REMARK    9  A    between atoms: C_9  and  C_10
REMARK   10  A    between atoms: C_10  and  C_11
REMARK   11  A    between atoms: C_11  and  O_12
REMARK   12  A    between atoms: C_15  and  O_16
REMARK   13  A    between atoms: C_17  and  O_18
REMARK   14  A    between atoms: C_19  and  O_20
REMARK                            x       y       z     vdW  Elec       q    Type
REMARK                         _______ _______ _______ _____ _____    ______ ____
ROOT
ATOM      1  C   UNL     1       6.047   5.371  16.950  0.00  0.00    +0.000 C 
ATOM      2  N   UNL     1       6.067   6.834  16.744  0.00  0.00    +0.000 NA
ATOM      3  C   UNL     1       7.276   7.553  17.206  0.00  0.00    +0.000 C 
ATOM      4  C   UNL     1       7.633   7.197  18.671  0.00  0.00    +0.000 C 
ATOM      5  C   UNL     1       7.627   5.678  18.946  0.00  0.00    +0.000 C 
ATOM      6  C   UNL     1       6.282   5.077  18.464  0.00  0.00    +0.000 C 
ATOM      7  H   UNL     1       5.249   7.258  17.258  0.00  0.00    +0.000 HD
ENDROOT
BRANCH   4   8
ATOM      8  O   UNL     1       8.872   7.771  19.022  0.00  0.00    +0.000 OA
ATOM      9  H   UNL     1       8.706   8.730  19.210  0.00  0.00    +0.000 HD
ENDBRANCH   4   8
BRANCH   5  10
ATOM     10  O   UNL     1       7.834   5.424  20.317  0.00  0.00    +0.000 OA
ATOM     11  H   UNL     1       7.357   6.126  20.831  0.00  0.00    +0.000 HD
ENDBRANCH   5  10
BRANCH   6  12
ATOM     12  O   UNL     1       6.140   3.725  18.813  0.00  0.00    +0.000 OA
ATOM     13  H   UNL     1       5.797   3.224  18.031  0.00  0.00    +0.000 HD
ENDBRANCH   6  12
BRANCH   1  14
ATOM     14  C   UNL     1       4.600   4.840  16.599  0.00  0.00    +0.000 C 
BRANCH  14  15
ATOM     15  C   UNL     1       3.648   4.910  17.800  0.00  0.00    +0.000 C 
BRANCH  15  16
ATOM     16  C   UNL     1       2.870   6.201  17.956  0.00  0.00    +0.000 C 
BRANCH  16  17
ATOM     17  C   UNL     1       2.669   6.402  19.454  0.00  0.00    +0.000 C 
BRANCH  17  18
ATOM     18  C   UNL     1       2.717   5.087  20.173  0.00  0.00    +0.000 C 
BRANCH  18  19
ATOM     19  C   UNL     1       1.321   4.659  20.581  0.00  0.00    +0.000 C 
BRANCH  19  20
ATOM     20  C   UNL     1       1.365   3.206  21.007  0.00  0.00    +0.000 C 
BRANCH  20  22
ATOM     21  C   UNL     1       0.803   2.438  18.709  0.00  0.00    +0.000 C 
ATOM     22  C   UNL     1       1.800   2.320  19.853  0.00  0.00    +0.000 C 
ENDBRANCH  20  22
ENDBRANCH  19  20
ENDBRANCH  18  19
ENDBRANCH  17  18
ENDBRANCH  16  17
ENDBRANCH  15  16
ENDBRANCH  14  15
ENDBRANCH   1  14
BRANCH   1  23
ATOM     23  C   UNL     1       7.186   4.652  16.040  0.00  0.00    +0.000 C 
BRANCH  23  24
ATOM     24  O   UNL     1       7.366   5.249  14.791  0.00  0.00    +0.000 OA
ATOM     25  H   UNL     1       7.007   6.171  14.833  0.00  0.00    +0.000 HD
ENDBRANCH  23  24
ENDBRANCH   1  23
TORSDOF 13
ENDMDL
MODEL 4
REMARK VINA RESULT:      -6.4      1.173      1.494
REMARK  Name = 
REMARK  14 active torsions:
REMARK  status: ('A' for Active; 'I' for Inactive)
REMARK    1  A    between atoms: C_1  and  C_2
REMARK    2  A    between atoms: C_2  and  C_3
REMARK    3  A    between atoms: C_3  and  C_4
REMARK    4  A    between atoms: C_4  and  C_5
REMARK    5  A    between atoms: C_5  and  C_6
REMARK    6  A    between atoms: C_6  and  C_7
REMARK    7  A    between atoms: C_7  and  C_8
REMARK    8  A    between atoms: C_8  and  C_9
REMARK    9  A    between atoms: C_9  and  C_10
REMARK   10  A    between atoms: C_10  and  C_11
REMARK   11  A    between atoms: C_11  and  O_12
REMARK   12  A    between atoms: C_15  and  O_16
REMARK   13  A    between atoms: C_17  and  O_18
REMARK   14  A    between atoms: C_19  and  O_20
REMARK                            x       y       z     vdW  Elec       q    Type
REMARK                         _______ _______ _______ _____ _____    ______ ____
ROOT
ATOM      1  C   UNL     1       3.338   4.874  18.743  0.00  0.00    +0.000 C 
ATOM      2  N   UNL     1       2.924   5.509  20.011  0.00  0.00    +0.000 NA
ATOM      3  C   UNL     1       2.353   4.615  21.045  0.00  0.00    +0.000 C 
ATOM      4  C   UNL     1       1.219   3.727  20.477  0.00  0.00    +0.000 C 
ATOM      5  C   UNL     1       1.595   3.037  19.147  0.00  0.00    +0.000 C 
ATOM      6  C   UNL     1       2.118   4.101  18.150  0.00  0.00    +0.000 C 
ATOM      7  H   UNL     1       2.187   6.234  19.801  0.00  0.00    +0.000 HD
ENDROOT
BRANCH   4   8
ATOM      8  O   UNL     1       0.812   2.782  21.441  0.00  0.00    +0.000 OA
ATOM      9  H   UNL     1       1.003   3.173  22.332  0.00  0.00    +0.000 HD
ENDBRANCH   4   8
BRANCH   5  10
ATOM     10  O   UNL     1       0.485   2.347  18.618  0.00  0.00    +0.000 OA
ATOM     11  H   UNL     1      -0.108   2.103  19.374  0.00  0.00    +0.000 HD
ENDBRANCH   5  10
BRANCH   6  12
ATOM     12  O   UNL     1       2.343   3.575  16.869  0.00  0.00    +0.000 OA
ATOM     13  H   UNL     1       3.305   3.362  16.772  0.00  0.00    +0.000 HD
ENDBRANCH   6  12
BRANCH   1  14
ATOM     14  C   UNL     1       3.702   6.016  17.712  0.00  0.00    +0.000 C 
BRANCH  14  15
ATOM     15  C   UNL     1       5.121   5.862  17.150  0.00  0.00    +0.000 C 
BRANCH  15  16
ATOM     16  C   UNL     1       5.225   5.685  15.649  0.00  0.00    +0.000 C 
BRANCH  16  17
ATOM     17  C   UNL     1       5.349   4.184  15.403  0.00  0.00    +0.000 C 
BRANCH  17  18
ATOM     18  C   UNL     1       6.586   3.882  14.613  0.00  0.00    +0.000 C 
BRANCH  18  19
ATOM     19  C   UNL     1       6.604   4.691  13.331  0.00  0.00    +0.000 C 
BRANCH  19  20
ATOM     20  C   UNL     1       6.784   3.746  12.162  0.00  0.00    +0.000 C 
BRANCH  20  22
ATOM     21  C   UNL     1       4.457   3.342  11.384  0.00  0.00    +0.000 C 
ATOM     22  C   UNL     1       5.651   2.736  12.107  0.00  0.00    +0.000 C 
ENDBRANCH  20  22
ENDBRANCH  19  20
ENDBRANCH  18  19
ENDBRANCH  17  18
ENDBRANCH  16  17
ENDBRANCH  15  16
ENDBRANCH  14  15
ENDBRANCH   1  14
BRANCH   1  23
ATOM     23  C   UNL     1       4.591   3.870  18.991  0.00  0.00    +0.000 C 
BRANCH  23  24
ATOM     24  O   UNL     1       4.470   2.647  18.329  0.00  0.00    +0.000 OA
ATOM     25  H   UNL     1       3.573   2.606  17.913  0.00  0.00    +0.000 HD
ENDBRANCH  23  24
ENDBRANCH   1  23
TORSDOF 13
ENDMDL
MODEL 5
REMARK VINA RESULT:      -6.4      1.790      2.779
REMARK  Name = 
REMARK  14 active torsions:
REMARK  status: ('A' for Active; 'I' for Inactive)
REMARK    1  A    between atoms: C_1  and  C_2
REMARK    2  A    between atoms: C_2  and  C_3
REMARK    3  A    between atoms: C_3  and  C_4
REMARK    4  A    between atoms: C_4  and  C_5
REMARK    5  A    between atoms: C_5  and  C_6
REMARK    6  A    between atoms: C_6  and  C_7
REMARK    7  A    between atoms: C_7  and  C_8
REMARK    8  A    between atoms: C_8  and  C_9
REMARK    9  A    between atoms: C_9  and  C_10
REMARK   10  A    between atoms: C_10  and  C_11
REMARK   11  A    between atoms: C_11  and  O_12
REMARK   12  A    between atoms: C_15  and  O_16
REMARK   13  A    between atoms: C_17  and  O_18
REMARK   14  A    between atoms: C_19  and  O_20
REMARK                            x       y       z     vdW  Elec       q    Type
REMARK                         _______ _______ _______ _____ _____    ______ ____
ROOT
ATOM      1  C   UNL     1       4.070   4.359  18.813  0.00  0.00    +0.000 C 
ATOM      2  N   UNL     1       4.304   2.960  18.399  0.00  0.00    +0.000 NA
ATOM      3  C   UNL     1       3.114   2.183  17.983  0.00  0.00    +0.000 C 
ATOM      4  C   UNL     1       1.976   2.265  19.031  0.00  0.00    +0.000 C 
ATOM      5  C   UNL     1       1.687   3.707  19.503  0.00  0.00    +0.000 C 
ATOM      6  C   UNL     1       3.011   4.369  19.960  0.00  0.00    +0.000 C 
ATOM      7  H   UNL     1       4.737   2.437  19.207  0.00  0.00    +0.000 HD
ENDROOT
BRANCH   4   8
ATOM      8  O   UNL     1       0.809   1.652  18.531  0.00  0.00    +0.000 OA
ATOM      9  H   UNL     1       0.981   0.676  18.505  0.00  0.00    +0.000 HD
ENDBRANCH   4   8
BRANCH   5  10
ATOM     10  O   UNL     1       0.735   3.705  20.542  0.00  0.00    +0.000 OA
ATOM     11  H   UNL     1      -0.073   4.177  20.213  0.00  0.00    +0.000 HD
ENDBRANCH   5  10
BRANCH   6  12
ATOM     12  O   UNL     1       2.810   5.631  20.540  0.00  0.00    +0.000 OA
ATOM     13  H   UNL     1       3.462   5.755  21.276  0.00  0.00    +0.000 HD
ENDBRANCH   6  12
BRANCH   1  14
ATOM     14  C   UNL     1       5.412   4.927  19.423  0.00  0.00    +0.000 C 
BRANCH  14  15
ATOM     15  C   UNL     1       6.248   5.687  18.385  0.00  0.00    +0.000 C 
BRANCH  15  16
ATOM     16  C   UNL     1       7.498   4.985  17.897  0.00  0.00    +0.000 C 
BRANCH  16  17
ATOM     17  C   UNL     1       7.118   4.289  16.593  0.00  0.00    +0.000 C 
BRANCH  17  18
ATOM     18  C   UNL     1       7.126   5.265  15.455  0.00  0.00    +0.000 C 
BRANCH  18  19
ATOM     19  C   UNL     1       5.890   5.082  14.596  0.00  0.00    +0.000 C 
BRANCH  19  20
ATOM     20  C   UNL     1       5.904   3.682  14.018  0.00  0.00    +0.000 C 
BRANCH  20  22
ATOM     21  C   UNL     1       5.598   2.629  11.786  0.00  0.00    +0.000 C 
ATOM     22  C   UNL     1       6.343   3.704  12.564  0.00  0.00    +0.000 C 
ENDBRANCH  20  22
ENDBRANCH  19  20
ENDBRANCH  18  19
ENDBRANCH  17  18
ENDBRANCH  16  17
ENDBRANCH  15  16
ENDBRANCH  14  15
ENDBRANCH   1  14
BRANCH   1  23
ATOM     23  C   UNL     1       3.561   5.248  17.552  0.00  0.00    +0.000 C 
BRANCH  23  24
ATOM     24  O   UNL     1       2.835   6.381  17.920  0.00  0.00    +0.000 OA
ATOM     25  H   UNL     1       2.289   6.156  18.715  0.00  0.00    +0.000 HD
ENDBRANCH  23  24
ENDBRANCH   1  23
TORSDOF 13
ENDMDL
MODEL 6
REMARK VINA RESULT:      -6.4      1.338      1.830
REMARK  Name = 
REMARK  14 active torsions:
REMARK  status: ('A' for Active; 'I' for Inactive)
REMARK    1  A    between atoms: C_1  and  C_2
REMARK    2  A    between atoms: C_2  and  C_3
REMARK    3  A    between atoms: C_3  and  C_4
REMARK    4  A    between atoms: C_4  and  C_5
REMARK    5  A    between atoms: C_5  and  C_6
REMARK    6  A    between atoms: C_6  and  C_7
REMARK    7  A    between atoms: C_7  and  C_8
REMARK    8  A    between atoms: C_8  and  C_9
REMARK    9  A    between atoms: C_9  and  C_10
REMARK   10  A    between atoms: C_10  and  C_11
REMARK   11  A    between atoms: C_11  and  O_12
REMARK   12  A    between atoms: C_15  and  O_16
REMARK   13  A    between atoms: C_17  and  O_18
REMARK   14  A    between atoms: C_19  and  O_20
REMARK                            x       y       z     vdW  Elec       q    Type
REMARK                         _______ _______ _______ _____ _____    ______ ____
ROOT
ATOM      1  C   UNL     1       3.561   5.042  18.588  0.00  0.00    +0.000 C 
ATOM      2  N   UNL     1       2.346   4.982  17.748  0.00  0.00    +0.000 NA
ATOM      3  C   UNL     1       1.411   3.864  18.012  0.00  0.00    +0.000 C 
ATOM      4  C   UNL     1       2.139   2.497  18.029  0.00  0.00    +0.000 C 
ATOM      5  C   UNL     1       3.419   2.500  18.891  0.00  0.00    +0.000 C 
ATOM      6  C   UNL     1       4.321   3.685  18.463  0.00  0.00    +0.000 C 
ATOM      7  H   UNL     1       2.638   4.898  16.738  0.00  0.00    +0.000 HD
ENDROOT
BRANCH   4   8
ATOM      8  O   UNL     1       1.253   1.480  18.441  0.00  0.00    +0.000 OA
ATOM      9  H   UNL     1       1.655   1.047  19.237  0.00  0.00    +0.000 HD
ENDBRANCH   4   8
BRANCH   5  10
ATOM     10  O   UNL     1       4.101   1.272  18.768  0.00  0.00    +0.000 OA
ATOM     11  H   UNL     1       5.065   1.444  18.930  0.00  0.00    +0.000 HD
ENDBRANCH   5  10
BRANCH   6  12
ATOM     12  O   UNL     1       5.571   3.669  19.101  0.00  0.00    +0.000 OA
ATOM     13  H   UNL     1       6.235   4.118  18.519  0.00  0.00    +0.000 HD
ENDBRANCH   6  12
BRANCH   1  14
ATOM     14  C   UNL     1       4.515   6.157  18.001  0.00  0.00    +0.000 C 
BRANCH  14  15
ATOM     15  C   UNL     1       4.769   5.975  16.499  0.00  0.00    +0.000 C 
BRANCH  15  16
ATOM     16  C   UNL     1       6.180   5.586  16.107  0.00  0.00    +0.000 C 
BRANCH  16  17
ATOM     17  C   UNL     1       6.136   5.259  14.618  0.00  0.00    +0.000 C 
BRANCH  17  18
ATOM     18  C   UNL     1       6.218   3.778  14.401  0.00  0.00    +0.000 C 
BRANCH  18  19
ATOM     19  C   UNL     1       6.179   3.459  12.920  0.00  0.00    +0.000 C 
BRANCH  19  20
ATOM     20  C   UNL     1       4.754   3.603  12.429  0.00  0.00    +0.000 C 
BRANCH  20  22
ATOM     21  C   UNL     1       3.239   3.413  10.466  0.00  0.00    +0.000 C 
ATOM     22  C   UNL     1       4.612   3.058  11.019  0.00  0.00    +0.000 C 
ENDBRANCH  20  22
ENDBRANCH  19  20
ENDBRANCH  18  19
ENDBRANCH  17  18
ENDBRANCH  16  17
ENDBRANCH  15  16
ENDBRANCH  14  15
ENDBRANCH   1  14
BRANCH   1  23
ATOM     23  C   UNL     1       3.168   5.343  20.136  0.00  0.00    +0.000 C 
BRANCH  23  24
ATOM     24  O   UNL     1       2.662   6.626  20.347  0.00  0.00    +0.000 OA
ATOM     25  H   UNL     1       1.854   6.552  20.915  0.00  0.00    +0.000 HD
ENDBRANCH  23  24
ENDBRANCH   1  23
TORSDOF 13
ENDMDL
MODEL 7
REMARK VINA RESULT:      -6.4      1.523      1.757
REMARK  Name = 
REMARK  14 active torsions:
REMARK  status: ('A' for Active; 'I' for Inactive)
REMARK    1  A    between atoms: C_1  and  C_2
REMARK    2  A    between atoms: C_2  and  C_3
REMARK    3  A    between atoms: C_3  and  C_4
REMARK    4  A    between atoms: C_4  and  C_5
REMARK    5  A    between atoms: C_5  and  C_6
REMARK    6  A    between atoms: C_6  and  C_7
REMARK    7  A    between atoms: C_7  and  C_8
REMARK    8  A    between atoms: C_8  and  C_9
REMARK    9  A    between atoms: C_9  and  C_10
REMARK   10  A    between atoms: C_10  and  C_11
REMARK   11  A    between atoms: C_11  and  O_12
REMARK   12  A    between atoms: C_15  and  O_16
REMARK   13  A    between atoms: C_17  and  O_18
REMARK   14  A    between atoms: C_19  and  O_20
REMARK                            x       y       z     vdW  Elec       q    Type
REMARK                         _______ _______ _______ _____ _____    ______ ____
ROOT
ATOM      1  C   UNL     1       3.323   4.373  18.567  0.00  0.00    +0.000 C 
ATOM      2  N   UNL     1       1.872   4.098  18.551  0.00  0.00    +0.000 NA
ATOM      3  C   UNL     1       1.237   3.807  19.856  0.00  0.00    +0.000 C 
ATOM      4  C   UNL     1       1.998   2.705  20.634  0.00  0.00    +0.000 C 
ATOM      5  C   UNL     1       3.524   2.939  20.683  0.00  0.00    +0.000 C 
ATOM      6  C   UNL     1       4.051   3.171  19.245  0.00  0.00    +0.000 C 
ATOM      7  H   UNL     1       1.694   3.259  17.935  0.00  0.00    +0.000 HD
ENDROOT
BRANCH   4   8
ATOM      8  O   UNL     1       1.464   2.569  21.932  0.00  0.00    +0.000 OA
ATOM      9  H   UNL     1       0.523   2.272  21.831  0.00  0.00    +0.000 HD
ENDBRANCH   4   8
BRANCH   5  10
ATOM     10  O   UNL     1       4.172   1.846  21.292  0.00  0.00    +0.000 OA
ATOM     11  H   UNL     1       3.577   1.501  22.008  0.00  0.00    +0.000 HD
ENDBRANCH   5  10
BRANCH   6  12
ATOM     12  O   UNL     1       5.451   3.246  19.190  0.00  0.00    +0.000 OA
ATOM     13  H   UNL     1       5.716   3.730  18.368  0.00  0.00    +0.000 HD
ENDBRANCH   6  12
BRANCH   1  14
ATOM     14  C   UNL     1       3.833   4.434  17.072  0.00  0.00    +0.000 C 
BRANCH  14  15
ATOM     15  C   UNL     1       4.702   5.669  16.803  0.00  0.00    +0.000 C 
BRANCH  15  16
ATOM     16  C   UNL     1       5.312   5.764  15.420  0.00  0.00    +0.000 C 
BRANCH  16  17
ATOM     17  C   UNL     1       5.382   4.337  14.884  0.00  0.00    +0.000 C 
BRANCH  17  18
ATOM     18  C   UNL     1       6.590   4.160  14.015  0.00  0.00    +0.000 C 
BRANCH  18  19
ATOM     19  C   UNL     1       6.212   3.468  12.720  0.00  0.00    +0.000 C 
BRANCH  19  20
ATOM     20  C   UNL     1       4.757   3.761  12.420  0.00  0.00    +0.000 C 
BRANCH  20  22
ATOM     21  C   UNL     1       3.347   3.799  10.372  0.00  0.00    +0.000 C 
ATOM     22  C   UNL     1       4.280   2.953  11.226  0.00  0.00    +0.000 C 
ENDBRANCH  20  22
ENDBRANCH  19  20
ENDBRANCH  18  19
ENDBRANCH  17  18
ENDBRANCH  16  17
ENDBRANCH  15  16
ENDBRANCH  14  15
ENDBRANCH   1  14
BRANCH   1  23
ATOM     23  C   UNL     1       3.632   5.757  19.362  0.00  0.00    +0.000 C 
BRANCH  23  24
ATOM     24  O   UNL     1       2.604   6.696  19.273  0.00  0.00    +0.000 OA
ATOM     25  H   UNL     1       2.918   7.449  18.711  0.00  0.00    +0.000 HD
ENDBRANCH  23  24
ENDBRANCH   1  23
TORSDOF 13
ENDMDL
MODEL 8
REMARK VINA RESULT:      -6.4      1.615      2.508
REMARK  Name = 
REMARK  14 active torsions:
REMARK  status: ('A' for Active; 'I' for Inactive)
REMARK    1  A    between atoms: C_1  and  C_2
REMARK    2  A    between atoms: C_2  and  C_3
REMARK    3  A    between atoms: C_3  and  C_4
REMARK    4  A    between atoms: C_4  and  C_5
REMARK    5  A    between atoms: C_5  and  C_6
REMARK    6  A    between atoms: C_6  and  C_7
REMARK    7  A    between atoms: C_7  and  C_8
REMARK    8  A    between atoms: C_8  and  C_9
REMARK    9  A    between atoms: C_9  and  C_10
REMARK   10  A    between atoms: C_10  and  C_11
REMARK   11  A    between atoms: C_11  and  O_12
REMARK   12  A    between atoms: C_15  and  O_16
REMARK   13  A    between atoms: C_17  and  O_18
REMARK   14  A    between atoms: C_19  and  O_20
REMARK                            x       y       z     vdW  Elec       q    Type
REMARK                         _______ _______ _______ _____ _____    ______ ____
ROOT
ATOM      1  C   UNL     1       3.484   3.088  18.393  0.00  0.00    +0.000 C 
ATOM      2  N   UNL     1       4.335   3.064  19.601  0.00  0.00    +0.000 NA
ATOM      3  C   UNL     1       3.729   2.502  20.830  0.00  0.00    +0.000 C 
ATOM      4  C   UNL     1       2.353   3.142  21.138  0.00  0.00    +0.000 C 
ATOM      5  C   UNL     1       1.419   3.196  19.909  0.00  0.00    +0.000 C 
ATOM      6  C   UNL     1       2.168   3.858  18.726  0.00  0.00    +0.000 C 
ATOM      7  H   UNL     1       4.621   4.053  19.832  0.00  0.00    +0.000 HD
ENDROOT
BRANCH   4   8
ATOM      8  O   UNL     1       1.736   2.473  22.215  0.00  0.00    +0.000 OA
ATOM      9  H   UNL     1       2.450   1.994  22.708  0.00  0.00    +0.000 HD
ENDBRANCH   4   8
BRANCH   5  10
ATOM     10  O   UNL     1       0.236   3.898  20.218  0.00  0.00    +0.000 OA
ATOM     11  H   UNL     1      -0.457   3.626  19.562  0.00  0.00    +0.000 HD
ENDBRANCH   5  10
BRANCH   6  12
ATOM     12  O   UNL     1       1.338   4.076  17.616  0.00  0.00    +0.000 OA
ATOM     13  H   UNL     1       0.822   3.251  17.431  0.00  0.00    +0.000 HD
ENDBRANCH   6  12
BRANCH   1  14
ATOM     14  C   UNL     1       4.232   3.919  17.276  0.00  0.00    +0.000 C 
BRANCH  14  15
ATOM     15  C   UNL     1       4.872   5.197  17.832  0.00  0.00    +0.000 C 
BRANCH  15  16
ATOM     16  C   UNL     1       6.383   5.189  17.941  0.00  0.00    +0.000 C 
BRANCH  16  17
ATOM     17  C   UNL     1       6.912   5.714  16.609  0.00  0.00    +0.000 C 
BRANCH  17  18
ATOM     18  C   UNL     1       7.209   4.579  15.677  0.00  0.00    +0.000 C 
BRANCH  18  19
ATOM     19  C   UNL     1       6.736   4.911  14.275  0.00  0.00    +0.000 C 
BRANCH  19  20
ATOM     20  C   UNL     1       5.743   3.855  13.835  0.00  0.00    +0.000 C 
BRANCH  20  22
ATOM     21  C   UNL     1       4.681   3.205  11.683  0.00  0.00    +0.000 C 
ATOM     22  C   UNL     1       6.004   3.435  12.400  0.00  0.00    +0.000 C 
ENDBRANCH  20  22
ENDBRANCH  19  20
ENDBRANCH  18  19
ENDBRANCH  17  18
ENDBRANCH  16  17
ENDBRANCH  15  16
ENDBRANCH  14  15
ENDBRANCH   1  14
BRANCH   1  23
ATOM     23  C   UNL     1       3.157   1.575  17.898  0.00  0.00    +0.000 C 
BRANCH  23  24
ATOM     24  O   UNL     1       4.084   0.628  18.336  0.00  0.00    +0.000 OA
ATOM     25  H   UNL     1       4.219  -0.034  17.612  0.00  0.00    +0.000 HD
ENDBRANCH  23  24
ENDBRANCH   1  23
TORSDOF 13
ENDMDL
MODEL 9
REMARK VINA RESULT:      -6.4      3.779      6.549
REMARK  Name = 
REMARK  14 active torsions:
REMARK  status: ('A' for Active; 'I' for Inactive)
REMARK    1  A    between atoms: C_1  and  C_2
REMARK    2  A    between atoms: C_2  and  C_3
REMARK    3  A    between atoms: C_3  and  C_4
REMARK    4  A    between atoms: C_4  and  C_5
REMARK    5  A    between atoms: C_5  and  C_6
REMARK    6  A    between atoms: C_6  and  C_7
REMARK    7  A    between atoms: C_7  and  C_8
REMARK    8  A    between atoms: C_8  and  C_9
REMARK    9  A    between atoms: C_9  and  C_10
REMARK   10  A    between atoms: C_10  and  C_11
REMARK   11  A    between atoms: C_11  and  O_12
REMARK   12  A    between atoms: C_15  and  O_16
REMARK   13  A    between atoms: C_17  and  O_18
REMARK   14  A    between atoms: C_19  and  O_20
REMARK                            x       y       z     vdW  Elec       q    Type
REMARK                         _______ _______ _______ _____ _____    ______ ____
ROOT
ATOM      1  C   UNL     1       5.143   4.970  17.591  0.00  0.00    +0.000 C 
ATOM      2  N   UNL     1       5.895   4.327  18.689  0.00  0.00    +0.000 NA
ATOM      3  C   UNL     1       6.809   5.196  19.465  0.00  0.00    +0.000 C 
ATOM      4  C   UNL     1       7.758   6.002  18.544  0.00  0.00    +0.000 C 
ATOM      5  C   UNL     1       7.026   6.697  17.375  0.00  0.00    +0.000 C 
ATOM      6  C   UNL     1       6.159   5.655  16.625  0.00  0.00    +0.000 C 
ATOM      7  H   UNL     1       6.487   3.553  18.284  0.00  0.00    +0.000 HD
ENDROOT
BRANCH   4   8
ATOM      8  O   UNL     1       8.497   6.933  19.303  0.00  0.00    +0.000 OA
ATOM      9  H   UNL     1       7.891   7.691  19.505  0.00  0.00    +0.000 HD
ENDBRANCH   4   8
BRANCH   5  10
ATOM     10  O   UNL     1       7.952   7.307  16.505  0.00  0.00    +0.000 OA
ATOM     11  H   UNL     1       7.453   7.632  15.711  0.00  0.00    +0.000 HD
ENDBRANCH   5  10
BRANCH   6  12
ATOM     12  O   UNL     1       5.576   6.177  15.460  0.00  0.00    +0.000 OA
ATOM     13  H   UNL     1       5.785   5.579  14.698  0.00  0.00    +0.000 HD
ENDBRANCH   6  12
BRANCH   1  14
ATOM     14  C   UNL     1       4.412   3.840  16.762  0.00  0.00    +0.000 C 
BRANCH  14  15
ATOM     15  C   UNL     1       2.935   3.694  17.153  0.00  0.00    +0.000 C 
BRANCH  15  16
ATOM     16  C   UNL     1       2.488   2.303  17.552  0.00  0.00    +0.000 C 
BRANCH  16  17
ATOM     17  C   UNL     1       3.495   1.810  18.587  0.00  0.00    +0.000 C 
BRANCH  17  18
ATOM     18  C   UNL     1       3.144   2.326  19.950  0.00  0.00    +0.000 C 
BRANCH  18  19
ATOM     19  C   UNL     1       1.646   2.264  20.167  0.00  0.00    +0.000 C 
BRANCH  19  20
ATOM     20  C   UNL     1       1.237   3.414  21.065  0.00  0.00    +0.000 C 
BRANCH  20  22
ATOM     21  C   UNL     1       1.579   5.846  20.675  0.00  0.00    +0.000 C 
ATOM     22  C   UNL     1       2.265   4.530  21.012  0.00  0.00    +0.000 C 
ENDBRANCH  20  22
ENDBRANCH  19  20
ENDBRANCH  18  19
ENDBRANCH  17  18
ENDBRANCH  16  17
ENDBRANCH  15  16
ENDBRANCH  14  15
ENDBRANCH   1  14
BRANCH   1  23
ATOM     23  C   UNL     1       4.088   6.055  18.183  0.00  0.00    +0.000 C 
BRANCH  23  24
ATOM     24  O   UNL     1       3.829   7.118  17.316  0.00  0.00    +0.000 OA
ATOM     25  H   UNL     1       4.070   7.961  17.776  0.00  0.00    +0.000 HD
ENDBRANCH  23  24
ENDBRANCH   1  23
TORSDOF 13
ENDMDL
