MODEL 1
REMARK VINA RESULT:      -8.1      0.000      0.000
REMARK  Name = 
REMARK  5 active torsions:
REMARK  status: ('A' for Active; 'I' for Inactive)
REMARK    1  A    between atoms: N_1  and  C_2
REMARK    2  A    between atoms: N_5  and  C_6
REMARK    3  A    between atoms: C_6  and  C_7
REMARK    4  A    between atoms: N_14  and  C_15
REMARK    5  A    between atoms: C_21  and  N_22
REMARK                            x       y       z     vdW  Elec       q    Type
REMARK                         _______ _______ _______ _____ _____    ______ ____
ROOT
ATOM      1  C   UNL     1       1.557   3.925  20.337  0.00  0.00    +0.000 A 
ATOM      2  N   UNL     1       1.443   5.069  21.022  0.00  0.00    +0.000 NA
ATOM      3  C   UNL     1       1.943   6.185  20.476  0.00  0.00    +0.000 A 
ATOM      4  N   UNL     1       1.758   7.324  21.229  0.00  0.00    +0.000 N 
ATOM      5  N   UNL     1       2.626   6.200  19.318  0.00  0.00    +0.000 NA
ATOM      6  C   UNL     1       2.757   5.043  18.631  0.00  0.00    +0.000 A 
ATOM      7  N   UNL     1       3.614   4.991  17.506  0.00  0.00    +0.000 N 
ATOM      8  C   UNL     1       2.122   3.899  19.083  0.00  0.00    +0.000 A 
ATOM      9  H   UNL     1       1.054   7.093  21.925  0.00  0.00    +0.000 HD
ATOM     10  H   UNL     1       3.056   4.900  16.655  0.00  0.00    +0.000 HD
ENDROOT
BRANCH   7  11
ATOM     11  C   UNL     1       4.652   6.035  17.438  0.00  0.00    +0.000 C 
ATOM     12  C   UNL     1       5.931   5.586  18.172  0.00  0.00    +0.000 C 
ATOM     13  C   UNL     1       6.770   4.560  17.412  0.00  0.00    +0.000 C 
ATOM     14  C   UNL     1       7.109   5.026  16.004  0.00  0.00    +0.000 C 
ATOM     15  C   UNL     1       5.863   5.423  15.220  0.00  0.00    +0.000 C 
ATOM     16  C   UNL     1       4.960   6.402  15.974  0.00  0.00    +0.000 C 
ENDBRANCH   7  11
BRANCH   1  17
ATOM     17  N   UNL     1       1.043   2.804  20.993  0.00  0.00    +0.000 N 
ATOM     18  H   UNL     1       0.450   2.302  20.332  0.00  0.00    +0.000 HD
ATOM     19  H   UNL     1       0.526   3.054  21.836  0.00  0.00    +0.000 HD
ENDBRANCH   1  17
BRANCH   8  20
ATOM     20  N   UNL     1       2.104   2.712  18.294  0.00  0.00    +0.000 N 
ATOM     21  O   UNL     1       3.200   2.247  17.929  0.00  0.00    +0.000 OA
ATOM     22  O   UNL     1       0.994   2.217  18.045  0.00  0.00    +0.000 OA
ENDBRANCH   8  20
BRANCH   4  23
ATOM     23  C   UNL     1       1.434   8.544  20.508  0.00  0.00    +0.000 C 
BRANCH  23  24
ATOM     24  C   UNL     1       0.587   9.461  21.334  0.00  0.00    +0.000 A 
ATOM     25  C   UNL     1       0.135   9.409  22.644  0.00  0.00    +0.000 A 
ATOM     26  C   UNL     1      -0.696  10.540  22.828  0.00  0.00    +0.000 A 
ATOM     27  C   UNL     1      -0.701  11.209  21.625  0.00  0.00    +0.000 A 
ATOM     28  O   UNL     1       0.071  10.564  20.714  0.00  0.00    +0.000 OA
ENDBRANCH  23  24
ENDBRANCH   4  23
TORSDOF 5
ENDMDL
MODEL 2
REMARK VINA RESULT:      -7.7      0.953      1.016
REMARK  Name = 
REMARK  5 active torsions:
REMARK  status: ('A' for Active; 'I' for Inactive)
REMARK    1  A    between atoms: N_1  and  C_2
REMARK    2  A    between atoms: N_5  and  C_6
REMARK    3  A    between atoms: C_6  and  C_7
REMARK    4  A    between atoms: N_14  and  C_15
REMARK    5  A    between atoms: C_21  and  N_22
REMARK                            x       y       z     vdW  Elec       q    Type
REMARK                         _______ _______ _______ _____ _____    ______ ____
ROOT
ATOM      1  C   UNL     1       2.235   4.007  20.903  0.00  0.00    +0.000 A 
ATOM      2  N   UNL     1       1.913   5.263  21.235  0.00  0.00    +0.000 NA
ATOM      3  C   UNL     1       2.297   6.251  20.417  0.00  0.00    +0.000 A 
ATOM      4  N   UNL     1       1.900   7.510  20.814  0.00  0.00    +0.000 N 
ATOM      5  N   UNL     1       3.060   6.055  19.327  0.00  0.00    +0.000 NA
ATOM      6  C   UNL     1       3.401   4.790  18.998  0.00  0.00    +0.000 A 
ATOM      7  N   UNL     1       4.342   4.565  17.964  0.00  0.00    +0.000 N 
ATOM      8  C   UNL     1       2.894   3.729  19.728  0.00  0.00    +0.000 A 
ATOM      9  H   UNL     1       1.183   7.372  21.520  0.00  0.00    +0.000 HD
ATOM     10  H   UNL     1       3.870   4.163  17.153  0.00  0.00    +0.000 HD
ENDROOT
BRANCH   7  11
ATOM     11  C   UNL     1       5.230   5.697  17.645  0.00  0.00    +0.000 C 
ATOM     12  C   UNL     1       6.707   5.316  17.867  0.00  0.00    +0.000 C 
ATOM     13  C   UNL     1       7.298   4.416  16.783  0.00  0.00    +0.000 C 
ATOM     14  C   UNL     1       7.109   4.996  15.390  0.00  0.00    +0.000 C 
ATOM     15  C   UNL     1       5.650   5.333  15.106  0.00  0.00    +0.000 C 
ATOM     16  C   UNL     1       4.999   6.180  16.201  0.00  0.00    +0.000 C 
ENDBRANCH   7  11
BRANCH   1  17
ATOM     17  N   UNL     1       1.829   3.041  21.827  0.00  0.00    +0.000 N 
ATOM     18  H   UNL     1       2.494   2.270  21.782  0.00  0.00    +0.000 HD
ATOM     19  H   UNL     1       0.877   2.719  21.654  0.00  0.00    +0.000 HD
ENDBRANCH   1  17
BRANCH   8  20
ATOM     20  N   UNL     1       3.100   2.383  19.302  0.00  0.00    +0.000 N 
ATOM     21  O   UNL     1       4.261   1.937  19.349  0.00  0.00    +0.000 OA
ATOM     22  O   UNL     1       2.099   1.748  18.936  0.00  0.00    +0.000 OA
ENDBRANCH   8  20
BRANCH   4  23
ATOM     23  C   UNL     1       1.470   8.424  19.768  0.00  0.00    +0.000 C 
BRANCH  23  24
ATOM     24  C   UNL     1       0.608   9.517  20.316  0.00  0.00    +0.000 A 
ATOM     25  C   UNL     1       0.331   9.950  21.605  0.00  0.00    +0.000 A 
ATOM     26  C   UNL     1      -0.624  10.987  21.485  0.00  0.00    +0.000 A 
ATOM     27  C   UNL     1      -0.873  11.123  20.138  0.00  0.00    +0.000 A 
ATOM     28  O   UNL     1      -0.134  10.237  19.423  0.00  0.00    +0.000 OA
ENDBRANCH  23  24
ENDBRANCH   4  23
TORSDOF 5
ENDMDL
MODEL 3
REMARK VINA RESULT:      -7.1      2.681      4.800
REMARK  Name = 
REMARK  5 active torsions:
REMARK  status: ('A' for Active; 'I' for Inactive)
REMARK    1  A    between atoms: N_1  and  C_2
REMARK    2  A    between atoms: N_5  and  C_6
REMARK    3  A    between atoms: C_6  and  C_7
REMARK    4  A    between atoms: N_14  and  C_15
REMARK    5  A    between atoms: C_21  and  N_22
REMARK                            x       y       z     vdW  Elec       q    Type
REMARK                         _______ _______ _______ _____ _____    ______ ____
ROOT
ATOM      1  C   UNL     1       4.661   6.836  17.132  0.00  0.00    +0.000 A 
ATOM      2  N   UNL     1       3.695   7.749  16.968  0.00  0.00    +0.000 NA
ATOM      3  C   UNL     1       2.755   7.850  17.917  0.00  0.00    +0.000 A 
ATOM      4  N   UNL     1       1.815   8.832  17.689  0.00  0.00    +0.000 N 
ATOM      5  N   UNL     1       2.683   7.027  18.978  0.00  0.00    +0.000 NA
ATOM      6  C   UNL     1       3.648   6.094  19.138  0.00  0.00    +0.000 A 
ATOM      7  N   UNL     1       3.507   5.106  20.141  0.00  0.00    +0.000 N 
ATOM      8  C   UNL     1       4.722   6.060  18.265  0.00  0.00    +0.000 A 
ATOM      9  H   UNL     1       2.200   9.430  16.963  0.00  0.00    +0.000 HD
ATOM     10  H   UNL     1       4.185   5.275  20.886  0.00  0.00    +0.000 HD
ENDROOT
BRANCH   7  11
ATOM     11  C   UNL     1       2.133   4.867  20.620  0.00  0.00    +0.000 C 
ATOM     12  C   UNL     1       1.197   4.514  19.448  0.00  0.00    +0.000 C 
ATOM     13  C   UNL     1       1.365   3.094  18.909  0.00  0.00    +0.000 C 
ATOM     14  C   UNL     1       1.250   2.047  20.007  0.00  0.00    +0.000 C 
ATOM     15  C   UNL     1       2.205   2.325  21.162  0.00  0.00    +0.000 C 
ATOM     16  C   UNL     1       2.115   3.758  21.690  0.00  0.00    +0.000 C 
ENDBRANCH   7  11
BRANCH   1  17
ATOM     17  N   UNL     1       5.579   6.771  16.081  0.00  0.00    +0.000 N 
ATOM     18  H   UNL     1       5.876   5.800  15.988  0.00  0.00    +0.000 HD
ATOM     19  H   UNL     1       6.377   7.389  16.228  0.00  0.00    +0.000 HD
ENDBRANCH   1  17
BRANCH   8  20
ATOM     20  N   UNL     1       5.833   5.199  18.507  0.00  0.00    +0.000 N 
ATOM     21  O   UNL     1       6.399   5.287  19.613  0.00  0.00    +0.000 OA
ATOM     22  O   UNL     1       6.142   4.409  17.602  0.00  0.00    +0.000 OA
ENDBRANCH   8  20
BRANCH   4  23
ATOM     23  C   UNL     1       1.367   9.593  18.844  0.00  0.00    +0.000 C 
BRANCH  23  24
ATOM     24  C   UNL     1      -0.015  10.132  18.643  0.00  0.00    +0.000 A 
ATOM     25  C   UNL     1      -0.971   9.942  17.657  0.00  0.00    +0.000 A 
ATOM     26  C   UNL     1      -2.058  10.786  17.984  0.00  0.00    +0.000 A 
ATOM     27  C   UNL     1      -1.701  11.438  19.142  0.00  0.00    +0.000 A 
ATOM     28  O   UNL     1      -0.465  11.050  19.548  0.00  0.00    +0.000 OA
ENDBRANCH  23  24
ENDBRANCH   4  23
TORSDOF 5
ENDMDL
MODEL 4
REMARK VINA RESULT:      -7.1      2.712      4.827
REMARK  Name = 
REMARK  5 active torsions:
REMARK  status: ('A' for Active; 'I' for Inactive)
REMARK    1  A    between atoms: N_1  and  C_2
REMARK    2  A    between atoms: N_5  and  C_6
REMARK    3  A    between atoms: C_6  and  C_7
REMARK    4  A    between atoms: N_14  and  C_15
REMARK    5  A    between atoms: C_21  and  N_22
REMARK                            x       y       z     vdW  Elec       q    Type
REMARK                         _______ _______ _______ _____ _____    ______ ____
ROOT
ATOM      1  C   UNL     1       4.774   6.763  17.170  0.00  0.00    +0.000 A 
ATOM      2  N   UNL     1       3.813   7.674  16.978  0.00  0.00    +0.000 NA
ATOM      3  C   UNL     1       2.851   7.783  17.904  0.00  0.00    +0.000 A 
ATOM      4  N   UNL     1       1.918   8.764  17.648  0.00  0.00    +0.000 N 
ATOM      5  N   UNL     1       2.755   6.968  18.970  0.00  0.00    +0.000 NA
ATOM      6  C   UNL     1       3.716   6.036  19.158  0.00  0.00    +0.000 A 
ATOM      7  N   UNL     1       3.551   5.056  20.166  0.00  0.00    +0.000 N 
ATOM      8  C   UNL     1       4.809   5.995  18.310  0.00  0.00    +0.000 A 
ATOM      9  H   UNL     1       2.320   9.356  16.926  0.00  0.00    +0.000 HD
ATOM     10  H   UNL     1       4.213   5.230  20.924  0.00  0.00    +0.000 HD
ENDROOT
BRANCH   7  11
ATOM     11  C   UNL     1       2.167   4.821  20.615  0.00  0.00    +0.000 C 
ATOM     12  C   UNL     1       1.253   4.480  19.422  0.00  0.00    +0.000 C 
ATOM     13  C   UNL     1       1.424   3.064  18.877  0.00  0.00    +0.000 C 
ATOM     14  C   UNL     1       1.282   2.009  19.965  0.00  0.00    +0.000 C 
ATOM     15  C   UNL     1       2.214   2.275  21.141  0.00  0.00    +0.000 C 
ATOM     16  C   UNL     1       2.121   3.705  21.676  0.00  0.00    +0.000 C 
ENDBRANCH   7  11
BRANCH   1  17
ATOM     17  N   UNL     1       5.717   6.689  16.141  0.00  0.00    +0.000 N 
ATOM     18  H   UNL     1       5.722   7.589  15.660  0.00  0.00    +0.000 HD
ATOM     19  H   UNL     1       5.522   5.925  15.495  0.00  0.00    +0.000 HD
ENDBRANCH   1  17
BRANCH   8  20
ATOM     20  N   UNL     1       5.914   5.136  18.584  0.00  0.00    +0.000 N 
ATOM     21  O   UNL     1       6.254   4.334  17.695  0.00  0.00    +0.000 OA
ATOM     22  O   UNL     1       6.470   5.267  19.686  0.00  0.00    +0.000 OA
ENDBRANCH   8  20
BRANCH   4  23
ATOM     23  C   UNL     1       1.444   9.534  18.786  0.00  0.00    +0.000 C 
BRANCH  23  24
ATOM     24  C   UNL     1       0.061  10.057  18.557  0.00  0.00    +0.000 A 
ATOM     25  C   UNL     1      -0.789  10.850  19.313  0.00  0.00    +0.000 A 
ATOM     26  C   UNL     1      -2.002  10.942  18.590  0.00  0.00    +0.000 A 
ATOM     27  C   UNL     1      -1.821  10.202  17.444  0.00  0.00    +0.000 A 
ATOM     28  O   UNL     1      -0.576   9.661  17.415  0.00  0.00    +0.000 OA
ENDBRANCH  23  24
ENDBRANCH   4  23
TORSDOF 5
ENDMDL
MODEL 5
REMARK VINA RESULT:      -7.1      1.872      2.225
REMARK  Name = 
REMARK  5 active torsions:
REMARK  status: ('A' for Active; 'I' for Inactive)
REMARK    1  A    between atoms: N_1  and  C_2
REMARK    2  A    between atoms: N_5  and  C_6
REMARK    3  A    between atoms: C_6  and  C_7
REMARK    4  A    between atoms: N_14  and  C_15
REMARK    5  A    between atoms: C_21  and  N_22
REMARK                            x       y       z     vdW  Elec       q    Type
REMARK                         _______ _______ _______ _____ _____    ______ ____
ROOT
ATOM      1  C   UNL     1       2.389   5.279  20.255  0.00  0.00    +0.000 A 
ATOM      2  N   UNL     1       2.055   6.575  20.252  0.00  0.00    +0.000 NA
ATOM      3  C   UNL     1       2.310   7.290  19.149  0.00  0.00    +0.000 A 
ATOM      4  N   UNL     1       1.908   8.607  19.214  0.00  0.00    +0.000 N 
ATOM      5  N   UNL     1       2.959   6.796  18.080  0.00  0.00    +0.000 NA
ATOM      6  C   UNL     1       3.312   5.491  18.087  0.00  0.00    +0.000 A 
ATOM      7  N   UNL     1       4.145   4.987  17.060  0.00  0.00    +0.000 N 
ATOM      8  C   UNL     1       2.929   4.680  19.141  0.00  0.00    +0.000 A 
ATOM      9  H   UNL     1       1.276   8.671  20.008  0.00  0.00    +0.000 HD
ATOM     10  H   UNL     1       3.606   4.365  16.455  0.00  0.00    +0.000 HD
ENDROOT
BRANCH   7  11
ATOM     11  C   UNL     1       4.949   5.987  16.333  0.00  0.00    +0.000 C 
ATOM     12  C   UNL     1       6.255   6.298  17.091  0.00  0.00    +0.000 C 
ATOM     13  C   UNL     1       7.323   5.211  16.983  0.00  0.00    +0.000 C 
ATOM     14  C   UNL     1       7.629   4.849  15.537  0.00  0.00    +0.000 C 
ATOM     15  C   UNL     1       6.369   4.476  14.765  0.00  0.00    +0.000 C 
ATOM     16  C   UNL     1       5.247   5.508  14.900  0.00  0.00    +0.000 C 
ENDBRANCH   7  11
BRANCH   1  17
ATOM     17  N   UNL     1       2.123   4.615  21.456  0.00  0.00    +0.000 N 
ATOM     18  H   UNL     1       1.196   4.902  21.770  0.00  0.00    +0.000 HD
ATOM     19  H   UNL     1       2.829   4.806  22.166  0.00  0.00    +0.000 HD
ENDBRANCH   1  17
BRANCH   8  20
ATOM     20  N   UNL     1       3.142   3.271  19.094  0.00  0.00    +0.000 N 
ATOM     21  O   UNL     1       2.510   2.622  18.240  0.00  0.00    +0.000 OA
ATOM     22  O   UNL     1       3.960   2.797  19.898  0.00  0.00    +0.000 OA
ENDBRANCH   8  20
BRANCH   4  23
ATOM     23  C   UNL     1       1.332   9.179  18.008  0.00  0.00    +0.000 C 
BRANCH  23  24
ATOM     24  C   UNL     1       0.104   9.978  18.313  0.00  0.00    +0.000 A 
ATOM     25  C   UNL     1      -0.247  10.812  19.364  0.00  0.00    +0.000 A 
ATOM     26  C   UNL     1      -1.580  11.222  19.125  0.00  0.00    +0.000 A 
ATOM     27  C   UNL     1      -1.961  10.615  17.950  0.00  0.00    +0.000 A 
ATOM     28  O   UNL     1      -0.950   9.859  17.452  0.00  0.00    +0.000 OA
ENDBRANCH  23  24
ENDBRANCH   4  23
TORSDOF 5
ENDMDL
MODEL 6
REMARK VINA RESULT:      -6.9      2.820      4.943
REMARK  Name = 
REMARK  5 active torsions:
REMARK  status: ('A' for Active; 'I' for Inactive)
REMARK    1  A    between atoms: N_1  and  C_2
REMARK    2  A    between atoms: N_5  and  C_6
REMARK    3  A    between atoms: C_6  and  C_7
REMARK    4  A    between atoms: N_14  and  C_15
REMARK    5  A    between atoms: C_21  and  N_22
REMARK                            x       y       z     vdW  Elec       q    Type
REMARK                         _______ _______ _______ _____ _____    ______ ____
ROOT
ATOM      1  C   UNL     1       4.792   6.891  17.236  0.00  0.00    +0.000 A 
ATOM      2  N   UNL     1       3.821   7.792  17.045  0.00  0.00    +0.000 NA
ATOM      3  C   UNL     1       2.819   7.839  17.934  0.00  0.00    +0.000 A 
ATOM      4  N   UNL     1       1.877   8.813  17.683  0.00  0.00    +0.000 N 
ATOM      5  N   UNL     1       2.696   6.975  18.956  0.00  0.00    +0.000 NA
ATOM      6  C   UNL     1       3.668   6.053  19.142  0.00  0.00    +0.000 A 
ATOM      7  N   UNL     1       3.482   5.024  20.096  0.00  0.00    +0.000 N 
ATOM      8  C   UNL     1       4.796   6.072  18.340  0.00  0.00    +0.000 A 
ATOM      9  H   UNL     1       2.296   9.445  17.007  0.00  0.00    +0.000 HD
ATOM     10  H   UNL     1       4.108   5.175  20.889  0.00  0.00    +0.000 HD
ENDROOT
BRANCH   7  11
ATOM     11  C   UNL     1       2.086   4.742  20.476  0.00  0.00    +0.000 C 
ATOM     12  C   UNL     1       1.267   4.282  19.254  0.00  0.00    +0.000 C 
ATOM     13  C   UNL     1       1.544   2.846  18.811  0.00  0.00    +0.000 C 
ATOM     14  C   UNL     1       1.386   1.853  19.953  0.00  0.00    +0.000 C 
ATOM     15  C   UNL     1       2.227   2.239  21.164  0.00  0.00    +0.000 C 
ATOM     16  C   UNL     1       2.029   3.692  21.601  0.00  0.00    +0.000 C 
ENDBRANCH   7  11
BRANCH   1  17
ATOM     17  N   UNL     1       5.777   6.883  16.245  0.00  0.00    +0.000 N 
ATOM     18  H   UNL     1       5.395   7.351  15.424  0.00  0.00    +0.000 HD
ATOM     19  H   UNL     1       6.090   5.939  16.021  0.00  0.00    +0.000 HD
ENDBRANCH   1  17
BRANCH   8  20
ATOM     20  N   UNL     1       5.906   5.222  18.621  0.00  0.00    +0.000 N 
ATOM     21  O   UNL     1       6.477   5.365  19.719  0.00  0.00    +0.000 OA
ATOM     22  O   UNL     1       6.209   4.386  17.756  0.00  0.00    +0.000 OA
ENDBRANCH   8  20
BRANCH   4  23
ATOM     23  C   UNL     1       1.341   9.521  18.835  0.00  0.00    +0.000 C 
BRANCH  23  24
ATOM     24  C   UNL     1       1.438  11.004  18.661  0.00  0.00    +0.000 A 
ATOM     25  C   UNL     1       0.555  12.046  18.901  0.00  0.00    +0.000 A 
ATOM     26  C   UNL     1       1.200  13.228  18.464  0.00  0.00    +0.000 A 
ATOM     27  C   UNL     1       2.430  12.837  17.986  0.00  0.00    +0.000 A 
ATOM     28  O   UNL     1       2.583  11.494  18.099  0.00  0.00    +0.000 OA
ENDBRANCH  23  24
ENDBRANCH   4  23
TORSDOF 5
ENDMDL
MODEL 7
REMARK VINA RESULT:      -6.8      2.779      4.897
REMARK  Name = 
REMARK  5 active torsions:
REMARK  status: ('A' for Active; 'I' for Inactive)
REMARK    1  A    between atoms: N_1  and  C_2
REMARK    2  A    between atoms: N_5  and  C_6
REMARK    3  A    between atoms: C_6  and  C_7
REMARK    4  A    between atoms: N_14  and  C_15
REMARK    5  A    between atoms: C_21  and  N_22
REMARK                            x       y       z     vdW  Elec       q    Type
REMARK                         _______ _______ _______ _____ _____    ______ ____
ROOT
ATOM      1  C   UNL     1       4.707   6.815  17.223  0.00  0.00    +0.000 A 
ATOM      2  N   UNL     1       3.741   7.725  17.052  0.00  0.00    +0.000 NA
ATOM      3  C   UNL     1       2.781   7.809  17.982  0.00  0.00    +0.000 A 
ATOM      4  N   UNL     1       1.842   8.791  17.748  0.00  0.00    +0.000 N 
ATOM      5  N   UNL     1       2.691   6.972  19.030  0.00  0.00    +0.000 NA
ATOM      6  C   UNL     1       3.656   6.041  19.197  0.00  0.00    +0.000 A 
ATOM      7  N   UNL     1       3.498   5.039  20.184  0.00  0.00    +0.000 N 
ATOM      8  C   UNL     1       4.748   6.023  18.346  0.00  0.00    +0.000 A 
ATOM      9  H   UNL     1       2.240   9.400  17.038  0.00  0.00    +0.000 HD
ATOM     10  H   UNL     1       4.161   5.200  20.945  0.00  0.00    +0.000 HD
ENDROOT
BRANCH   7  11
ATOM     11  C   UNL     1       2.116   4.787  20.631  0.00  0.00    +0.000 C 
ATOM     12  C   UNL     1       1.199   4.477  19.432  0.00  0.00    +0.000 C 
ATOM     13  C   UNL     1       1.373   3.076  18.848  0.00  0.00    +0.000 C 
ATOM     14  C   UNL     1       1.237   1.992  19.908  0.00  0.00    +0.000 C 
ATOM     15  C   UNL     1       2.173   2.229  21.088  0.00  0.00    +0.000 C 
ATOM     16  C   UNL     1       2.077   3.644  21.662  0.00  0.00    +0.000 C 
ENDBRANCH   7  11
BRANCH   1  17
ATOM     17  N   UNL     1       5.648   6.767  16.191  0.00  0.00    +0.000 N 
ATOM     18  H   UNL     1       5.172   6.434  15.352  0.00  0.00    +0.000 HD
ATOM     19  H   UNL     1       6.445   6.175  16.423  0.00  0.00    +0.000 HD
ENDBRANCH   1  17
BRANCH   8  20
ATOM     20  N   UNL     1       5.858   5.164  18.600  0.00  0.00    +0.000 N 
ATOM     21  O   UNL     1       6.195   4.377  17.696  0.00  0.00    +0.000 OA
ATOM     22  O   UNL     1       6.420   5.279  19.700  0.00  0.00    +0.000 OA
ENDBRANCH   8  20
BRANCH   4  23
ATOM     23  C   UNL     1       1.367   9.535  18.904  0.00  0.00    +0.000 C 
BRANCH  23  24
ATOM     24  C   UNL     1       1.353  11.008  18.639  0.00  0.00    +0.000 A 
ATOM     25  C   UNL     1       2.335  11.914  18.269  0.00  0.00    +0.000 A 
ATOM     26  C   UNL     1       1.720  13.187  18.246  0.00  0.00    +0.000 A 
ATOM     27  C   UNL     1       0.406  12.983  18.602  0.00  0.00    +0.000 A 
ATOM     28  O   UNL     1       0.174  11.668  18.844  0.00  0.00    +0.000 OA
ENDBRANCH  23  24
ENDBRANCH   4  23
TORSDOF 5
ENDMDL
MODEL 8
REMARK VINA RESULT:      -6.7      3.119      5.130
REMARK  Name = 
REMARK  5 active torsions:
REMARK  status: ('A' for Active; 'I' for Inactive)
REMARK    1  A    between atoms: N_1  and  C_2
REMARK    2  A    between atoms: N_5  and  C_6
REMARK    3  A    between atoms: C_6  and  C_7
REMARK    4  A    between atoms: N_14  and  C_15
REMARK    5  A    between atoms: C_21  and  N_22
REMARK                            x       y       z     vdW  Elec       q    Type
REMARK                         _______ _______ _______ _____ _____    ______ ____
ROOT
ATOM      1  C   UNL     1       6.232   6.854  17.470  0.00  0.00    +0.000 A 
ATOM      2  N   UNL     1       5.176   7.568  17.061  0.00  0.00    +0.000 NA
ATOM      3  C   UNL     1       3.963   7.206  17.497  0.00  0.00    +0.000 A 
ATOM      4  N   UNL     1       2.933   8.009  17.055  0.00  0.00    +0.000 N 
ATOM      5  N   UNL     1       3.742   6.116  18.253  0.00  0.00    +0.000 NA
ATOM      6  C   UNL     1       4.805   5.384  18.654  0.00  0.00    +0.000 A 
ATOM      7  N   UNL     1       4.595   4.142  19.299  0.00  0.00    +0.000 N 
ATOM      8  C   UNL     1       6.087   5.812  18.355  0.00  0.00    +0.000 A 
ATOM      9  H   UNL     1       3.367   8.854  16.693  0.00  0.00    +0.000 HD
ATOM     10  H   UNL     1       4.856   4.218  20.283  0.00  0.00    +0.000 HD
ENDROOT
BRANCH   7  11
ATOM     11  C   UNL     1       3.283   3.511  19.070  0.00  0.00    +0.000 C 
ATOM     12  C   UNL     1       3.181   2.168  19.819  0.00  0.00    +0.000 C 
ATOM     13  C   UNL     1       2.968   2.299  21.326  0.00  0.00    +0.000 C 
ATOM     14  C   UNL     1       1.775   3.180  21.663  0.00  0.00    +0.000 C 
ATOM     15  C   UNL     1       1.865   4.544  20.989  0.00  0.00    +0.000 C 
ATOM     16  C   UNL     1       2.143   4.460  19.487  0.00  0.00    +0.000 C 
ENDBRANCH   7  11
BRANCH   1  17
ATOM     17  N   UNL     1       7.455   7.274  16.940  0.00  0.00    +0.000 N 
ATOM     18  H   UNL     1       7.336   8.230  16.604  0.00  0.00    +0.000 HD
ATOM     19  H   UNL     1       7.785   6.659  16.197  0.00  0.00    +0.000 HD
ENDBRANCH   1  17
BRANCH   8  20
ATOM     20  N   UNL     1       7.225   5.153  18.907  0.00  0.00    +0.000 N 
ATOM     21  O   UNL     1       7.497   5.376  20.101  0.00  0.00    +0.000 OA
ATOM     22  O   UNL     1       7.850   4.386  18.158  0.00  0.00    +0.000 OA
ENDBRANCH   8  20
BRANCH   4  23
ATOM     23  C   UNL     1       1.875   8.304  18.008  0.00  0.00    +0.000 C 
BRANCH  23  24
ATOM     24  C   UNL     1       1.796   9.769  18.304  0.00  0.00    +0.000 A 
ATOM     25  C   UNL     1       0.984  10.525  19.136  0.00  0.00    +0.000 A 
ATOM     26  C   UNL     1       1.342  11.877  18.927  0.00  0.00    +0.000 A 
ATOM     27  C   UNL     1       2.345  11.866  17.984  0.00  0.00    +0.000 A 
ATOM     28  O   UNL     1       2.626  10.594  17.600  0.00  0.00    +0.000 OA
ENDBRANCH  23  24
ENDBRANCH   4  23
TORSDOF 5
ENDMDL
MODEL 9
REMARK VINA RESULT:      -6.7      2.431      4.766
REMARK  Name = 
REMARK  5 active torsions:
REMARK  status: ('A' for Active; 'I' for Inactive)
REMARK    1  A    between atoms: N_1  and  C_2
REMARK    2  A    between atoms: N_5  and  C_6
REMARK    3  A    between atoms: C_6  and  C_7
REMARK    4  A    between atoms: N_14  and  C_15
REMARK    5  A    between atoms: C_21  and  N_22
REMARK                            x       y       z     vdW  Elec       q    Type
REMARK                         _______ _______ _______ _____ _____    ______ ____
ROOT
ATOM      1  C   UNL     1       4.702   6.628  16.461  0.00  0.00    +0.000 A 
ATOM      2  N   UNL     1       3.899   7.694  16.562  0.00  0.00    +0.000 NA
ATOM      3  C   UNL     1       2.958   7.688  17.516  0.00  0.00    +0.000 A 
ATOM      4  N   UNL     1       2.194   8.833  17.574  0.00  0.00    +0.000 N 
ATOM      5  N   UNL     1       2.725   6.634  18.318  0.00  0.00    +0.000 NA
ATOM      6  C   UNL     1       3.524   5.550  18.208  0.00  0.00    +0.000 A 
ATOM      7  N   UNL     1       3.198   4.366  18.911  0.00  0.00    +0.000 N 
ATOM      8  C   UNL     1       4.605   5.578  17.343  0.00  0.00    +0.000 A 
ATOM      9  H   UNL     1       2.690   9.533  17.029  0.00  0.00    +0.000 HD
ATOM     10  H   UNL     1       3.872   4.217  19.664  0.00  0.00    +0.000 HD
ENDROOT
BRANCH   7  11
ATOM     11  C   UNL     1       1.790   4.231  19.326  0.00  0.00    +0.000 C 
ATOM     12  C   UNL     1       1.298   2.783  19.139  0.00  0.00    +0.000 C 
ATOM     13  C   UNL     1       1.808   1.800  20.191  0.00  0.00    +0.000 C 
ATOM     14  C   UNL     1       1.518   2.274  21.608  0.00  0.00    +0.000 C 
ATOM     15  C   UNL     1       2.042   3.684  21.855  0.00  0.00    +0.000 C 
ATOM     16  C   UNL     1       1.607   4.688  20.786  0.00  0.00    +0.000 C 
ENDBRANCH   7  11
BRANCH   1  17
ATOM     17  N   UNL     1       5.630   6.699  15.419  0.00  0.00    +0.000 N 
ATOM     18  H   UNL     1       5.557   7.627  15.001  0.00  0.00    +0.000 HD
ATOM     19  H   UNL     1       5.485   5.968  14.723  0.00  0.00    +0.000 HD
ENDBRANCH   1  17
BRANCH   8  20
ATOM     20  N   UNL     1       5.558   4.517  17.330  0.00  0.00    +0.000 N 
ATOM     21  O   UNL     1       6.294   4.392  18.326  0.00  0.00    +0.000 OA
ATOM     22  O   UNL     1       5.568   3.781  16.331  0.00  0.00    +0.000 OA
ENDBRANCH   8  20
BRANCH   4  23
ATOM     23  C   UNL     1       1.838   9.320  18.897  0.00  0.00    +0.000 C 
BRANCH  23  24
ATOM     24  C   UNL     1       0.525  10.038  18.881  0.00  0.00    +0.000 A 
ATOM     25  C   UNL     1      -0.095  10.898  19.776  0.00  0.00    +0.000 A 
ATOM     26  C   UNL     1      -1.368  11.193  19.234  0.00  0.00    +0.000 A 
ATOM     27  C   UNL     1      -1.449  10.497  18.049  0.00  0.00    +0.000 A 
ATOM     28  O   UNL     1      -0.309   9.795  17.827  0.00  0.00    +0.000 OA
ENDBRANCH  23  24
ENDBRANCH   4  23
TORSDOF 5
ENDMDL
