MODEL 1
REMARK VINA RESULT:      -8.8      0.000      0.000
REMARK  Name = 
REMARK  7 active torsions:
REMARK  status: ('A' for Active; 'I' for Inactive)
REMARK    1  A    between atoms: C_1  and  C_2
REMARK    2  A    between atoms: C_5  and  N_6
REMARK    3  A    between atoms: C_8  and  C_9
REMARK    4  A    between atoms: N_10  and  N_11
REMARK    5  A    between atoms: C_12  and  C_13
REMARK    6  A    between atoms: C_17  and  C_18
REMARK    7  A    between atoms: C_29  and  C_30
REMARK                            x       y       z     vdW  Elec       q    Type
REMARK                         _______ _______ _______ _____ _____    ______ ____
ROOT
ATOM      1  C   UNL     1       3.815   6.506  17.287  0.00  0.00    +0.000 C 
ATOM      2  N   UNL     1       4.675   5.545  17.296  0.00  0.00    +0.000 NA
ENDROOT
BRANCH   2   3
ATOM      3  N   UNL     1       5.387   5.287  16.136  0.00  0.00    +0.000 N 
ATOM      4  C   UNL     1       6.738   5.682  16.066  0.00  0.00    +0.000 A 
ATOM      5  N   UNL     1       7.475   5.437  15.020  0.00  0.00    +0.000 NA
ATOM      6  C   UNL     1       6.935   4.704  13.956  0.00  0.00    +0.000 A 
ATOM      7  C   UNL     1       7.741   4.412  12.854  0.00  0.00    +0.000 A 
ATOM      8  C   UNL     1       7.253   3.639  11.792  0.00  0.00    +0.000 A 
ATOM      9  C   UNL     1       5.945   3.159  11.817  0.00  0.00    +0.000 A 
ATOM     10  C   UNL     1       5.128   3.451  12.903  0.00  0.00    +0.000 A 
ATOM     11  C   UNL     1       5.633   4.214  13.964  0.00  0.00    +0.000 A 
ATOM     12  C   UNL     1       4.805   4.482  15.144  0.00  0.00    +0.000 A 
ATOM     13  O   UNL     1       3.689   3.964  15.205  0.00  0.00    +0.000 OA
BRANCH   4  14
ATOM     14  C   UNL     1       7.362   6.454  17.198  0.00  0.00    +0.000 A 
ATOM     15  C   UNL     1       7.761   5.852  18.397  0.00  0.00    +0.000 A 
ATOM     16  C   UNL     1       8.301   6.613  19.435  0.00  0.00    +0.000 A 
ATOM     17  C   UNL     1       8.503   7.980  19.268  0.00  0.00    +0.000 A 
ATOM     18  C   UNL     1       8.179   8.596  18.054  0.00  0.00    +0.000 A 
ATOM     19  C   UNL     1       8.445  10.059  17.847  0.00  0.00    +0.000 C 
ATOM     20  C   UNL     1       7.607   7.827  17.025  0.00  0.00    +0.000 A 
ENDBRANCH   4  14
ENDBRANCH   2   3
BRANCH   1  23
ATOM     21  N   UNL     1       1.774   7.788  19.948  0.00  0.00    +0.000 N 
ATOM     22  C   UNL     1       2.414   7.922  18.744  0.00  0.00    +0.000 A 
ATOM     23  C   UNL     1       2.986   6.708  18.445  0.00  0.00    +0.000 A 
ATOM     24  C   UNL     1       2.543   5.833  19.479  0.00  0.00    +0.000 A 
ATOM     25  N   UNL     1       1.850   6.515  20.409  0.00  0.00    +0.000 NA
BRANCH  21  30
ATOM     26  C   UNL     1      -0.970  11.882  22.877  0.00  0.00    +0.000 C 
ATOM     27  C   UNL     1      -0.244  10.818  22.110  0.00  0.00    +0.000 A 
ATOM     28  C   UNL     1       0.060  11.000  20.758  0.00  0.00    +0.000 A 
ATOM     29  C   UNL     1       0.727  10.007  20.042  0.00  0.00    +0.000 A 
ATOM     30  C   UNL     1       1.099   8.809  20.673  0.00  0.00    +0.000 A 
ATOM     31  C   UNL     1       0.805   8.626  22.030  0.00  0.00    +0.000 A 
ATOM     32  C   UNL     1       0.140   9.629  22.742  0.00  0.00    +0.000 A 
ENDBRANCH  21  30
BRANCH  24  33
ATOM     33  C   UNL     1       2.716   4.380  19.599  0.00  0.00    +0.000 A 
ATOM     34  C   UNL     1       3.941   3.840  19.995  0.00  0.00    +0.000 A 
ATOM     35  C   UNL     1       4.058   2.462  20.095  0.00  0.00    +0.000 A 
ATOM     36  N   UNL     1       3.053   1.599  19.832  0.00  0.00    +0.000 NA
ATOM     37  C   UNL     1       1.871   2.141  19.473  0.00  0.00    +0.000 A 
ATOM     38  C   UNL     1       1.653   3.504  19.357  0.00  0.00    +0.000 A 
ENDBRANCH  24  33
ENDBRANCH   1  23
TORSDOF 5
ENDMDL
MODEL 2
REMARK VINA RESULT:      -8.2      4.578     11.033
REMARK  Name = 
REMARK  7 active torsions:
REMARK  status: ('A' for Active; 'I' for Inactive)
REMARK    1  A    between atoms: C_1  and  C_2
REMARK    2  A    between atoms: C_5  and  N_6
REMARK    3  A    between atoms: C_8  and  C_9
REMARK    4  A    between atoms: N_10  and  N_11
REMARK    5  A    between atoms: C_12  and  C_13
REMARK    6  A    between atoms: C_17  and  C_18
REMARK    7  A    between atoms: C_29  and  C_30
REMARK                            x       y       z     vdW  Elec       q    Type
REMARK                         _______ _______ _______ _____ _____    ______ ____
ROOT
ATOM      1  C   UNL     1      -0.566  11.754  20.540  0.00  0.00    +0.000 C 
ATOM      2  N   UNL     1       0.222  12.113  21.495  0.00  0.00    +0.000 NA
ENDROOT
BRANCH   2   3
ATOM      3  N   UNL     1      -0.128  13.214  22.260  0.00  0.00    +0.000 N 
ATOM      4  C   UNL     1       0.539  14.436  22.037  0.00  0.00    +0.000 A 
ATOM      5  N   UNL     1       0.234  15.518  22.694  0.00  0.00    +0.000 NA
ATOM      6  C   UNL     1      -0.828  15.490  23.606  0.00  0.00    +0.000 A 
ATOM      7  C   UNL     1      -1.175  16.663  24.281  0.00  0.00    +0.000 A 
ATOM      8  C   UNL     1      -2.263  16.690  25.163  0.00  0.00    +0.000 A 
ATOM      9  C   UNL     1      -3.010  15.535  25.390  0.00  0.00    +0.000 A 
ATOM     10  C   UNL     1      -2.670  14.358  24.733  0.00  0.00    +0.000 A 
ATOM     11  C   UNL     1      -1.587  14.349  23.843  0.00  0.00    +0.000 A 
ATOM     12  C   UNL     1      -1.251  13.133  23.097  0.00  0.00    +0.000 A 
ATOM     13  O   UNL     1      -1.982  12.149  23.223  0.00  0.00    +0.000 OA
BRANCH   4  14
ATOM     14  C   UNL     1       1.673  14.511  21.049  0.00  0.00    +0.000 A 
ATOM     15  C   UNL     1       1.472  14.595  19.667  0.00  0.00    +0.000 A 
ATOM     16  C   UNL     1       2.554  14.626  18.786  0.00  0.00    +0.000 A 
ATOM     17  C   UNL     1       3.856  14.630  19.278  0.00  0.00    +0.000 A 
ATOM     18  C   UNL     1       4.087  14.618  20.658  0.00  0.00    +0.000 A 
ATOM     19  C   UNL     1       5.486  14.678  21.197  0.00  0.00    +0.000 C 
ATOM     20  C   UNL     1       2.991  14.556  21.537  0.00  0.00    +0.000 A 
ENDBRANCH   4  14
ENDBRANCH   2   3
BRANCH   1  23
ATOM     21  N   UNL     1       1.082   9.039  18.864  0.00  0.00    +0.000 N 
ATOM     22  C   UNL     1       0.918   9.876  19.938  0.00  0.00    +0.000 A 
ATOM     23  C   UNL     1      -0.158  10.688  19.664  0.00  0.00    +0.000 A 
ATOM     24  C   UNL     1      -0.681  10.197  18.433  0.00  0.00    +0.000 A 
ATOM     25  N   UNL     1       0.112   9.230  17.936  0.00  0.00    +0.000 NA
BRANCH  21  30
ATOM     26  C   UNL     1       5.247   5.162  18.173  0.00  0.00    +0.000 C 
ATOM     27  C   UNL     1       4.153   6.171  18.345  0.00  0.00    +0.000 A 
ATOM     28  C   UNL     1       3.983   7.199  17.413  0.00  0.00    +0.000 A 
ATOM     29  C   UNL     1       2.972   8.144  17.578  0.00  0.00    +0.000 A 
ATOM     30  C   UNL     1       2.112   8.075  18.686  0.00  0.00    +0.000 A 
ATOM     31  C   UNL     1       2.273   7.042  19.617  0.00  0.00    +0.000 A 
ATOM     32  C   UNL     1       3.287   6.096  19.442  0.00  0.00    +0.000 A 
ENDBRANCH  21  30
BRANCH  24  33
ATOM     33  C   UNL     1      -1.914  10.579  17.733  0.00  0.00    +0.000 A 
ATOM     34  C   UNL     1      -2.151  10.151  16.425  0.00  0.00    +0.000 A 
ATOM     35  C   UNL     1      -3.329  10.536  15.804  0.00  0.00    +0.000 A 
ATOM     36  N   UNL     1      -4.271  11.307  16.387  0.00  0.00    +0.000 NA
ATOM     37  C   UNL     1      -4.035  11.691  17.658  0.00  0.00    +0.000 A 
ATOM     38  C   UNL     1      -2.895  11.348  18.367  0.00  0.00    +0.000 A 
ENDBRANCH  24  33
ENDBRANCH   1  23
TORSDOF 5
ENDMDL
MODEL 3
REMARK VINA RESULT:      -8.2      4.581     11.065
REMARK  Name = 
REMARK  7 active torsions:
REMARK  status: ('A' for Active; 'I' for Inactive)
REMARK    1  A    between atoms: C_1  and  C_2
REMARK    2  A    between atoms: C_5  and  N_6
REMARK    3  A    between atoms: C_8  and  C_9
REMARK    4  A    between atoms: N_10  and  N_11
REMARK    5  A    between atoms: C_12  and  C_13
REMARK    6  A    between atoms: C_17  and  C_18
REMARK    7  A    between atoms: C_29  and  C_30
REMARK                            x       y       z     vdW  Elec       q    Type
REMARK                         _______ _______ _______ _____ _____    ______ ____
ROOT
ATOM      1  C   UNL     1      -0.583  11.713  20.585  0.00  0.00    +0.000 C 
ATOM      2  N   UNL     1       0.245  12.135  21.479  0.00  0.00    +0.000 NA
ENDROOT
BRANCH   2   3
ATOM      3  N   UNL     1      -0.117  13.227  22.250  0.00  0.00    +0.000 N 
ATOM      4  C   UNL     1       0.541  14.455  22.040  0.00  0.00    +0.000 A 
ATOM      5  N   UNL     1       0.224  15.530  22.704  0.00  0.00    +0.000 NA
ATOM      6  C   UNL     1      -0.843  15.488  23.610  0.00  0.00    +0.000 A 
ATOM      7  C   UNL     1      -1.202  16.652  24.292  0.00  0.00    +0.000 A 
ATOM      8  C   UNL     1      -2.295  16.664  25.168  0.00  0.00    +0.000 A 
ATOM      9  C   UNL     1      -3.034  15.502  25.382  0.00  0.00    +0.000 A 
ATOM     10  C   UNL     1      -2.682  14.332  24.718  0.00  0.00    +0.000 A 
ATOM     11  C   UNL     1      -1.594  14.339  23.834  0.00  0.00    +0.000 A 
ATOM     12  C   UNL     1      -1.244  13.131  23.081  0.00  0.00    +0.000 A 
ATOM     13  O   UNL     1      -1.968  12.140  23.195  0.00  0.00    +0.000 OA
BRANCH   4  14
ATOM     14  C   UNL     1       1.680  14.547  21.059  0.00  0.00    +0.000 A 
ATOM     15  C   UNL     1       1.485  14.633  19.676  0.00  0.00    +0.000 A 
ATOM     16  C   UNL     1       2.571  14.679  18.801  0.00  0.00    +0.000 A 
ATOM     17  C   UNL     1       3.871  14.698  19.300  0.00  0.00    +0.000 A 
ATOM     18  C   UNL     1       4.094  14.684  20.681  0.00  0.00    +0.000 A 
ATOM     19  C   UNL     1       5.490  14.759  21.228  0.00  0.00    +0.000 C 
ATOM     20  C   UNL     1       2.994  14.607  21.554  0.00  0.00    +0.000 A 
ENDBRANCH   4  14
ENDBRANCH   2   3
BRANCH   1  23
ATOM     21  N   UNL     1       1.071   9.018  18.884  0.00  0.00    +0.000 N 
ATOM     22  C   UNL     1       0.904   9.842  19.966  0.00  0.00    +0.000 A 
ATOM     23  C   UNL     1      -0.171  10.657  19.699  0.00  0.00    +0.000 A 
ATOM     24  C   UNL     1      -0.692  10.179  18.461  0.00  0.00    +0.000 A 
ATOM     25  N   UNL     1       0.103   9.219  17.955  0.00  0.00    +0.000 NA
BRANCH  21  30
ATOM     26  C   UNL     1       5.214   5.134  18.100  0.00  0.00    +0.000 C 
ATOM     27  C   UNL     1       4.136   6.153  18.314  0.00  0.00    +0.000 A 
ATOM     28  C   UNL     1       3.287   6.066  19.421  0.00  0.00    +0.000 A 
ATOM     29  C   UNL     1       2.278   7.008  19.615  0.00  0.00    +0.000 A 
ATOM     30  C   UNL     1       2.102   8.056  18.697  0.00  0.00    +0.000 A 
ATOM     31  C   UNL     1       2.956   8.152  17.591  0.00  0.00    +0.000 A 
ATOM     32  C   UNL     1       3.969   7.206  17.406  0.00  0.00    +0.000 A 
ENDBRANCH  21  30
BRANCH  24  33
ATOM     33  C   UNL     1      -1.923  10.568  17.762  0.00  0.00    +0.000 A 
ATOM     34  C   UNL     1      -2.857  11.404  18.378  0.00  0.00    +0.000 A 
ATOM     35  C   UNL     1      -4.005  11.744  17.679  0.00  0.00    +0.000 A 
ATOM     36  N   UNL     1      -4.282  11.316  16.429  0.00  0.00    +0.000 NA
ATOM     37  C   UNL     1      -3.357  10.529  15.842  0.00  0.00    +0.000 A 
ATOM     38  C   UNL     1      -2.174  10.143  16.454  0.00  0.00    +0.000 A 
ENDBRANCH  24  33
ENDBRANCH   1  23
TORSDOF 5
ENDMDL
MODEL 4
REMARK VINA RESULT:      -8.1      0.392      1.415
REMARK  Name = 
REMARK  7 active torsions:
REMARK  status: ('A' for Active; 'I' for Inactive)
REMARK    1  A    between atoms: C_1  and  C_2
REMARK    2  A    between atoms: C_5  and  N_6
REMARK    3  A    between atoms: C_8  and  C_9
REMARK    4  A    between atoms: N_10  and  N_11
REMARK    5  A    between atoms: C_12  and  C_13
REMARK    6  A    between atoms: C_17  and  C_18
REMARK    7  A    between atoms: C_29  and  C_30
REMARK                            x       y       z     vdW  Elec       q    Type
REMARK                         _______ _______ _______ _____ _____    ______ ____
ROOT
ATOM      1  C   UNL     1       3.931   6.432  17.170  0.00  0.00    +0.000 C 
ATOM      2  N   UNL     1       4.605   5.338  17.070  0.00  0.00    +0.000 NA
ENDROOT
BRANCH   2   3
ATOM      3  N   UNL     1       5.321   5.109  15.906  0.00  0.00    +0.000 N 
ATOM      4  C   UNL     1       6.669   5.516  15.846  0.00  0.00    +0.000 A 
ATOM      5  N   UNL     1       7.410   5.299  14.798  0.00  0.00    +0.000 NA
ATOM      6  C   UNL     1       6.877   4.584  13.718  0.00  0.00    +0.000 A 
ATOM      7  C   UNL     1       7.687   4.322  12.611  0.00  0.00    +0.000 A 
ATOM      8  C   UNL     1       7.208   3.566  11.533  0.00  0.00    +0.000 A 
ATOM      9  C   UNL     1       5.904   3.076  11.545  0.00  0.00    +0.000 A 
ATOM     10  C   UNL     1       5.082   3.339  12.635  0.00  0.00    +0.000 A 
ATOM     11  C   UNL     1       5.579   4.084  13.713  0.00  0.00    +0.000 A 
ATOM     12  C   UNL     1       4.747   4.321  14.897  0.00  0.00    +0.000 A 
ATOM     13  O   UNL     1       3.635   3.793  14.945  0.00  0.00    +0.000 OA
BRANCH   4  14
ATOM     14  C   UNL     1       7.284   6.270  16.996  0.00  0.00    +0.000 A 
ATOM     15  C   UNL     1       7.507   7.651  16.965  0.00  0.00    +0.000 A 
ATOM     16  C   UNL     1       8.115   8.303  18.039  0.00  0.00    +0.000 A 
ATOM     17  C   UNL     1       8.457   7.591  19.186  0.00  0.00    +0.000 A 
ATOM     18  C   UNL     1       8.181   6.222  19.272  0.00  0.00    +0.000 A 
ATOM     19  C   UNL     1       8.498   5.459  20.526  0.00  0.00    +0.000 C 
ATOM     20  C   UNL     1       7.597   5.568  18.173  0.00  0.00    +0.000 A 
ENDBRANCH   4  14
ENDBRANCH   2   3
BRANCH   1  23
ATOM     21  N   UNL     1       1.862   7.699  19.818  0.00  0.00    +0.000 N 
ATOM     22  C   UNL     1       2.515   7.841  18.621  0.00  0.00    +0.000 A 
ATOM     23  C   UNL     1       3.089   6.628  18.321  0.00  0.00    +0.000 A 
ATOM     24  C   UNL     1       2.634   5.746  19.344  0.00  0.00    +0.000 A 
ATOM     25  N   UNL     1       1.933   6.423  20.271  0.00  0.00    +0.000 NA
BRANCH  21  30
ATOM     26  C   UNL     1      -0.904  11.776  22.748  0.00  0.00    +0.000 C 
ATOM     27  C   UNL     1      -0.173  10.718  21.980  0.00  0.00    +0.000 A 
ATOM     28  C   UNL     1      -0.019  10.824  20.595  0.00  0.00    +0.000 A 
ATOM     29  C   UNL     1       0.653   9.835  19.879  0.00  0.00    +0.000 A 
ATOM     30  C   UNL     1       1.182   8.716  20.542  0.00  0.00    +0.000 A 
ATOM     31  C   UNL     1       1.038   8.609  21.931  0.00  0.00    +0.000 A 
ATOM     32  C   UNL     1       0.366   9.608  22.643  0.00  0.00    +0.000 A 
ENDBRANCH  21  30
BRANCH  24  33
ATOM     33  C   UNL     1       2.804   4.292  19.457  0.00  0.00    +0.000 A 
ATOM     34  C   UNL     1       1.794   3.423  19.038  0.00  0.00    +0.000 A 
ATOM     35  C   UNL     1       1.999   2.058  19.164  0.00  0.00    +0.000 A 
ATOM     36  N   UNL     1       3.123   1.508  19.671  0.00  0.00    +0.000 NA
ATOM     37  C   UNL     1       4.096   2.363  20.049  0.00  0.00    +0.000 A 
ATOM     38  C   UNL     1       3.990   3.741  19.951  0.00  0.00    +0.000 A 
ENDBRANCH  24  33
ENDBRANCH   1  23
TORSDOF 5
ENDMDL
MODEL 5
REMARK VINA RESULT:      -7.9      4.702     11.237
REMARK  Name = 
REMARK  7 active torsions:
REMARK  status: ('A' for Active; 'I' for Inactive)
REMARK    1  A    between atoms: C_1  and  C_2
REMARK    2  A    between atoms: C_5  and  N_6
REMARK    3  A    between atoms: C_8  and  C_9
REMARK    4  A    between atoms: N_10  and  N_11
REMARK    5  A    between atoms: C_12  and  C_13
REMARK    6  A    between atoms: C_17  and  C_18
REMARK    7  A    between atoms: C_29  and  C_30
REMARK                            x       y       z     vdW  Elec       q    Type
REMARK                         _______ _______ _______ _____ _____    ______ ____
ROOT
ATOM      1  C   UNL     1      -0.691  11.993  20.538  0.00  0.00    +0.000 C 
ATOM      2  N   UNL     1       0.049  12.284  21.553  0.00  0.00    +0.000 NA
ENDROOT
BRANCH   2   3
ATOM      3  N   UNL     1      -0.274  13.401  22.307  0.00  0.00    +0.000 N 
ATOM      4  C   UNL     1       0.349  14.628  22.003  0.00  0.00    +0.000 A 
ATOM      5  N   UNL     1       0.064  15.724  22.647  0.00  0.00    +0.000 NA
ATOM      6  C   UNL     1      -0.935  15.704  23.628  0.00  0.00    +0.000 A 
ATOM      7  C   UNL     1      -1.263  16.890  24.289  0.00  0.00    +0.000 A 
ATOM      8  C   UNL     1      -2.291  16.921  25.240  0.00  0.00    +0.000 A 
ATOM      9  C   UNL     1      -2.995  15.760  25.551  0.00  0.00    +0.000 A 
ATOM     10  C   UNL     1      -2.673  14.569  24.909  0.00  0.00    +0.000 A 
ATOM     11  C   UNL     1      -1.651  14.555  23.949  0.00  0.00    +0.000 A 
ATOM     12  C   UNL     1      -1.337  13.323  23.219  0.00  0.00    +0.000 A 
ATOM     13  O   UNL     1      -2.036  12.329  23.423  0.00  0.00    +0.000 OA
BRANCH   4  14
ATOM     14  C   UNL     1       1.414  14.696  20.941  0.00  0.00    +0.000 A 
ATOM     15  C   UNL     1       2.493  13.806  20.891  0.00  0.00    +0.000 A 
ATOM     16  C   UNL     1       3.477  13.929  19.909  0.00  0.00    +0.000 A 
ATOM     17  C   UNL     1       3.366  14.909  18.926  0.00  0.00    +0.000 A 
ATOM     18  C   UNL     1       2.261  15.767  18.910  0.00  0.00    +0.000 A 
ATOM     19  C   UNL     1       2.108  16.790  17.823  0.00  0.00    +0.000 C 
ATOM     20  C   UNL     1       1.290  15.656  19.921  0.00  0.00    +0.000 A 
ENDBRANCH   4  14
ENDBRANCH   2   3
BRANCH   1  23
ATOM     21  N   UNL     1       0.924   9.237  18.898  0.00  0.00    +0.000 N 
ATOM     22  C   UNL     1       0.777  10.096  19.956  0.00  0.00    +0.000 A 
ATOM     23  C   UNL     1      -0.298  10.908  19.679  0.00  0.00    +0.000 A 
ATOM     24  C   UNL     1      -0.839  10.395  18.465  0.00  0.00    +0.000 A 
ATOM     25  N   UNL     1      -0.057   9.414  17.978  0.00  0.00    +0.000 NA
BRANCH  21  30
ATOM     26  C   UNL     1       5.061   5.325  18.234  0.00  0.00    +0.000 C 
ATOM     27  C   UNL     1       3.975   6.344  18.398  0.00  0.00    +0.000 A 
ATOM     28  C   UNL     1       3.804   7.359  17.453  0.00  0.00    +0.000 A 
ATOM     29  C   UNL     1       2.799   8.313  17.611  0.00  0.00    +0.000 A 
ATOM     30  C   UNL     1       1.947   8.264  18.726  0.00  0.00    +0.000 A 
ATOM     31  C   UNL     1       2.108   7.244  19.671  0.00  0.00    +0.000 A 
ATOM     32  C   UNL     1       3.115   6.289  19.503  0.00  0.00    +0.000 A 
ENDBRANCH  21  30
BRANCH  24  33
ATOM     33  C   UNL     1      -2.079  10.769  17.773  0.00  0.00    +0.000 A 
ATOM     34  C   UNL     1      -2.252  10.477  16.418  0.00  0.00    +0.000 A 
ATOM     35  C   UNL     1      -3.439  10.848  15.806  0.00  0.00    +0.000 A 
ATOM     36  N   UNL     1      -4.449  11.481  16.441  0.00  0.00    +0.000 NA
ATOM     37  C   UNL     1      -4.272  11.734  17.754  0.00  0.00    +0.000 A 
ATOM     38  C   UNL     1      -3.127  11.392  18.456  0.00  0.00    +0.000 A 
ENDBRANCH  24  33
ENDBRANCH   1  23
TORSDOF 5
ENDMDL
MODEL 6
REMARK VINA RESULT:      -7.8      4.765     11.299
REMARK  Name = 
REMARK  7 active torsions:
REMARK  status: ('A' for Active; 'I' for Inactive)
REMARK    1  A    between atoms: C_1  and  C_2
REMARK    2  A    between atoms: C_5  and  N_6
REMARK    3  A    between atoms: C_8  and  C_9
REMARK    4  A    between atoms: N_10  and  N_11
REMARK    5  A    between atoms: C_12  and  C_13
REMARK    6  A    between atoms: C_17  and  C_18
REMARK    7  A    between atoms: C_29  and  C_30
REMARK                            x       y       z     vdW  Elec       q    Type
REMARK                         _______ _______ _______ _____ _____    ______ ____
ROOT
ATOM      1  C   UNL     1      -0.665  12.134  20.546  0.00  0.00    +0.000 C 
ATOM      2  N   UNL     1       0.071  12.403  21.569  0.00  0.00    +0.000 NA
ENDROOT
BRANCH   2   3
ATOM      3  N   UNL     1      -0.219  13.536  22.311  0.00  0.00    +0.000 N 
ATOM      4  C   UNL     1       0.446  14.740  22.002  0.00  0.00    +0.000 A 
ATOM      5  N   UNL     1       0.194  15.850  22.634  0.00  0.00    +0.000 NA
ATOM      6  C   UNL     1      -0.812  15.871  23.608  0.00  0.00    +0.000 A 
ATOM      7  C   UNL     1      -1.104  17.073  24.257  0.00  0.00    +0.000 A 
ATOM      8  C   UNL     1      -2.137  17.148  25.201  0.00  0.00    +0.000 A 
ATOM      9  C   UNL     1      -2.881  16.013  25.516  0.00  0.00    +0.000 A 
ATOM     10  C   UNL     1      -2.595  14.807  24.886  0.00  0.00    +0.000 A 
ATOM     11  C   UNL     1      -1.568  14.750  23.934  0.00  0.00    +0.000 A 
ATOM     12  C   UNL     1      -1.291  13.502  23.217  0.00  0.00    +0.000 A 
ATOM     13  O   UNL     1      -2.024  12.534  23.424  0.00  0.00    +0.000 OA
BRANCH   4  14
ATOM     14  C   UNL     1       1.520  14.762  20.946  0.00  0.00    +0.000 A 
ATOM     15  C   UNL     1       2.602  13.875  20.945  0.00  0.00    +0.000 A 
ATOM     16  C   UNL     1       3.594  13.956  19.967  0.00  0.00    +0.000 A 
ATOM     17  C   UNL     1       3.489  14.891  18.940  0.00  0.00    +0.000 A 
ATOM     18  C   UNL     1       2.381  15.743  18.876  0.00  0.00    +0.000 A 
ATOM     19  C   UNL     1       2.234  16.716  17.742  0.00  0.00    +0.000 C 
ATOM     20  C   UNL     1       1.402  15.675  19.883  0.00  0.00    +0.000 A 
ENDBRANCH   4  14
ENDBRANCH   2   3
BRANCH   1  23
ATOM     21  N   UNL     1       0.887   9.332  18.921  0.00  0.00    +0.000 N 
ATOM     22  C   UNL     1       0.773  10.213  19.965  0.00  0.00    +0.000 A 
ATOM     23  C   UNL     1      -0.302  11.028  19.699  0.00  0.00    +0.000 A 
ATOM     24  C   UNL     1      -0.877  10.496  18.509  0.00  0.00    +0.000 A 
ATOM     25  N   UNL     1      -0.115   9.500  18.023  0.00  0.00    +0.000 NA
BRANCH  21  30
ATOM     26  C   UNL     1       4.947   5.355  18.176  0.00  0.00    +0.000 C 
ATOM     27  C   UNL     1       3.891   6.398  18.380  0.00  0.00    +0.000 A 
ATOM     28  C   UNL     1       3.067   6.364  19.508  0.00  0.00    +0.000 A 
ATOM     29  C   UNL     1       2.078   7.329  19.693  0.00  0.00    +0.000 A 
ATOM     30  C   UNL     1       1.897   8.348  18.744  0.00  0.00    +0.000 A 
ATOM     31  C   UNL     1       2.727   8.392  17.616  0.00  0.00    +0.000 A 
ATOM     32  C   UNL     1       3.719   7.423  17.440  0.00  0.00    +0.000 A 
ENDBRANCH  21  30
BRANCH  24  33
ATOM     33  C   UNL     1      -2.131  10.866  17.840  0.00  0.00    +0.000 A 
ATOM     34  C   UNL     1      -3.175  11.452  18.559  0.00  0.00    +0.000 A 
ATOM     35  C   UNL     1      -4.339  11.785  17.885  0.00  0.00    +0.000 A 
ATOM     36  N   UNL     1      -4.532  11.577  16.565  0.00  0.00    +0.000 NA
ATOM     37  C   UNL     1      -3.504  11.032  15.883  0.00  0.00    +0.000 A 
ATOM     38  C   UNL     1      -2.297  10.677  16.465  0.00  0.00    +0.000 A 
ENDBRANCH  24  33
ENDBRANCH   1  23
TORSDOF 5
ENDMDL
MODEL 7
REMARK VINA RESULT:      -7.6      4.645     11.486
REMARK  Name = 
REMARK  7 active torsions:
REMARK  status: ('A' for Active; 'I' for Inactive)
REMARK    1  A    between atoms: C_1  and  C_2
REMARK    2  A    between atoms: C_5  and  N_6
REMARK    3  A    between atoms: C_8  and  C_9
REMARK    4  A    between atoms: N_10  and  N_11
REMARK    5  A    between atoms: C_12  and  C_13
REMARK    6  A    between atoms: C_17  and  C_18
REMARK    7  A    between atoms: C_29  and  C_30
REMARK                            x       y       z     vdW  Elec       q    Type
REMARK                         _______ _______ _______ _____ _____    ______ ____
ROOT
ATOM      1  C   UNL     1       0.630  12.622  19.792  0.00  0.00    +0.000 C 
ATOM      2  N   UNL     1       0.773  12.814  21.059  0.00  0.00    +0.000 NA
ENDROOT
BRANCH   2   3
ATOM      3  N   UNL     1       0.901  14.114  21.519  0.00  0.00    +0.000 N 
ATOM      4  C   UNL     1      -0.173  14.695  22.222  0.00  0.00    +0.000 A 
ATOM      5  N   UNL     1      -0.106  15.900  22.713  0.00  0.00    +0.000 NA
ATOM      6  C   UNL     1       1.089  16.621  22.599  0.00  0.00    +0.000 A 
ATOM      7  C   UNL     1       1.169  17.897  23.160  0.00  0.00    +0.000 A 
ATOM      8  C   UNL     1       2.362  18.630  23.112  0.00  0.00    +0.000 A 
ATOM      9  C   UNL     1       3.487  18.098  22.487  0.00  0.00    +0.000 A 
ATOM     10  C   UNL     1       3.420  16.832  21.914  0.00  0.00    +0.000 A 
ATOM     11  C   UNL     1       2.224  16.104  21.982  0.00  0.00    +0.000 A 
ATOM     12  C   UNL     1       2.151  14.746  21.436  0.00  0.00    +0.000 A 
ATOM     13  O   UNL     1       3.180  14.242  20.982  0.00  0.00    +0.000 OA
BRANCH   4  14
ATOM     14  C   UNL     1      -1.469  13.944  22.384  0.00  0.00    +0.000 A 
ATOM     15  C   UNL     1      -1.598  12.826  23.217  0.00  0.00    +0.000 A 
ATOM     16  C   UNL     1      -2.809  12.138  23.308  0.00  0.00    +0.000 A 
ATOM     17  C   UNL     1      -3.925  12.591  22.611  0.00  0.00    +0.000 A 
ATOM     18  C   UNL     1      -3.843  13.747  21.826  0.00  0.00    +0.000 A 
ATOM     19  C   UNL     1      -5.056  14.272  21.115  0.00  0.00    +0.000 C 
ATOM     20  C   UNL     1      -2.612  14.416  21.716  0.00  0.00    +0.000 A 
ENDBRANCH   4  14
ENDBRANCH   2   3
BRANCH   1  23
ATOM     21  N   UNL     1       1.349   9.237  18.834  0.00  0.00    +0.000 N 
ATOM     22  C   UNL     1       1.637  10.384  19.527  0.00  0.00    +0.000 A 
ATOM     23  C   UNL     1       0.615  11.274  19.290  0.00  0.00    +0.000 A 
ATOM     24  C   UNL     1      -0.337  10.541  18.524  0.00  0.00    +0.000 A 
ATOM     25  N   UNL     1       0.146   9.323  18.213  0.00  0.00    +0.000 NA
BRANCH  21  30
ATOM     26  C   UNL     1       4.606   4.538  18.418  0.00  0.00    +0.000 C 
ATOM     27  C   UNL     1       3.760   5.769  18.535  0.00  0.00    +0.000 A 
ATOM     28  C   UNL     1       2.927   5.956  19.642  0.00  0.00    +0.000 A 
ATOM     29  C   UNL     1       2.133   7.097  19.746  0.00  0.00    +0.000 A 
ATOM     30  C   UNL     1       2.160   8.073  18.738  0.00  0.00    +0.000 A 
ATOM     31  C   UNL     1       3.001   7.895  17.632  0.00  0.00    +0.000 A 
ATOM     32  C   UNL     1       3.797   6.750  17.536  0.00  0.00    +0.000 A 
ENDBRANCH  21  30
BRANCH  24  33
ATOM     33  C   UNL     1      -1.690  10.930  18.110  0.00  0.00    +0.000 A 
ATOM     34  C   UNL     1      -2.556  11.556  19.008  0.00  0.00    +0.000 A 
ATOM     35  C   UNL     1      -3.825  11.907  18.573  0.00  0.00    +0.000 A 
ATOM     36  N   UNL     1      -4.283  11.678  17.323  0.00  0.00    +0.000 NA
ATOM     37  C   UNL     1      -3.424  11.093  16.463  0.00  0.00    +0.000 A 
ATOM     38  C   UNL     1      -2.133  10.718  16.800  0.00  0.00    +0.000 A 
ENDBRANCH  24  33
ENDBRANCH   1  23
TORSDOF 5
ENDMDL
MODEL 8
REMARK VINA RESULT:      -7.5      5.553      9.820
REMARK  Name = 
REMARK  7 active torsions:
REMARK  status: ('A' for Active; 'I' for Inactive)
REMARK    1  A    between atoms: C_1  and  C_2
REMARK    2  A    between atoms: C_5  and  N_6
REMARK    3  A    between atoms: C_8  and  C_9
REMARK    4  A    between atoms: N_10  and  N_11
REMARK    5  A    between atoms: C_12  and  C_13
REMARK    6  A    between atoms: C_17  and  C_18
REMARK    7  A    between atoms: C_29  and  C_30
REMARK                            x       y       z     vdW  Elec       q    Type
REMARK                         _______ _______ _______ _____ _____    ______ ____
ROOT
ATOM      1  C   UNL     1       1.456  12.965  18.949  0.00  0.00    +0.000 C 
ATOM      2  N   UNL     1       1.565  13.998  18.186  0.00  0.00    +0.000 NA
ENDROOT
BRANCH   2   3
ATOM      3  N   UNL     1       2.698  14.787  18.302  0.00  0.00    +0.000 N 
ATOM      4  C   UNL     1       2.564  16.101  18.793  0.00  0.00    +0.000 A 
ATOM      5  N   UNL     1       3.592  16.883  18.962  0.00  0.00    +0.000 NA
ATOM      6  C   UNL     1       4.878  16.389  18.711  0.00  0.00    +0.000 A 
ATOM      7  C   UNL     1       5.979  17.220  18.929  0.00  0.00    +0.000 A 
ATOM      8  C   UNL     1       7.284  16.748  18.738  0.00  0.00    +0.000 A 
ATOM      9  C   UNL     1       7.501  15.440  18.311  0.00  0.00    +0.000 A 
ATOM     10  C   UNL     1       6.414  14.604  18.079  0.00  0.00    +0.000 A 
ATOM     11  C   UNL     1       5.114  15.086  18.288  0.00  0.00    +0.000 A 
ATOM     12  C   UNL     1       3.959  14.202  18.105  0.00  0.00    +0.000 A 
ATOM     13  O   UNL     1       4.165  13.018  17.833  0.00  0.00    +0.000 OA
BRANCH   4  14
ATOM     14  C   UNL     1       1.199  16.661  19.096  0.00  0.00    +0.000 A 
ATOM     15  C   UNL     1       0.402  17.281  18.126  0.00  0.00    +0.000 A 
ATOM     16  C   UNL     1      -0.842  17.819  18.460  0.00  0.00    +0.000 A 
ATOM     17  C   UNL     1      -1.332  17.696  19.757  0.00  0.00    +0.000 A 
ATOM     18  C   UNL     1      -0.588  17.019  20.729  0.00  0.00    +0.000 A 
ATOM     19  C   UNL     1      -1.134  16.835  22.115  0.00  0.00    +0.000 C 
ATOM     20  C   UNL     1       0.678  16.507  20.392  0.00  0.00    +0.000 A 
ENDBRANCH   4  14
ENDBRANCH   2   3
BRANCH   1  23
ATOM     21  N   UNL     1      -1.942  11.806  18.902  0.00  0.00    +0.000 N 
ATOM     22  C   UNL     1      -1.002  12.798  18.797  0.00  0.00    +0.000 A 
ATOM     23  C   UNL     1       0.233  12.207  18.923  0.00  0.00    +0.000 A 
ATOM     24  C   UNL     1      -0.036  10.809  18.984  0.00  0.00    +0.000 A 
ATOM     25  N   UNL     1      -1.362  10.586  19.021  0.00  0.00    +0.000 NA
BRANCH  21  30
ATOM     26  C   UNL     1      -7.635  12.474  18.840  0.00  0.00    +0.000 C 
ATOM     27  C   UNL     1      -6.148  12.292  18.865  0.00  0.00    +0.000 A 
ATOM     28  C   UNL     1      -5.393  12.763  19.943  0.00  0.00    +0.000 A 
ATOM     29  C   UNL     1      -4.009  12.603  19.961  0.00  0.00    +0.000 A 
ATOM     30  C   UNL     1      -3.355  11.967  18.894  0.00  0.00    +0.000 A 
ATOM     31  C   UNL     1      -4.108  11.485  17.816  0.00  0.00    +0.000 A 
ATOM     32  C   UNL     1      -5.497  11.646  17.806  0.00  0.00    +0.000 A 
ENDBRANCH  21  30
BRANCH  24  33
ATOM     33  C   UNL     1       0.906   9.683  18.971  0.00  0.00    +0.000 A 
ATOM     34  C   UNL     1       1.070   8.878  20.101  0.00  0.00    +0.000 A 
ATOM     35  C   UNL     1       1.970   7.826  20.042  0.00  0.00    +0.000 A 
ATOM     36  N   UNL     1       2.708   7.526  18.952  0.00  0.00    +0.000 NA
ATOM     37  C   UNL     1       2.520   8.300  17.863  0.00  0.00    +0.000 A 
ATOM     38  C   UNL     1       1.635   9.366  17.820  0.00  0.00    +0.000 A 
ENDBRANCH  24  33
ENDBRANCH   1  23
TORSDOF 5
ENDMDL
MODEL 9
REMARK VINA RESULT:      -7.5      5.837     10.226
REMARK  Name = 
REMARK  7 active torsions:
REMARK  status: ('A' for Active; 'I' for Inactive)
REMARK    1  A    between atoms: C_1  and  C_2
REMARK    2  A    between atoms: C_5  and  N_6
REMARK    3  A    between atoms: C_8  and  C_9
REMARK    4  A    between atoms: N_10  and  N_11
REMARK    5  A    between atoms: C_12  and  C_13
REMARK    6  A    between atoms: C_17  and  C_18
REMARK    7  A    between atoms: C_29  and  C_30
REMARK                            x       y       z     vdW  Elec       q    Type
REMARK                         _______ _______ _______ _____ _____    ______ ____
ROOT
ATOM      1  C   UNL     1       1.590  13.432  20.269  0.00  0.00    +0.000 C 
ATOM      2  N   UNL     1       1.828  14.578  20.808  0.00  0.00    +0.000 NA
ENDROOT
BRANCH   2   3
ATOM      3  N   UNL     1       3.027  15.208  20.516  0.00  0.00    +0.000 N 
ATOM      4  C   UNL     1       3.003  16.409  19.780  0.00  0.00    +0.000 A 
ATOM      5  N   UNL     1       4.089  17.072  19.503  0.00  0.00    +0.000 NA
ATOM      6  C   UNL     1       5.316  16.617  20.002  0.00  0.00    +0.000 A 
ATOM      7  C   UNL     1       6.473  17.351  19.733  0.00  0.00    +0.000 A 
ATOM      8  C   UNL     1       7.712  16.957  20.257  0.00  0.00    +0.000 A 
ATOM      9  C   UNL     1       7.807  15.812  21.046  0.00  0.00    +0.000 A 
ATOM     10  C   UNL     1       6.665  15.065  21.313  0.00  0.00    +0.000 A 
ATOM     11  C   UNL     1       5.431  15.479  20.794  0.00  0.00    +0.000 A 
ATOM     12  C   UNL     1       4.207  14.737  21.114  0.00  0.00    +0.000 A 
ATOM     13  O   UNL     1       4.285  13.791  21.898  0.00  0.00    +0.000 OA
BRANCH   4  14
ATOM     14  C   UNL     1       1.700  16.943  19.243  0.00  0.00    +0.000 A 
ATOM     15  C   UNL     1       0.542  17.042  20.023  0.00  0.00    +0.000 A 
ATOM     16  C   UNL     1      -0.653  17.508  19.474  0.00  0.00    +0.000 A 
ATOM     17  C   UNL     1      -0.694  17.936  18.150  0.00  0.00    +0.000 A 
ATOM     18  C   UNL     1       0.466  17.915  17.368  0.00  0.00    +0.000 A 
ATOM     19  C   UNL     1       0.442  18.426  15.956  0.00  0.00    +0.000 C 
ATOM     20  C   UNL     1       1.658  17.415  17.920  0.00  0.00    +0.000 A 
ENDBRANCH   4  14
ENDBRANCH   2   3
BRANCH   1  23
ATOM     21  N   UNL     1      -1.593  12.358  21.538  0.00  0.00    +0.000 N 
ATOM     22  C   UNL     1      -0.692  13.336  21.206  0.00  0.00    +0.000 A 
ATOM     23  C   UNL     1       0.405  12.714  20.656  0.00  0.00    +0.000 A 
ATOM     24  C   UNL     1       0.041  11.338  20.577  0.00  0.00    +0.000 A 
ATOM     25  N   UNL     1      -1.152  11.132  21.162  0.00  0.00    +0.000 NA
BRANCH  21  30
ATOM     26  C   UNL     1      -6.632  13.116  24.163  0.00  0.00    +0.000 C 
ATOM     27  C   UNL     1      -5.315  12.907  23.480  0.00  0.00    +0.000 A 
ATOM     28  C   UNL     1      -4.168  12.615  24.224  0.00  0.00    +0.000 A 
ATOM     29  C   UNL     1      -2.941  12.431  23.589  0.00  0.00    +0.000 A 
ATOM     30  C   UNL     1      -2.842  12.538  22.193  0.00  0.00    +0.000 A 
ATOM     31  C   UNL     1      -3.990  12.821  21.443  0.00  0.00    +0.000 A 
ATOM     32  C   UNL     1      -5.219  13.001  22.086  0.00  0.00    +0.000 A 
ENDBRANCH  21  30
BRANCH  24  33
ATOM     33  C   UNL     1       0.758  10.226  19.940  0.00  0.00    +0.000 A 
ATOM     34  C   UNL     1       1.104   9.090  20.674  0.00  0.00    +0.000 A 
ATOM     35  C   UNL     1       1.780   8.065  20.030  0.00  0.00    +0.000 A 
ATOM     36  N   UNL     1       2.130   8.094  18.726  0.00  0.00    +0.000 NA
ATOM     37  C   UNL     1       1.766   9.190  18.028  0.00  0.00    +0.000 A 
ATOM     38  C   UNL     1       1.079  10.260  18.579  0.00  0.00    +0.000 A 
ENDBRANCH  24  33
ENDBRANCH   1  23
TORSDOF 5
ENDMDL
