MODEL 1
REMARK VINA RESULT:      -8.5      0.000      0.000
REMARK  Name = 
REMARK  4 active torsions:
REMARK  status: ('A' for Active; 'I' for Inactive)
REMARK    1  A    between atoms: N_3  and  C_4
REMARK    2  A    between atoms: C_9  and  C_10
REMARK    3  A    between atoms: N_15  and  C_16
REMARK    4  A    between atoms: C_23  and  O_24
REMARK                            x       y       z     vdW  Elec       q    Type
REMARK                         _______ _______ _______ _____ _____    ______ ____
ROOT
ATOM      1  O   UNL     1       1.286   8.694  18.798  0.00  0.00    +0.000 OA
ATOM      2  C   UNL     1       1.732   8.013  19.709  0.00  0.00    +0.000 C 
ATOM      3  N   UNL     1       1.574   8.252  21.065  0.00  0.00    +0.000 N 
ATOM      4  N   UNL     1       2.485   6.880  19.472  0.00  0.00    +0.000 N 
ATOM      5  H   UNL     1       2.199   7.753  21.677  0.00  0.00    +0.000 HD
ATOM      6  H   UNL     1       2.906   6.386  20.241  0.00  0.00    +0.000 HD
ENDROOT
BRANCH   4   7
ATOM      7  C   UNL     1       2.850   6.450  18.122  0.00  0.00    +0.000 C 
ATOM      8  C   UNL     1       4.248   6.996  17.774  0.00  0.00    +0.000 C 
ATOM      9  C   UNL     1       4.840   6.295  16.556  0.00  0.00    +0.000 C 
ATOM     10  C   UNL     1       5.032   4.812  16.851  0.00  0.00    +0.000 C 
ATOM     11  C   UNL     1       3.779   4.171  17.392  0.00  0.00    +0.000 A 
ATOM     12  C   UNL     1       3.654   2.774  17.307  0.00  0.00    +0.000 A 
ATOM     13  C   UNL     1       2.513   2.129  17.780  0.00  0.00    +0.000 A 
ATOM     14  C   UNL     1       1.491   2.885  18.337  0.00  0.00    +0.000 A 
ATOM     15  C   UNL     1       1.603   4.268  18.447  0.00  0.00    +0.000 A 
ATOM     16  C   UNL     1       2.762   4.931  18.002  0.00  0.00    +0.000 A 
BRANCH  14  17
ATOM     17  O   UNL     1       0.347   2.298  18.795  0.00  0.00    +0.000 OA
ATOM     18  H   UNL     1      -0.010   1.729  18.094  0.00  0.00    +0.000 HD
ENDBRANCH  14  17
ENDBRANCH   4   7
BRANCH   3  19
ATOM     19  C   UNL     1       0.832   9.313  21.638  0.00  0.00    +0.000 A 
ATOM     20  C   UNL     1      -0.054   9.134  22.698  0.00  0.00    +0.000 A 
ATOM     21  C   UNL     1      -0.836  10.195  23.158  0.00  0.00    +0.000 A 
ATOM     22  C   UNL     1      -0.746  11.461  22.572  0.00  0.00    +0.000 A 
ATOM     23 CL   UNL     1      -1.823  12.664  23.179  0.00  0.00    +0.000 Cl
ATOM     24  C   UNL     1       0.173  11.691  21.545  0.00  0.00    +0.000 A 
ATOM     25  C   UNL     1       0.978  10.604  21.107  0.00  0.00    +0.000 A 
BRANCH  24  26
ATOM     26  C   UNL     1       0.353  13.018  20.852  0.00  0.00    +0.000 C 
ATOM     27  F   UNL     1      -0.736  13.537  20.227  0.00  0.00    +0.000 F 
ATOM     28  F   UNL     1       0.772  13.987  21.717  0.00  0.00    +0.000 F 
ATOM     29  F   UNL     1       1.320  12.955  19.890  0.00  0.00    +0.000 F 
ENDBRANCH  24  26
ENDBRANCH   3  19
TORSDOF 4
ENDMDL
MODEL 2
REMARK VINA RESULT:      -8.5      2.519      3.799
REMARK  Name = 
REMARK  4 active torsions:
REMARK  status: ('A' for Active; 'I' for Inactive)
REMARK    1  A    between atoms: N_3  and  C_4
REMARK    2  A    between atoms: C_9  and  C_10
REMARK    3  A    between atoms: N_15  and  C_16
REMARK    4  A    between atoms: C_23  and  O_24
REMARK                            x       y       z     vdW  Elec       q    Type
REMARK                         _______ _______ _______ _____ _____    ______ ____
ROOT
ATOM      1  O   UNL     1       2.169   7.166  20.218  0.00  0.00    +0.000 OA
ATOM      2  C   UNL     1       2.212   7.597  19.076  0.00  0.00    +0.000 C 
ATOM      3  N   UNL     1       1.733   8.823  18.644  0.00  0.00    +0.000 N 
ATOM      4  N   UNL     1       2.763   6.866  18.042  0.00  0.00    +0.000 N 
ATOM      5  H   UNL     1       1.618   8.926  17.648  0.00  0.00    +0.000 HD
ATOM      6  H   UNL     1       2.711   7.214  17.098  0.00  0.00    +0.000 HD
ENDROOT
BRANCH   4   7
ATOM      7  C   UNL     1       3.278   5.509  18.227  0.00  0.00    +0.000 C 
ATOM      8  C   UNL     1       2.151   4.495  17.950  0.00  0.00    +0.000 C 
ATOM      9  C   UNL     1       2.696   3.083  17.763  0.00  0.00    +0.000 C 
ATOM     10  C   UNL     1       3.611   3.036  16.545  0.00  0.00    +0.000 C 
ATOM     11  C   UNL     1       4.666   4.112  16.580  0.00  0.00    +0.000 A 
ATOM     12  C   UNL     1       5.815   3.946  15.788  0.00  0.00    +0.000 A 
ATOM     13  C   UNL     1       6.827   4.905  15.791  0.00  0.00    +0.000 A 
ATOM     14  C   UNL     1       6.691   6.031  16.590  0.00  0.00    +0.000 A 
ATOM     15  C   UNL     1       5.552   6.223  17.368  0.00  0.00    +0.000 A 
ATOM     16  C   UNL     1       4.508   5.280  17.353  0.00  0.00    +0.000 A 
BRANCH  14  17
ATOM     17  O   UNL     1       7.666   6.985  16.639  0.00  0.00    +0.000 OA
ATOM     18  H   UNL     1       7.325   7.749  17.132  0.00  0.00    +0.000 HD
ENDBRANCH  14  17
ENDBRANCH   4   7
BRANCH   3  19
ATOM     19  C   UNL     1       1.141   9.816  19.460  0.00  0.00    +0.000 A 
ATOM     20  C   UNL     1       1.177  11.174  19.153  0.00  0.00    +0.000 A 
ATOM     21  C   UNL     1       0.665  12.119  20.044  0.00  0.00    +0.000 A 
ATOM     22  C   UNL     1       0.102  11.728  21.261  0.00  0.00    +0.000 A 
ATOM     23 CL   UNL     1      -0.419  12.997  22.307  0.00  0.00    +0.000 Cl
ATOM     24  C   UNL     1      -0.002  10.370  21.577  0.00  0.00    +0.000 A 
ATOM     25  C   UNL     1       0.502   9.422  20.646  0.00  0.00    +0.000 A 
BRANCH  24  26
ATOM     26  C   UNL     1      -0.598   9.844  22.860  0.00  0.00    +0.000 C 
ATOM     27  F   UNL     1      -1.628  10.551  23.394  0.00  0.00    +0.000 F 
ATOM     28  F   UNL     1      -1.067   8.571  22.713  0.00  0.00    +0.000 F 
ATOM     29  F   UNL     1       0.336   9.769  23.852  0.00  0.00    +0.000 F 
ENDBRANCH  24  26
ENDBRANCH   3  19
TORSDOF 4
ENDMDL
MODEL 3
REMARK VINA RESULT:      -8.4      2.863      4.113
REMARK  Name = 
REMARK  4 active torsions:
REMARK  status: ('A' for Active; 'I' for Inactive)
REMARK    1  A    between atoms: N_3  and  C_4
REMARK    2  A    between atoms: C_9  and  C_10
REMARK    3  A    between atoms: N_15  and  C_16
REMARK    4  A    between atoms: C_23  and  O_24
REMARK                            x       y       z     vdW  Elec       q    Type
REMARK                         _______ _______ _______ _____ _____    ______ ____
ROOT
ATOM      1  O   UNL     1       1.717   7.754  19.762  0.00  0.00    +0.000 OA
ATOM      2  C   UNL     1       2.012   8.040  18.612  0.00  0.00    +0.000 C 
ATOM      3  N   UNL     1       1.585   9.156  17.910  0.00  0.00    +0.000 N 
ATOM      4  N   UNL     1       2.837   7.238  17.850  0.00  0.00    +0.000 N 
ATOM      5  H   UNL     1       1.709   9.123  16.911  0.00  0.00    +0.000 HD
ATOM      6  H   UNL     1       2.997   7.458  16.880  0.00  0.00    +0.000 HD
ENDROOT
BRANCH   4   7
ATOM      7  C   UNL     1       3.367   5.965  18.341  0.00  0.00    +0.000 C 
ATOM      8  C   UNL     1       2.265   4.891  18.262  0.00  0.00    +0.000 C 
ATOM      9  C   UNL     1       2.837   3.485  18.404  0.00  0.00    +0.000 C 
ATOM     10  C   UNL     1       3.790   3.192  17.251  0.00  0.00    +0.000 C 
ATOM     11  C   UNL     1       4.827   4.273  17.078  0.00  0.00    +0.000 A 
ATOM     12  C   UNL     1       6.003   3.963  16.374  0.00  0.00    +0.000 A 
ATOM     13  C   UNL     1       6.999   4.921  16.194  0.00  0.00    +0.000 A 
ATOM     14  C   UNL     1       6.821   6.191  16.724  0.00  0.00    +0.000 A 
ATOM     15  C   UNL     1       5.656   6.523  17.409  0.00  0.00    +0.000 A 
ATOM     16  C   UNL     1       4.627   5.577  17.572  0.00  0.00    +0.000 A 
BRANCH  14  17
ATOM     17  O   UNL     1       7.780   7.154  16.589  0.00  0.00    +0.000 OA
ATOM     18  H   UNL     1       7.700   7.774  17.332  0.00  0.00    +0.000 HD
ENDBRANCH  14  17
ENDBRANCH   4   7
BRANCH   3  19
ATOM     19  C   UNL     1       0.758  10.187  18.416  0.00  0.00    +0.000 A 
ATOM     20  C   UNL     1       1.216  11.169  19.291  0.00  0.00    +0.000 A 
ATOM     21  C   UNL     1       0.334  12.102  19.839  0.00  0.00    +0.000 A 
ATOM     22  C   UNL     1      -1.027  12.077  19.520  0.00  0.00    +0.000 A 
ATOM     23 CL   UNL     1      -2.022  13.232  20.326  0.00  0.00    +0.000 Cl
ATOM     24  C   UNL     1      -1.511  11.142  18.602  0.00  0.00    +0.000 A 
ATOM     25  C   UNL     1      -0.593  10.216  18.036  0.00  0.00    +0.000 A 
BRANCH  24  26
ATOM     26  C   UNL     1      -2.958  11.036  18.187  0.00  0.00    +0.000 C 
ATOM     27  F   UNL     1      -3.890  11.371  19.117  0.00  0.00    +0.000 F 
ATOM     28  F   UNL     1      -3.230  11.817  17.101  0.00  0.00    +0.000 F 
ATOM     29  F   UNL     1      -3.277   9.766  17.802  0.00  0.00    +0.000 F 
ENDBRANCH  24  26
ENDBRANCH   3  19
TORSDOF 4
ENDMDL
MODEL 4
REMARK VINA RESULT:      -8.3      2.097      2.454
REMARK  Name = 
REMARK  4 active torsions:
REMARK  status: ('A' for Active; 'I' for Inactive)
REMARK    1  A    between atoms: N_3  and  C_4
REMARK    2  A    between atoms: C_9  and  C_10
REMARK    3  A    between atoms: N_15  and  C_16
REMARK    4  A    between atoms: C_23  and  O_24
REMARK                            x       y       z     vdW  Elec       q    Type
REMARK                         _______ _______ _______ _____ _____    ______ ____
ROOT
ATOM      1  O   UNL     1       1.783   8.727  17.395  0.00  0.00    +0.000 OA
ATOM      2  C   UNL     1       1.923   8.246  18.509  0.00  0.00    +0.000 C 
ATOM      3  N   UNL     1       1.463   8.787  19.699  0.00  0.00    +0.000 N 
ATOM      4  N   UNL     1       2.595   7.057  18.710  0.00  0.00    +0.000 N 
ATOM      5  H   UNL     1       1.866   8.409  20.541  0.00  0.00    +0.000 HD
ATOM      6  H   UNL     1       2.764   6.728  19.647  0.00  0.00    +0.000 HD
ENDROOT
BRANCH   4   7
ATOM      7  C   UNL     1       3.235   6.323  17.618  0.00  0.00    +0.000 C 
ATOM      8  C   UNL     1       4.717   6.733  17.529  0.00  0.00    +0.000 C 
ATOM      9  C   UNL     1       5.522   5.758  16.676  0.00  0.00    +0.000 C 
ATOM     10  C   UNL     1       5.509   4.374  17.314  0.00  0.00    +0.000 C 
ATOM     11  C   UNL     1       4.112   3.910  17.643  0.00  0.00    +0.000 A 
ATOM     12  C   UNL     1       3.891   2.534  17.825  0.00  0.00    +0.000 A 
ATOM     13  C   UNL     1       2.618   2.049  18.119  0.00  0.00    +0.000 A 
ATOM     14  C   UNL     1       1.562   2.942  18.227  0.00  0.00    +0.000 A 
ATOM     15  C   UNL     1       1.763   4.310  18.068  0.00  0.00    +0.000 A 
ATOM     16  C   UNL     1       3.047   4.820  17.802  0.00  0.00    +0.000 A 
BRANCH  14  17
ATOM     17  O   UNL     1       0.294   2.509  18.494  0.00  0.00    +0.000 OA
ATOM     18  H   UNL     1      -0.225   2.554  17.675  0.00  0.00    +0.000 HD
ENDBRANCH  14  17
ENDBRANCH   4   7
BRANCH   3  19
ATOM     19  C   UNL     1       0.712   9.979  19.832  0.00  0.00    +0.000 A 
ATOM     20  C   UNL     1       1.069  11.010  20.697  0.00  0.00    +0.000 A 
ATOM     21  C   UNL     1       0.239  12.120  20.864  0.00  0.00    +0.000 A 
ATOM     22  C   UNL     1      -0.967  12.226  20.166  0.00  0.00    +0.000 A 
ATOM     23 CL   UNL     1      -1.939  13.605  20.522  0.00  0.00    +0.000 Cl
ATOM     24  C   UNL     1      -1.331  11.237  19.247  0.00  0.00    +0.000 A 
ATOM     25  C   UNL     1      -0.460  10.127  19.073  0.00  0.00    +0.000 A 
BRANCH  24  26
ATOM     26  C   UNL     1      -2.605  11.260  18.440  0.00  0.00    +0.000 C 
ATOM     27  F   UNL     1      -3.716  11.739  19.060  0.00  0.00    +0.000 F 
ATOM     28  F   UNL     1      -2.472  12.006  17.306  0.00  0.00    +0.000 F 
ATOM     29  F   UNL     1      -2.948  10.011  18.009  0.00  0.00    +0.000 F 
ENDBRANCH  24  26
ENDBRANCH   3  19
TORSDOF 4
ENDMDL
MODEL 5
REMARK VINA RESULT:      -8.3      1.647      2.228
REMARK  Name = 
REMARK  4 active torsions:
REMARK  status: ('A' for Active; 'I' for Inactive)
REMARK    1  A    between atoms: N_3  and  C_4
REMARK    2  A    between atoms: C_9  and  C_10
REMARK    3  A    between atoms: N_15  and  C_16
REMARK    4  A    between atoms: C_23  and  O_24
REMARK                            x       y       z     vdW  Elec       q    Type
REMARK                         _______ _______ _______ _____ _____    ______ ____
ROOT
ATOM      1  O   UNL     1       1.781   8.821  17.406  0.00  0.00    +0.000 OA
ATOM      2  C   UNL     1       1.915   8.315  18.509  0.00  0.00    +0.000 C 
ATOM      3  N   UNL     1       1.484   8.848  19.713  0.00  0.00    +0.000 N 
ATOM      4  N   UNL     1       2.549   7.101  18.681  0.00  0.00    +0.000 N 
ATOM      5  H   UNL     1       1.883   8.440  20.544  0.00  0.00    +0.000 HD
ATOM      6  H   UNL     1       2.716   6.748  19.610  0.00  0.00    +0.000 HD
ENDROOT
BRANCH   4   7
ATOM      7  C   UNL     1       3.154   6.366  17.570  0.00  0.00    +0.000 C 
ATOM      8  C   UNL     1       4.632   6.780  17.430  0.00  0.00    +0.000 C 
ATOM      9  C   UNL     1       5.410   5.806  16.552  0.00  0.00    +0.000 C 
ATOM     10  C   UNL     1       5.421   4.423  17.192  0.00  0.00    +0.000 C 
ATOM     11  C   UNL     1       4.038   3.956  17.568  0.00  0.00    +0.000 A 
ATOM     12  C   UNL     1       3.826   2.580  17.759  0.00  0.00    +0.000 A 
ATOM     13  C   UNL     1       2.565   2.092  18.096  0.00  0.00    +0.000 A 
ATOM     14  C   UNL     1       1.511   2.982  18.239  0.00  0.00    +0.000 A 
ATOM     15  C   UNL     1       1.703   4.351  18.071  0.00  0.00    +0.000 A 
ATOM     16  C   UNL     1       2.976   4.863  17.762  0.00  0.00    +0.000 A 
BRANCH  14  17
ATOM     17  O   UNL     1       0.254   2.546  18.548  0.00  0.00    +0.000 OA
ATOM     18  H   UNL     1       0.284   2.114  19.417  0.00  0.00    +0.000 HD
ENDBRANCH  14  17
ENDBRANCH   4   7
BRANCH   3  19
ATOM     19  C   UNL     1       0.774  10.061  19.876  0.00  0.00    +0.000 A 
ATOM     20  C   UNL     1       0.826  11.102  18.952  0.00  0.00    +0.000 A 
ATOM     21  C   UNL     1       0.187  12.316  19.210  0.00  0.00    +0.000 A 
ATOM     22  C   UNL     1      -0.521  12.516  20.399  0.00  0.00    +0.000 A 
ATOM     23 CL   UNL     1      -1.195  14.087  20.633  0.00  0.00    +0.000 Cl
ATOM     24  C   UNL     1      -0.641  11.475  21.323  0.00  0.00    +0.000 A 
ATOM     25  C   UNL     1      -0.005  10.238  21.030  0.00  0.00    +0.000 A 
BRANCH  24  26
ATOM     26  C   UNL     1      -1.388  11.586  22.629  0.00  0.00    +0.000 C 
ATOM     27  F   UNL     1      -1.374  10.495  23.439  0.00  0.00    +0.000 F 
ATOM     28  F   UNL     1      -0.917  12.613  23.395  0.00  0.00    +0.000 F 
ATOM     29  F   UNL     1      -2.709  11.865  22.429  0.00  0.00    +0.000 F 
ENDBRANCH  24  26
ENDBRANCH   3  19
TORSDOF 4
ENDMDL
MODEL 6
REMARK VINA RESULT:      -8.3      2.534      3.726
REMARK  Name = 
REMARK  4 active torsions:
REMARK  status: ('A' for Active; 'I' for Inactive)
REMARK    1  A    between atoms: N_3  and  C_4
REMARK    2  A    between atoms: C_9  and  C_10
REMARK    3  A    between atoms: N_15  and  C_16
REMARK    4  A    between atoms: C_23  and  O_24
REMARK                            x       y       z     vdW  Elec       q    Type
REMARK                         _______ _______ _______ _____ _____    ______ ____
ROOT
ATOM      1  O   UNL     1       2.003   7.996  19.751  0.00  0.00    +0.000 OA
ATOM      2  C   UNL     1       2.141   8.212  18.557  0.00  0.00    +0.000 C 
ATOM      3  N   UNL     1       1.747   9.355  17.880  0.00  0.00    +0.000 N 
ATOM      4  N   UNL     1       2.727   7.290  17.713  0.00  0.00    +0.000 N 
ATOM      5  H   UNL     1       1.703   9.280  16.876  0.00  0.00    +0.000 HD
ATOM      6  H   UNL     1       2.753   7.463  16.721  0.00  0.00    +0.000 HD
ENDROOT
BRANCH   4   7
ATOM      7  C   UNL     1       3.168   5.974  18.173  0.00  0.00    +0.000 C 
ATOM      8  C   UNL     1       2.005   4.972  18.040  0.00  0.00    +0.000 C 
ATOM      9  C   UNL     1       2.488   3.529  18.148  0.00  0.00    +0.000 C 
ATOM     10  C   UNL     1       3.445   3.214  17.004  0.00  0.00    +0.000 C 
ATOM     11  C   UNL     1       4.549   4.234  16.885  0.00  0.00    +0.000 A 
ATOM     12  C   UNL     1       5.719   3.875  16.194  0.00  0.00    +0.000 A 
ATOM     13  C   UNL     1       6.775   4.775  16.063  0.00  0.00    +0.000 A 
ATOM     14  C   UNL     1       6.663   6.037  16.630  0.00  0.00    +0.000 A 
ATOM     15  C   UNL     1       5.506   6.418  17.303  0.00  0.00    +0.000 A 
ATOM     16  C   UNL     1       4.418   5.533  17.417  0.00  0.00    +0.000 A 
BRANCH  14  17
ATOM     17  O   UNL     1       7.681   6.943  16.544  0.00  0.00    +0.000 OA
ATOM     18  H   UNL     1       7.360   7.798  16.871  0.00  0.00    +0.000 HD
ENDBRANCH  14  17
ENDBRANCH   4   7
BRANCH   3  19
ATOM     19  C   UNL     1       1.146  10.497  18.461  0.00  0.00    +0.000 A 
ATOM     20  C   UNL     1      -0.178  10.523  18.893  0.00  0.00    +0.000 A 
ATOM     21  C   UNL     1      -0.750  11.705  19.366  0.00  0.00    +0.000 A 
ATOM     22  C   UNL     1      -0.009  12.889  19.421  0.00  0.00    +0.000 A 
ATOM     23 CL   UNL     1      -0.855  14.297  19.947  0.00  0.00    +0.000 Cl
ATOM     24  C   UNL     1       1.338  12.887  19.049  0.00  0.00    +0.000 A 
ATOM     25  C   UNL     1       1.909  11.668  18.595  0.00  0.00    +0.000 A 
BRANCH  24  26
ATOM     26  C   UNL     1       2.225  14.107  19.079  0.00  0.00    +0.000 C 
ATOM     27  F   UNL     1       2.408  14.704  20.285  0.00  0.00    +0.000 F 
ATOM     28  F   UNL     1       3.478  13.832  18.614  0.00  0.00    +0.000 F 
ATOM     29  F   UNL     1       1.749  15.093  18.262  0.00  0.00    +0.000 F 
ENDBRANCH  24  26
ENDBRANCH   3  19
TORSDOF 4
ENDMDL
MODEL 7
REMARK VINA RESULT:      -8.2      7.186      8.318
REMARK  Name = 
REMARK  4 active torsions:
REMARK  status: ('A' for Active; 'I' for Inactive)
REMARK    1  A    between atoms: N_3  and  C_4
REMARK    2  A    between atoms: C_9  and  C_10
REMARK    3  A    between atoms: N_15  and  C_16
REMARK    4  A    between atoms: C_23  and  O_24
REMARK                            x       y       z     vdW  Elec       q    Type
REMARK                         _______ _______ _______ _____ _____    ______ ____
ROOT
ATOM      1  O   UNL     1       8.620   7.380  19.044  0.00  0.00    +0.000 OA
ATOM      2  C   UNL     1       8.120   7.923  18.071  0.00  0.00    +0.000 C 
ATOM      3  N   UNL     1       8.226   9.263  17.734  0.00  0.00    +0.000 N 
ATOM      4  N   UNL     1       7.349   7.224  17.163  0.00  0.00    +0.000 N 
ATOM      5  H   UNL     1       7.564   9.601  17.055  0.00  0.00    +0.000 HD
ATOM      6  H   UNL     1       6.884   7.714  16.416  0.00  0.00    +0.000 HD
ENDROOT
BRANCH   4   7
ATOM      7  C   UNL     1       7.031   5.806  17.331  0.00  0.00    +0.000 C 
ATOM      8  C   UNL     1       5.941   5.653  18.409  0.00  0.00    +0.000 C 
ATOM      9  C   UNL     1       5.305   4.268  18.377  0.00  0.00    +0.000 C 
ATOM     10  C   UNL     1       4.605   4.048  17.041  0.00  0.00    +0.000 C 
ATOM     11  C   UNL     1       5.504   4.349  15.868  0.00  0.00    +0.000 A 
ATOM     12  C   UNL     1       5.175   3.802  14.617  0.00  0.00    +0.000 A 
ATOM     13  C   UNL     1       5.976   4.039  13.502  0.00  0.00    +0.000 A 
ATOM     14  C   UNL     1       7.113   4.823  13.639  0.00  0.00    +0.000 A 
ATOM     15  C   UNL     1       7.447   5.389  14.866  0.00  0.00    +0.000 A 
ATOM     16  C   UNL     1       6.632   5.185  15.995  0.00  0.00    +0.000 A 
BRANCH  14  17
ATOM     17  O   UNL     1       7.938   5.065  12.578  0.00  0.00    +0.000 OA
ATOM     18  H   UNL     1       7.580   4.608  11.800  0.00  0.00    +0.000 HD
ENDBRANCH  14  17
ENDBRANCH   4   7
BRANCH   3  19
ATOM     19  C   UNL     1       8.969  10.238  18.441  0.00  0.00    +0.000 A 
ATOM     20  C   UNL     1       9.039  10.281  19.831  0.00  0.00    +0.000 A 
ATOM     21  C   UNL     1       9.703  11.324  20.479  0.00  0.00    +0.000 A 
ATOM     22  C   UNL     1      10.317  12.347  19.751  0.00  0.00    +0.000 A 
ATOM     23 CL   UNL     1      11.033  13.618  20.670  0.00  0.00    +0.000 Cl
ATOM     24  C   UNL     1      10.315  12.306  18.354  0.00  0.00    +0.000 A 
ATOM     25  C   UNL     1       9.656  11.222  17.712  0.00  0.00    +0.000 A 
BRANCH  24  26
ATOM     26  C   UNL     1      10.953  13.355  17.477  0.00  0.00    +0.000 C 
ATOM     27  F   UNL     1      10.385  14.589  17.483  0.00  0.00    +0.000 F 
ATOM     28  F   UNL     1      12.263  13.556  17.801  0.00  0.00    +0.000 F 
ATOM     29  F   UNL     1      10.963  12.973  16.166  0.00  0.00    +0.000 F 
ENDBRANCH  24  26
ENDBRANCH   3  19
TORSDOF 4
ENDMDL
MODEL 8
REMARK VINA RESULT:      -8.1      2.480      3.711
REMARK  Name = 
REMARK  4 active torsions:
REMARK  status: ('A' for Active; 'I' for Inactive)
REMARK    1  A    between atoms: N_3  and  C_4
REMARK    2  A    between atoms: C_9  and  C_10
REMARK    3  A    between atoms: N_15  and  C_16
REMARK    4  A    between atoms: C_23  and  O_24
REMARK                            x       y       z     vdW  Elec       q    Type
REMARK                         _______ _______ _______ _____ _____    ______ ____
ROOT
ATOM      1  O   UNL     1       2.217   6.388  18.422  0.00  0.00    +0.000 OA
ATOM      2  C   UNL     1       2.493   6.447  19.610  0.00  0.00    +0.000 C 
ATOM      3  N   UNL     1       2.179   7.483  20.474  0.00  0.00    +0.000 N 
ATOM      4  N   UNL     1       3.190   5.440  20.246  0.00  0.00    +0.000 N 
ATOM      5  H   UNL     1       2.684   7.499  21.346  0.00  0.00    +0.000 HD
ATOM      6  H   UNL     1       3.474   5.553  21.206  0.00  0.00    +0.000 HD
ENDROOT
BRANCH   4   7
ATOM      7  C   UNL     1       3.696   4.265  19.536  0.00  0.00    +0.000 C 
ATOM      8  C   UNL     1       2.574   3.682  18.654  0.00  0.00    +0.000 C 
ATOM      9  C   UNL     1       3.120   2.700  17.623  0.00  0.00    +0.000 C 
ATOM     10  C   UNL     1       4.069   3.419  16.672  0.00  0.00    +0.000 C 
ATOM     11  C   UNL     1       5.126   4.205  17.405  0.00  0.00    +0.000 A 
ATOM     12  C   UNL     1       6.298   4.557  16.713  0.00  0.00    +0.000 A 
ATOM     13  C   UNL     1       7.312   5.273  17.345  0.00  0.00    +0.000 A 
ATOM     14  C   UNL     1       7.157   5.636  18.675  0.00  0.00    +0.000 A 
ATOM     15  C   UNL     1       5.997   5.313  19.374  0.00  0.00    +0.000 A 
ATOM     16  C   UNL     1       4.950   4.618  18.741  0.00  0.00    +0.000 A 
BRANCH  14  17
ATOM     17  O   UNL     1       8.133   6.321  19.340  0.00  0.00    +0.000 OA
ATOM     18  H   UNL     1       8.103   6.068  20.277  0.00  0.00    +0.000 HD
ENDBRANCH  14  17
ENDBRANCH   4   7
BRANCH   3  19
ATOM     19  C   UNL     1       1.445   8.647  20.141  0.00  0.00    +0.000 A 
ATOM     20  C   UNL     1       1.423   9.191  18.860  0.00  0.00    +0.000 A 
ATOM     21  C   UNL     1       0.765  10.396  18.609  0.00  0.00    +0.000 A 
ATOM     22  C   UNL     1       0.108  11.083  19.635  0.00  0.00    +0.000 A 
ATOM     23 CL   UNL     1      -0.597  12.599  19.212  0.00  0.00    +0.000 Cl
ATOM     24  C   UNL     1       0.061  10.537  20.921  0.00  0.00    +0.000 A 
ATOM     25  C   UNL     1       0.716   9.297  21.150  0.00  0.00    +0.000 A 
BRANCH  24  26
ATOM     26  C   UNL     1      -0.625  11.193  22.093  0.00  0.00    +0.000 C 
ATOM     27  F   UNL     1      -1.954  11.447  21.963  0.00  0.00    +0.000 F 
ATOM     28  F   UNL     1      -0.506  10.448  23.230  0.00  0.00    +0.000 F 
ATOM     29  F   UNL     1      -0.060  12.399  22.394  0.00  0.00    +0.000 F 
ENDBRANCH  24  26
ENDBRANCH   3  19
TORSDOF 4
ENDMDL
MODEL 9
REMARK VINA RESULT:      -8.1      4.647      8.902
REMARK  Name = 
REMARK  4 active torsions:
REMARK  status: ('A' for Active; 'I' for Inactive)
REMARK    1  A    between atoms: N_3  and  C_4
REMARK    2  A    between atoms: C_9  and  C_10
REMARK    3  A    between atoms: N_15  and  C_16
REMARK    4  A    between atoms: C_23  and  O_24
REMARK                            x       y       z     vdW  Elec       q    Type
REMARK                         _______ _______ _______ _____ _____    ______ ____
ROOT
ATOM      1  O   UNL     1       0.306   9.121  19.308  0.00  0.00    +0.000 OA
ATOM      2  C   UNL     1       0.965   9.062  20.334  0.00  0.00    +0.000 C 
ATOM      3  N   UNL     1       1.833   8.043  20.694  0.00  0.00    +0.000 N 
ATOM      4  N   UNL     1       0.905  10.049  21.297  0.00  0.00    +0.000 N 
ATOM      5  H   UNL     1       2.105   8.017  21.663  0.00  0.00    +0.000 HD
ATOM      6  H   UNL     1       1.397   9.933  22.168  0.00  0.00    +0.000 HD
ENDROOT
BRANCH   4   7
ATOM      7  C   UNL     1       0.009  11.201  21.185  0.00  0.00    +0.000 C 
ATOM      8  C   UNL     1      -0.682  11.443  22.541  0.00  0.00    +0.000 C 
ATOM      9  C   UNL     1      -1.333  12.820  22.605  0.00  0.00    +0.000 C 
ATOM     10  C   UNL     1      -0.269  13.905  22.478  0.00  0.00    +0.000 C 
ATOM     11  C   UNL     1       0.625  13.692  21.283  0.00  0.00    +0.000 A 
ATOM     12  C   UNL     1       1.349  14.789  20.787  0.00  0.00    +0.000 A 
ATOM     13  C   UNL     1       2.181  14.652  19.678  0.00  0.00    +0.000 A 
ATOM     14  C   UNL     1       2.287  13.414  19.059  0.00  0.00    +0.000 A 
ATOM     15  C   UNL     1       1.591  12.310  19.545  0.00  0.00    +0.000 A 
ATOM     16  C   UNL     1       0.771  12.425  20.683  0.00  0.00    +0.000 A 
BRANCH  14  17
ATOM     17  O   UNL     1       3.074  13.239  17.958  0.00  0.00    +0.000 OA
ATOM     18  H   UNL     1       2.509  12.974  17.214  0.00  0.00    +0.000 HD
ENDBRANCH  14  17
ENDBRANCH   4   7
BRANCH   3  19
ATOM     19  C   UNL     1       2.142   6.903  19.913  0.00  0.00    +0.000 A 
ATOM     20  C   UNL     1       2.827   6.973  18.703  0.00  0.00    +0.000 A 
ATOM     21  C   UNL     1       3.016   5.830  17.925  0.00  0.00    +0.000 A 
ATOM     22  C   UNL     1       2.527   4.589  18.341  0.00  0.00    +0.000 A 
ATOM     23 CL   UNL     1       2.755   3.271  17.252  0.00  0.00    +0.000 Cl
ATOM     24  C   UNL     1       1.884   4.471  19.577  0.00  0.00    +0.000 A 
ATOM     25  C   UNL     1       1.724   5.642  20.367  0.00  0.00    +0.000 A 
BRANCH  24  26
ATOM     26  C   UNL     1       1.327   3.179  20.120  0.00  0.00    +0.000 C 
ATOM     27  F   UNL     1       0.261   2.647  19.467  0.00  0.00    +0.000 F 
ATOM     28  F   UNL     1       2.269   2.192  20.142  0.00  0.00    +0.000 F 
ATOM     29  F   UNL     1       0.920   3.314  21.416  0.00  0.00    +0.000 F 
ENDBRANCH  24  26
ENDBRANCH   3  19
TORSDOF 4
ENDMDL
