MODEL 1
REMARK VINA RESULT:      -7.2      0.000      0.000
REMARK  Name = 
REMARK  15 active torsions:
REMARK  status: ('A' for Active; 'I' for Inactive)
REMARK    1  A    between atoms: C_1  and  O_2
REMARK    2  A    between atoms: O_2  and  C_3
REMARK    3  A    between atoms: C_6  and  C_7
REMARK    4  A    between atoms: C_11  and  C_12
REMARK    5  A    between atoms: C_12  and  C_13
REMARK    6  A    between atoms: C_14  and  C_15
REMARK    7  A    between atoms: C_14  and  C_16
REMARK    8  A    between atoms: C_16  and  C_17
REMARK    9  A    between atoms: C_17  and  C_18
REMARK   10  A    between atoms: C_19  and  C_20
REMARK   11  A    between atoms: C_19  and  C_21
REMARK   12  A    between atoms: C_22  and  O_23
REMARK   13  A    between atoms: O_23  and  C_24
REMARK   14  A    between atoms: C_26  and  O_27
REMARK   15  A    between atoms: O_27  and  C_28
REMARK                            x       y       z     vdW  Elec       q    Type
REMARK                         _______ _______ _______ _____ _____    ______ ____
ROOT
ATOM      1  C   UNL     1       1.296   9.098  19.560  0.00  0.00    +0.000 A 
ATOM      2  C   UNL     1       0.475   9.395  20.578  0.00  0.00    +0.000 A 
ATOM      3  O   UNL     1      -0.301  10.515  20.670  0.00  0.00    +0.000 OA
ATOM      4  C   UNL     1       0.105  11.622  19.968  0.00  0.00    +0.000 A 
ATOM      5  C   UNL     1      -0.619  12.797  20.201  0.00  0.00    +0.000 A 
ATOM      6  C   UNL     1      -0.048  14.021  19.864  0.00  0.00    +0.000 A 
ATOM      7  C   UNL     1       1.194  14.024  19.230  0.00  0.00    +0.000 A 
ATOM      8  C   UNL     1       1.822  12.822  18.814  0.00  0.00    +0.000 A 
ATOM      9  C   UNL     1       1.223  11.601  19.139  0.00  0.00    +0.000 A 
ATOM     10  C   UNL     1       1.530  10.241  18.615  0.00  0.00    +0.000 A 
ATOM     11  O   UNL     1       1.889  10.075  17.456  0.00  0.00    +0.000 OA
ENDROOT
BRANCH   1  15
ATOM     12  C   UNL     1       2.877   5.113  19.130  0.00  0.00    +0.000 A 
ATOM     13  C   UNL     1       3.086   6.063  18.138  0.00  0.00    +0.000 A 
ATOM     14  C   UNL     1       2.637   7.369  18.317  0.00  0.00    +0.000 A 
ATOM     15  C   UNL     1       1.908   7.748  19.462  0.00  0.00    +0.000 A 
ATOM     16  C   UNL     1       1.767   6.805  20.475  0.00  0.00    +0.000 A 
ATOM     17  C   UNL     1       2.246   5.486  20.313  0.00  0.00    +0.000 A 
BRANCH  12  19
ATOM     18  C   UNL     1       2.722   3.265  17.655  0.00  0.00    +0.000 C 
ATOM     19  O   UNL     1       3.309   3.858  18.807  0.00  0.00    +0.000 OA
ENDBRANCH  12  19
ENDBRANCH   1  15
BRANCH   6  20
ATOM     20  O   UNL     1      -0.784  15.112  20.222  0.00  0.00    +0.000 OA
ATOM     21  C   UNL     1      -0.246  16.047  21.139  0.00  0.00    +0.000 C 
ENDBRANCH   6  20
BRANCH   8  22
ATOM     22  O   UNL     1       2.995  13.090  18.167  0.00  0.00    +0.000 OA
ATOM     23  C   UNL     1       3.601  14.369  18.227  0.00  0.00    +0.000 C 
ENDBRANCH   8  22
BRANCH   5  24
ATOM     24  C   UNL     1      -1.972  12.704  20.851  0.00  0.00    +0.000 C 
BRANCH  24  25
ATOM     25  C   UNL     1      -3.047  12.467  19.846  0.00  0.00    +0.000 C 
ATOM     26  C   UNL     1      -4.355  12.715  20.023  0.00  0.00    +0.000 C 
ATOM     27  C   UNL     1      -4.919  13.277  21.300  0.00  0.00    +0.000 C 
BRANCH  26  28
ATOM     28  C   UNL     1      -5.271  12.382  18.862  0.00  0.00    +0.000 C 
BRANCH  28  29
ATOM     29  C   UNL     1      -5.058  10.999  18.279  0.00  0.00    +0.000 C 
BRANCH  29  30
ATOM     30  C   UNL     1      -4.558  11.022  16.864  0.00  0.00    +0.000 C 
ATOM     31  C   UNL     1      -3.359  10.506  16.521  0.00  0.00    +0.000 C 
ATOM     32  C   UNL     1      -2.414   9.864  17.506  0.00  0.00    +0.000 C 
ATOM     33  C   UNL     1      -2.872  10.546  15.100  0.00  0.00    +0.000 C 
ENDBRANCH  29  30
ENDBRANCH  28  29
ENDBRANCH  26  28
ENDBRANCH  24  25
ENDBRANCH   5  24
TORSDOF 9
ENDMDL
MODEL 2
REMARK VINA RESULT:      -7.0      1.251      2.410
REMARK  Name = 
REMARK  15 active torsions:
REMARK  status: ('A' for Active; 'I' for Inactive)
REMARK    1  A    between atoms: C_1  and  O_2
REMARK    2  A    between atoms: O_2  and  C_3
REMARK    3  A    between atoms: C_6  and  C_7
REMARK    4  A    between atoms: C_11  and  C_12
REMARK    5  A    between atoms: C_12  and  C_13
REMARK    6  A    between atoms: C_14  and  C_15
REMARK    7  A    between atoms: C_14  and  C_16
REMARK    8  A    between atoms: C_16  and  C_17
REMARK    9  A    between atoms: C_17  and  C_18
REMARK   10  A    between atoms: C_19  and  C_20
REMARK   11  A    between atoms: C_19  and  C_21
REMARK   12  A    between atoms: C_22  and  O_23
REMARK   13  A    between atoms: O_23  and  C_24
REMARK   14  A    between atoms: C_26  and  O_27
REMARK   15  A    between atoms: O_27  and  C_28
REMARK                            x       y       z     vdW  Elec       q    Type
REMARK                         _______ _______ _______ _____ _____    ______ ____
ROOT
ATOM      1  C   UNL     1       1.585   8.759  19.075  0.00  0.00    +0.000 A 
ATOM      2  C   UNL     1       0.617   8.891  19.994  0.00  0.00    +0.000 A 
ATOM      3  O   UNL     1      -0.274   9.923  20.066  0.00  0.00    +0.000 OA
ATOM      4  C   UNL     1       0.101  11.120  19.509  0.00  0.00    +0.000 A 
ATOM      5  C   UNL     1      -0.762  12.199  19.731  0.00  0.00    +0.000 A 
ATOM      6  C   UNL     1      -0.281  13.495  19.564  0.00  0.00    +0.000 A 
ATOM      7  C   UNL     1       1.024  13.666  19.103  0.00  0.00    +0.000 A 
ATOM      8  C   UNL     1       1.818  12.568  18.685  0.00  0.00    +0.000 A 
ATOM      9  C   UNL     1       1.311  11.273  18.836  0.00  0.00    +0.000 A 
ATOM     10  C   UNL     1       1.817   9.997  18.257  0.00  0.00    +0.000 A 
ATOM     11  O   UNL     1       2.333   9.967  17.147  0.00  0.00    +0.000 OA
ENDROOT
BRANCH   1  15
ATOM     12  C   UNL     1       3.933   5.151  18.909  0.00  0.00    +0.000 A 
ATOM     13  C   UNL     1       3.000   5.337  19.921  0.00  0.00    +0.000 A 
ATOM     14  C   UNL     1       2.192   6.471  19.927  0.00  0.00    +0.000 A 
ATOM     15  C   UNL     1       2.338   7.485  18.959  0.00  0.00    +0.000 A 
ATOM     16  C   UNL     1       3.227   7.253  17.914  0.00  0.00    +0.000 A 
ATOM     17  C   UNL     1       4.029   6.090  17.886  0.00  0.00    +0.000 A 
BRANCH  12  19
ATOM     18  C   UNL     1       4.127   2.957  19.780  0.00  0.00    +0.000 C 
ATOM     19  O   UNL     1       4.704   4.032  19.052  0.00  0.00    +0.000 OA
ENDBRANCH  12  19
ENDBRANCH   1  15
BRANCH   6  20
ATOM     20  O   UNL     1      -1.163  14.478  19.902  0.00  0.00    +0.000 OA
ATOM     21  C   UNL     1      -0.826  15.832  19.660  0.00  0.00    +0.000 C 
ENDBRANCH   6  20
BRANCH   8  22
ATOM     22  O   UNL     1       3.029  12.996  18.222  0.00  0.00    +0.000 OA
ATOM     23  C   UNL     1       3.365  14.372  18.182  0.00  0.00    +0.000 C 
ENDBRANCH   8  22
BRANCH   5  24
ATOM     24  C   UNL     1      -2.169  11.927  20.187  0.00  0.00    +0.000 C 
BRANCH  24  25
ATOM     25  C   UNL     1      -3.153  12.153  19.090  0.00  0.00    +0.000 C 
ATOM     26  C   UNL     1      -3.478  11.269  18.134  0.00  0.00    +0.000 C 
ATOM     27  C   UNL     1      -2.868   9.896  18.042  0.00  0.00    +0.000 C 
BRANCH  26  28
ATOM     28  C   UNL     1      -4.499  11.722  17.110  0.00  0.00    +0.000 C 
BRANCH  28  29
ATOM     29  C   UNL     1      -5.876  11.995  17.684  0.00  0.00    +0.000 C 
BRANCH  29  30
ATOM     30  C   UNL     1      -6.496  10.794  18.335  0.00  0.00    +0.000 C 
ATOM     31  C   UNL     1      -6.817  10.777  19.646  0.00  0.00    +0.000 C 
ATOM     32  C   UNL     1      -6.591  11.944  20.576  0.00  0.00    +0.000 C 
ATOM     33  C   UNL     1      -7.430   9.561  20.282  0.00  0.00    +0.000 C 
ENDBRANCH  29  30
ENDBRANCH  28  29
ENDBRANCH  26  28
ENDBRANCH  24  25
ENDBRANCH   5  24
TORSDOF 9
ENDMDL
MODEL 3
REMARK VINA RESULT:      -6.9      2.664      6.235
REMARK  Name = 
REMARK  15 active torsions:
REMARK  status: ('A' for Active; 'I' for Inactive)
REMARK    1  A    between atoms: C_1  and  O_2
REMARK    2  A    between atoms: O_2  and  C_3
REMARK    3  A    between atoms: C_6  and  C_7
REMARK    4  A    between atoms: C_11  and  C_12
REMARK    5  A    between atoms: C_12  and  C_13
REMARK    6  A    between atoms: C_14  and  C_15
REMARK    7  A    between atoms: C_14  and  C_16
REMARK    8  A    between atoms: C_16  and  C_17
REMARK    9  A    between atoms: C_17  and  C_18
REMARK   10  A    between atoms: C_19  and  C_20
REMARK   11  A    between atoms: C_19  and  C_21
REMARK   12  A    between atoms: C_22  and  O_23
REMARK   13  A    between atoms: O_23  and  C_24
REMARK   14  A    between atoms: C_26  and  O_27
REMARK   15  A    between atoms: O_27  and  C_28
REMARK                            x       y       z     vdW  Elec       q    Type
REMARK                         _______ _______ _______ _____ _____    ______ ____
ROOT
ATOM      1  C   UNL     1       2.130   8.155  18.733  0.00  0.00    +0.000 A 
ATOM      2  C   UNL     1       2.152   9.041  17.727  0.00  0.00    +0.000 A 
ATOM      3  O   UNL     1       2.006  10.392  17.855  0.00  0.00    +0.000 OA
ATOM      4  C   UNL     1       1.328  10.850  18.957  0.00  0.00    +0.000 A 
ATOM      5  C   UNL     1       1.059  12.223  18.986  0.00  0.00    +0.000 A 
ATOM      6  C   UNL     1       0.056  12.698  19.827  0.00  0.00    +0.000 A 
ATOM      7  C   UNL     1      -0.589  11.794  20.671  0.00  0.00    +0.000 A 
ATOM      8  C   UNL     1      -0.166  10.445  20.781  0.00  0.00    +0.000 A 
ATOM      9  C   UNL     1       0.860   9.989  19.946  0.00  0.00    +0.000 A 
ATOM     10  C   UNL     1       1.646   8.727  20.034  0.00  0.00    +0.000 A 
ATOM     11  O   UNL     1       1.928   8.232  21.119  0.00  0.00    +0.000 OA
ENDROOT
BRANCH   1  15
ATOM     12  C   UNL     1       3.193   4.080  17.820  0.00  0.00    +0.000 A 
ATOM     13  C   UNL     1       3.993   5.130  17.386  0.00  0.00    +0.000 A 
ATOM     14  C   UNL     1       3.685   6.439  17.747  0.00  0.00    +0.000 A 
ATOM     15  C   UNL     1       2.531   6.744  18.498  0.00  0.00    +0.000 A 
ATOM     16  C   UNL     1       1.779   5.679  18.983  0.00  0.00    +0.000 A 
ATOM     17  C   UNL     1       2.103   4.346  18.645  0.00  0.00    +0.000 A 
BRANCH  12  19
ATOM     18  C   UNL     1       3.420   1.760  18.242  0.00  0.00    +0.000 C 
ATOM     19  O   UNL     1       3.566   2.854  17.346  0.00  0.00    +0.000 OA
ENDBRANCH  12  19
ENDBRANCH   1  15
BRANCH   6  20
ATOM     20  O   UNL     1      -0.202  14.032  19.710  0.00  0.00    +0.000 OA
ATOM     21  C   UNL     1      -1.216  14.620  20.505  0.00  0.00    +0.000 C 
ENDBRANCH   6  20
BRANCH   8  22
ATOM     22  O   UNL     1      -0.913   9.780  21.711  0.00  0.00    +0.000 OA
ATOM     23  C   UNL     1      -0.669   9.921  23.099  0.00  0.00    +0.000 C 
ENDBRANCH   8  22
BRANCH   5  24
ATOM     24  C   UNL     1       1.829  13.138  18.073  0.00  0.00    +0.000 C 
BRANCH  24  25
ATOM     25  C   UNL     1       3.098  13.600  18.706  0.00  0.00    +0.000 C 
ATOM     26  C   UNL     1       3.773  14.715  18.385  0.00  0.00    +0.000 C 
ATOM     27  C   UNL     1       3.322  15.668  17.310  0.00  0.00    +0.000 C 
BRANCH  26  28
ATOM     28  C   UNL     1       5.051  14.980  19.155  0.00  0.00    +0.000 C 
BRANCH  28  29
ATOM     29  C   UNL     1       6.223  15.399  18.289  0.00  0.00    +0.000 C 
BRANCH  29  30
ATOM     30  C   UNL     1       6.956  14.241  17.681  0.00  0.00    +0.000 C 
ATOM     31  C   UNL     1       8.102  13.762  18.210  0.00  0.00    +0.000 C 
ATOM     32  C   UNL     1       8.751  14.331  19.446  0.00  0.00    +0.000 C 
ATOM     33  C   UNL     1       8.827  12.605  17.580  0.00  0.00    +0.000 C 
ENDBRANCH  29  30
ENDBRANCH  28  29
ENDBRANCH  26  28
ENDBRANCH  24  25
ENDBRANCH   5  24
TORSDOF 9
ENDMDL
MODEL 4
REMARK VINA RESULT:      -6.8      2.686      8.373
REMARK  Name = 
REMARK  15 active torsions:
REMARK  status: ('A' for Active; 'I' for Inactive)
REMARK    1  A    between atoms: C_1  and  O_2
REMARK    2  A    between atoms: O_2  and  C_3
REMARK    3  A    between atoms: C_6  and  C_7
REMARK    4  A    between atoms: C_11  and  C_12
REMARK    5  A    between atoms: C_12  and  C_13
REMARK    6  A    between atoms: C_14  and  C_15
REMARK    7  A    between atoms: C_14  and  C_16
REMARK    8  A    between atoms: C_16  and  C_17
REMARK    9  A    between atoms: C_17  and  C_18
REMARK   10  A    between atoms: C_19  and  C_20
REMARK   11  A    between atoms: C_19  and  C_21
REMARK   12  A    between atoms: C_22  and  O_23
REMARK   13  A    between atoms: O_23  and  C_24
REMARK   14  A    between atoms: C_26  and  O_27
REMARK   15  A    between atoms: O_27  and  C_28
REMARK                            x       y       z     vdW  Elec       q    Type
REMARK                         _______ _______ _______ _____ _____    ______ ____
ROOT
ATOM      1  C   UNL     1      -0.553  10.639  21.338  0.00  0.00    +0.000 A 
ATOM      2  C   UNL     1      -0.715   9.319  21.514  0.00  0.00    +0.000 A 
ATOM      3  O   UNL     1       0.209   8.360  21.213  0.00  0.00    +0.000 OA
ATOM      4  C   UNL     1       1.140   8.661  20.252  0.00  0.00    +0.000 A 
ATOM      5  C   UNL     1       1.975   7.611  19.853  0.00  0.00    +0.000 A 
ATOM      6  C   UNL     1       2.648   7.705  18.638  0.00  0.00    +0.000 A 
ATOM      7  C   UNL     1       2.528   8.882  17.901  0.00  0.00    +0.000 A 
ATOM      8  C   UNL     1       1.847  10.017  18.412  0.00  0.00    +0.000 A 
ATOM      9  C   UNL     1       1.196   9.914  19.646  0.00  0.00    +0.000 A 
ATOM     10  C   UNL     1       0.644  10.997  20.506  0.00  0.00    +0.000 A 
ATOM     11  O   UNL     1       1.186  12.094  20.567  0.00  0.00    +0.000 OA
ENDROOT
BRANCH   1  15
ATOM     12  C   UNL     1      -3.564  13.239  22.995  0.00  0.00    +0.000 A 
ATOM     13  C   UNL     1      -2.931  12.296  23.795  0.00  0.00    +0.000 A 
ATOM     14  C   UNL     1      -1.907  11.510  23.273  0.00  0.00    +0.000 A 
ATOM     15  C   UNL     1      -1.530  11.597  21.917  0.00  0.00    +0.000 A 
ATOM     16  C   UNL     1      -2.124  12.591  21.147  0.00  0.00    +0.000 A 
ATOM     17  C   UNL     1      -3.143  13.412  21.679  0.00  0.00    +0.000 A 
BRANCH  12  19
ATOM     18  C   UNL     1      -5.845  13.231  23.632  0.00  0.00    +0.000 C 
ATOM     19  O   UNL     1      -4.591  13.899  23.607  0.00  0.00    +0.000 OA
ENDBRANCH  12  19
ENDBRANCH   1  15
BRANCH   6  20
ATOM     20  O   UNL     1       3.353   6.592  18.289  0.00  0.00    +0.000 OA
ATOM     21  C   UNL     1       4.497   6.720  17.464  0.00  0.00    +0.000 C 
ENDBRANCH   6  20
BRANCH   8  22
ATOM     22  O   UNL     1       1.918  11.059  17.532  0.00  0.00    +0.000 OA
ATOM     23  C   UNL     1       2.715  12.200  17.794  0.00  0.00    +0.000 C 
ENDBRANCH   8  22
BRANCH   5  24
ATOM     24  C   UNL     1       2.082   6.391  20.728  0.00  0.00    +0.000 C 
BRANCH  24  25
ATOM     25  C   UNL     1       1.234   5.276  20.217  0.00  0.00    +0.000 C 
ATOM     26  C   UNL     1       1.316   3.991  20.598  0.00  0.00    +0.000 C 
ATOM     27  C   UNL     1       2.309   3.498  21.615  0.00  0.00    +0.000 C 
BRANCH  26  28
ATOM     28  C   UNL     1       0.357   3.024  19.933  0.00  0.00    +0.000 C 
BRANCH  28  29
ATOM     29  C   UNL     1       0.990   2.158  18.861  0.00  0.00    +0.000 C 
BRANCH  29  30
ATOM     30  C   UNL     1       1.941   2.910  17.976  0.00  0.00    +0.000 C 
ATOM     31  C   UNL     1       3.231   2.541  17.837  0.00  0.00    +0.000 C 
ATOM     32  C   UNL     1       3.841   1.356  18.543  0.00  0.00    +0.000 C 
ATOM     33  C   UNL     1       4.171   3.312  16.952  0.00  0.00    +0.000 C 
ENDBRANCH  29  30
ENDBRANCH  28  29
ENDBRANCH  26  28
ENDBRANCH  24  25
ENDBRANCH   5  24
TORSDOF 9
ENDMDL
MODEL 5
REMARK VINA RESULT:      -6.6      1.780      2.431
REMARK  Name = 
REMARK  15 active torsions:
REMARK  status: ('A' for Active; 'I' for Inactive)
REMARK    1  A    between atoms: C_1  and  O_2
REMARK    2  A    between atoms: O_2  and  C_3
REMARK    3  A    between atoms: C_6  and  C_7
REMARK    4  A    between atoms: C_11  and  C_12
REMARK    5  A    between atoms: C_12  and  C_13
REMARK    6  A    between atoms: C_14  and  C_15
REMARK    7  A    between atoms: C_14  and  C_16
REMARK    8  A    between atoms: C_16  and  C_17
REMARK    9  A    between atoms: C_17  and  C_18
REMARK   10  A    between atoms: C_19  and  C_20
REMARK   11  A    between atoms: C_19  and  C_21
REMARK   12  A    between atoms: C_22  and  O_23
REMARK   13  A    between atoms: O_23  and  C_24
REMARK   14  A    between atoms: C_26  and  O_27
REMARK   15  A    between atoms: O_27  and  C_28
REMARK                            x       y       z     vdW  Elec       q    Type
REMARK                         _______ _______ _______ _____ _____    ______ ____
ROOT
ATOM      1  C   UNL     1       1.385   8.493  20.091  0.00  0.00    +0.000 A 
ATOM      2  C   UNL     1       1.109   8.717  21.384  0.00  0.00    +0.000 A 
ATOM      3  O   UNL     1       0.427   9.793  21.875  0.00  0.00    +0.000 OA
ATOM      4  C   UNL     1       0.437  10.942  21.124  0.00  0.00    +0.000 A 
ATOM      5  C   UNL     1      -0.136  12.071  21.719  0.00  0.00    +0.000 A 
ATOM      6  C   UNL     1       0.183  13.333  21.223  0.00  0.00    +0.000 A 
ATOM      7  C   UNL     1       1.000  13.417  20.096  0.00  0.00    +0.000 A 
ATOM      8  C   UNL     1       1.404  12.262  19.379  0.00  0.00    +0.000 A 
ATOM      9  C   UNL     1       1.055  11.002  19.877  0.00  0.00    +0.000 A 
ATOM     10  C   UNL     1       1.129   9.677  19.203  0.00  0.00    +0.000 A 
ATOM     11  O   UNL     1       0.925   9.567  18.000  0.00  0.00    +0.000 OA
ENDROOT
BRANCH   1  15
ATOM     12  C   UNL     1       2.756   4.664  18.670  0.00  0.00    +0.000 A 
ATOM     13  C   UNL     1       3.043   5.822  17.959  0.00  0.00    +0.000 A 
ATOM     14  C   UNL     1       2.662   7.063  18.461  0.00  0.00    +0.000 A 
ATOM     15  C   UNL     1       1.924   7.179  19.657  0.00  0.00    +0.000 A 
ATOM     16  C   UNL     1       1.704   6.019  20.392  0.00  0.00    +0.000 A 
ATOM     17  C   UNL     1       2.114   4.759  19.902  0.00  0.00    +0.000 A 
BRANCH  12  19
ATOM     18  C   UNL     1       4.215   3.608  17.132  0.00  0.00    +0.000 C 
ATOM     19  O   UNL     1       3.126   3.509  18.040  0.00  0.00    +0.000 OA
ENDBRANCH  12  19
ENDBRANCH   1  15
BRANCH   6  20
ATOM     20  O   UNL     1      -0.341  14.373  21.932  0.00  0.00    +0.000 OA
ATOM     21  C   UNL     1      -1.196  15.298  21.285  0.00  0.00    +0.000 C 
ENDBRANCH   6  20
BRANCH   8  22
ATOM     22  O   UNL     1       2.145  12.608  18.286  0.00  0.00    +0.000 OA
ATOM     23  C   UNL     1       2.922  13.792  18.259  0.00  0.00    +0.000 C 
ENDBRANCH   8  22
BRANCH   5  24
ATOM     24  C   UNL     1      -1.041  11.891  22.907  0.00  0.00    +0.000 C 
BRANCH  24  25
ATOM     25  C   UNL     1      -2.474  12.055  22.532  0.00  0.00    +0.000 C 
ATOM     26  C   UNL     1      -3.324  12.954  23.056  0.00  0.00    +0.000 C 
ATOM     27  C   UNL     1      -2.924  13.936  24.124  0.00  0.00    +0.000 C 
BRANCH  26  28
ATOM     28  C   UNL     1      -4.745  12.931  22.529  0.00  0.00    +0.000 C 
BRANCH  28  29
ATOM     29  C   UNL     1      -4.881  13.394  21.091  0.00  0.00    +0.000 C 
BRANCH  29  30
ATOM     30  C   UNL     1      -5.054  12.265  20.119  0.00  0.00    +0.000 C 
ATOM     31  C   UNL     1      -6.256  11.692  19.894  0.00  0.00    +0.000 C 
ATOM     32  C   UNL     1      -7.527  12.121  20.584  0.00  0.00    +0.000 C 
ATOM     33  C   UNL     1      -6.407  10.556  18.922  0.00  0.00    +0.000 C 
ENDBRANCH  29  30
ENDBRANCH  28  29
ENDBRANCH  26  28
ENDBRANCH  24  25
ENDBRANCH   5  24
TORSDOF 9
ENDMDL
MODEL 6
REMARK VINA RESULT:      -6.5      2.730      6.338
REMARK  Name = 
REMARK  15 active torsions:
REMARK  status: ('A' for Active; 'I' for Inactive)
REMARK    1  A    between atoms: C_1  and  O_2
REMARK    2  A    between atoms: O_2  and  C_3
REMARK    3  A    between atoms: C_6  and  C_7
REMARK    4  A    between atoms: C_11  and  C_12
REMARK    5  A    between atoms: C_12  and  C_13
REMARK    6  A    between atoms: C_14  and  C_15
REMARK    7  A    between atoms: C_14  and  C_16
REMARK    8  A    between atoms: C_16  and  C_17
REMARK    9  A    between atoms: C_17  and  C_18
REMARK   10  A    between atoms: C_19  and  C_20
REMARK   11  A    between atoms: C_19  and  C_21
REMARK   12  A    between atoms: C_22  and  O_23
REMARK   13  A    between atoms: O_23  and  C_24
REMARK   14  A    between atoms: C_26  and  O_27
REMARK   15  A    between atoms: O_27  and  C_28
REMARK                            x       y       z     vdW  Elec       q    Type
REMARK                         _______ _______ _______ _____ _____    ______ ____
ROOT
ATOM      1  C   UNL     1       1.650   8.552  19.598  0.00  0.00    +0.000 A 
ATOM      2  C   UNL     1       1.658   9.275  18.468  0.00  0.00    +0.000 A 
ATOM      3  O   UNL     1       1.632  10.638  18.398  0.00  0.00    +0.000 OA
ATOM      4  C   UNL     1       1.087  11.313  19.461  0.00  0.00    +0.000 A 
ATOM      5  C   UNL     1       0.932  12.695  19.298  0.00  0.00    +0.000 A 
ATOM      6  C   UNL     1       0.044  13.378  20.125  0.00  0.00    +0.000 A 
ATOM      7  C   UNL     1      -0.599  12.670  21.140  0.00  0.00    +0.000 A 
ATOM      8  C   UNL     1      -0.277  11.319  21.426  0.00  0.00    +0.000 A 
ATOM      9  C   UNL     1       0.636  10.653  20.601  0.00  0.00    +0.000 A 
ATOM     10  C   UNL     1       1.323   9.351  20.826  0.00  0.00    +0.000 A 
ATOM     11  O   UNL     1       1.654   8.997  21.951  0.00  0.00    +0.000 OA
ENDROOT
BRANCH   1  15
ATOM     12  C   UNL     1       2.206   4.287  19.343  0.00  0.00    +0.000 A 
ATOM     13  C   UNL     1       2.556   5.107  18.278  0.00  0.00    +0.000 A 
ATOM     14  C   UNL     1       2.444   6.490  18.394  0.00  0.00    +0.000 A 
ATOM     15  C   UNL     1       1.916   7.092  19.554  0.00  0.00    +0.000 A 
ATOM     16  C   UNL     1       1.634   6.264  20.636  0.00  0.00    +0.000 A 
ATOM     17  C   UNL     1       1.774   4.861  20.536  0.00  0.00    +0.000 A 
BRANCH  12  19
ATOM     18  C   UNL     1       1.089   2.280  18.762  0.00  0.00    +0.000 C 
ATOM     19  O   UNL     1       2.302   2.950  19.080  0.00  0.00    +0.000 OA
ENDBRANCH  12  19
ENDBRANCH   1  15
BRANCH   6  20
ATOM     20  O   UNL     1      -0.115  14.698  19.823  0.00  0.00    +0.000 OA
ATOM     21  C   UNL     1       0.219  15.680  20.787  0.00  0.00    +0.000 C 
ENDBRANCH   6  20
BRANCH   8  22
ATOM     22  O   UNL     1      -0.995  10.869  22.497  0.00  0.00    +0.000 OA
ATOM     23  C   UNL     1      -1.999  11.662  23.105  0.00  0.00    +0.000 C 
ENDBRANCH   8  22
BRANCH   5  24
ATOM     24  C   UNL     1       1.694  13.391  18.204  0.00  0.00    +0.000 C 
BRANCH  24  25
ATOM     25  C   UNL     1       3.092  13.698  18.622  0.00  0.00    +0.000 C 
ATOM     26  C   UNL     1       3.817  14.754  18.218  0.00  0.00    +0.000 C 
ATOM     27  C   UNL     1       3.296  15.790  17.260  0.00  0.00    +0.000 C 
BRANCH  26  28
ATOM     28  C   UNL     1       5.227  14.858  18.766  0.00  0.00    +0.000 C 
BRANCH  28  29
ATOM     29  C   UNL     1       6.312  14.578  17.744  0.00  0.00    +0.000 C 
BRANCH  29  30
ATOM     30  C   UNL     1       7.687  14.940  18.224  0.00  0.00    +0.000 C 
ATOM     31  C   UNL     1       8.715  14.067  18.173  0.00  0.00    +0.000 C 
ATOM     32  C   UNL     1       8.591  12.662  17.636  0.00  0.00    +0.000 C 
ATOM     33  C   UNL     1      10.083  14.445  18.667  0.00  0.00    +0.000 C 
ENDBRANCH  29  30
ENDBRANCH  28  29
ENDBRANCH  26  28
ENDBRANCH  24  25
ENDBRANCH   5  24
TORSDOF 9
ENDMDL
MODEL 7
REMARK VINA RESULT:      -6.5      2.608      5.904
REMARK  Name = 
REMARK  15 active torsions:
REMARK  status: ('A' for Active; 'I' for Inactive)
REMARK    1  A    between atoms: C_1  and  O_2
REMARK    2  A    between atoms: O_2  and  C_3
REMARK    3  A    between atoms: C_6  and  C_7
REMARK    4  A    between atoms: C_11  and  C_12
REMARK    5  A    between atoms: C_12  and  C_13
REMARK    6  A    between atoms: C_14  and  C_15
REMARK    7  A    between atoms: C_14  and  C_16
REMARK    8  A    between atoms: C_16  and  C_17
REMARK    9  A    between atoms: C_17  and  C_18
REMARK   10  A    between atoms: C_19  and  C_20
REMARK   11  A    between atoms: C_19  and  C_21
REMARK   12  A    between atoms: C_22  and  O_23
REMARK   13  A    between atoms: O_23  and  C_24
REMARK   14  A    between atoms: C_26  and  O_27
REMARK   15  A    between atoms: O_27  and  C_28
REMARK                            x       y       z     vdW  Elec       q    Type
REMARK                         _______ _______ _______ _____ _____    ______ ____
ROOT
ATOM      1  C   UNL     1       2.254   8.050  18.441  0.00  0.00    +0.000 A 
ATOM      2  C   UNL     1       2.238   9.031  17.526  0.00  0.00    +0.000 A 
ATOM      3  O   UNL     1       2.036  10.356  17.788  0.00  0.00    +0.000 OA
ATOM      4  C   UNL     1       1.342  10.675  18.927  0.00  0.00    +0.000 A 
ATOM      5  C   UNL     1       1.017  12.027  19.091  0.00  0.00    +0.000 A 
ATOM      6  C   UNL     1      -0.003  12.375  19.973  0.00  0.00    +0.000 A 
ATOM      7  C   UNL     1      -0.609  11.366  20.721  0.00  0.00    +0.000 A 
ATOM      8  C   UNL     1      -0.130  10.031  20.699  0.00  0.00    +0.000 A 
ATOM      9  C   UNL     1       0.912   9.702  19.826  0.00  0.00    +0.000 A 
ATOM     10  C   UNL     1       1.749   8.471  19.791  0.00  0.00    +0.000 A 
ATOM     11  O   UNL     1       2.054   7.884  20.822  0.00  0.00    +0.000 OA
ENDROOT
BRANCH   1  15
ATOM     12  C   UNL     1       3.627   4.052  17.607  0.00  0.00    +0.000 A 
ATOM     13  C   UNL     1       2.325   4.274  18.036  0.00  0.00    +0.000 A 
ATOM     14  C   UNL     1       1.865   5.573  18.232  0.00  0.00    +0.000 A 
ATOM     15  C   UNL     1       2.713   6.687  18.069  0.00  0.00    +0.000 A 
ATOM     16  C   UNL     1       3.991   6.455  17.573  0.00  0.00    +0.000 A 
ATOM     17  C   UNL     1       4.455   5.140  17.344  0.00  0.00    +0.000 A 
BRANCH  12  19
ATOM     18  C   UNL     1       3.274   1.836  18.364  0.00  0.00    +0.000 C 
ATOM     19  O   UNL     1       3.974   2.734  17.513  0.00  0.00    +0.000 OA
ENDBRANCH  12  19
ENDBRANCH   1  15
BRANCH   6  20
ATOM     20  O   UNL     1      -0.316  13.702  19.987  0.00  0.00    +0.000 OA
ATOM     21  C   UNL     1      -1.558  14.121  20.522  0.00  0.00    +0.000 C 
ENDBRANCH   6  20
BRANCH   8  22
ATOM     22  O   UNL     1      -0.848   9.248  21.557  0.00  0.00    +0.000 OA
ATOM     23  C   UNL     1      -0.583   9.234  22.949  0.00  0.00    +0.000 C 
ENDBRANCH   8  22
BRANCH   5  24
ATOM     24  C   UNL     1       1.747  13.057  18.275  0.00  0.00    +0.000 C 
BRANCH  24  25
ATOM     25  C   UNL     1       2.921  13.607  19.011  0.00  0.00    +0.000 C 
ATOM     26  C   UNL     1       3.662  14.661  18.632  0.00  0.00    +0.000 C 
ATOM     27  C   UNL     1       3.394  15.443  17.374  0.00  0.00    +0.000 C 
BRANCH  26  28
ATOM     28  C   UNL     1       4.821  15.035  19.534  0.00  0.00    +0.000 C 
BRANCH  28  29
ATOM     29  C   UNL     1       4.603  14.699  20.997  0.00  0.00    +0.000 C 
BRANCH  29  30
ATOM     30  C   UNL     1       4.355  15.906  21.852  0.00  0.00    +0.000 C 
ATOM     31  C   UNL     1       3.129  16.201  22.334  0.00  0.00    +0.000 C 
ATOM     32  C   UNL     1       1.904  15.362  22.068  0.00  0.00    +0.000 C 
ATOM     33  C   UNL     1       2.899  17.420  23.182  0.00  0.00    +0.000 C 
ENDBRANCH  29  30
ENDBRANCH  28  29
ENDBRANCH  26  28
ENDBRANCH  24  25
ENDBRANCH   5  24
TORSDOF 9
ENDMDL
MODEL 8
REMARK VINA RESULT:      -6.5      1.487      1.865
REMARK  Name = 
REMARK  15 active torsions:
REMARK  status: ('A' for Active; 'I' for Inactive)
REMARK    1  A    between atoms: C_1  and  O_2
REMARK    2  A    between atoms: O_2  and  C_3
REMARK    3  A    between atoms: C_6  and  C_7
REMARK    4  A    between atoms: C_11  and  C_12
REMARK    5  A    between atoms: C_12  and  C_13
REMARK    6  A    between atoms: C_14  and  C_15
REMARK    7  A    between atoms: C_14  and  C_16
REMARK    8  A    between atoms: C_16  and  C_17
REMARK    9  A    between atoms: C_17  and  C_18
REMARK   10  A    between atoms: C_19  and  C_20
REMARK   11  A    between atoms: C_19  and  C_21
REMARK   12  A    between atoms: C_22  and  O_23
REMARK   13  A    between atoms: O_23  and  C_24
REMARK   14  A    between atoms: C_26  and  O_27
REMARK   15  A    between atoms: O_27  and  C_28
REMARK                            x       y       z     vdW  Elec       q    Type
REMARK                         _______ _______ _______ _____ _____    ______ ____
ROOT
ATOM      1  C   UNL     1       0.728  10.261  19.910  0.00  0.00    +0.000 A 
ATOM      2  C   UNL     1      -0.313  10.085  20.738  0.00  0.00    +0.000 A 
ATOM      3  O   UNL     1      -1.212  11.047  21.097  0.00  0.00    +0.000 OA
ATOM      4  C   UNL     1      -0.798  12.354  21.029  0.00  0.00    +0.000 A 
ATOM      5  C   UNL     1      -1.681  13.307  21.548  0.00  0.00    +0.000 A 
ATOM      6  C   UNL     1      -1.195  14.567  21.886  0.00  0.00    +0.000 A 
ATOM      7  C   UNL     1       0.142  14.857  21.620  0.00  0.00    +0.000 A 
ATOM      8  C   UNL     1       0.973  13.957  20.906  0.00  0.00    +0.000 A 
ATOM      9  C   UNL     1       0.462  12.704  20.550  0.00  0.00    +0.000 A 
ATOM     10  C   UNL     1       1.021  11.701  19.602  0.00  0.00    +0.000 A 
ATOM     11  O   UNL     1       1.626  12.050  18.596  0.00  0.00    +0.000 OA
ENDROOT
BRANCH   1  15
ATOM     12  C   UNL     1       2.744   6.787  18.349  0.00  0.00    +0.000 A 
ATOM     13  C   UNL     1       2.578   7.919  17.560  0.00  0.00    +0.000 A 
ATOM     14  C   UNL     1       1.992   9.064  18.094  0.00  0.00    +0.000 A 
ATOM     15  C   UNL     1       1.495   9.090  19.412  0.00  0.00    +0.000 A 
ATOM     16  C   UNL     1       1.729   7.976  20.211  0.00  0.00    +0.000 A 
ATOM     17  C   UNL     1       2.350   6.821  19.684  0.00  0.00    +0.000 A 
BRANCH  12  19
ATOM     18  C   UNL     1       3.815   4.680  18.501  0.00  0.00    +0.000 C 
ATOM     19  O   UNL     1       3.272   5.714  17.690  0.00  0.00    +0.000 OA
ENDBRANCH  12  19
ENDBRANCH   1  15
BRANCH   6  20
ATOM     20  O   UNL     1      -2.107  15.389  22.478  0.00  0.00    +0.000 OA
ATOM     21  C   UNL     1      -2.050  15.604  23.877  0.00  0.00    +0.000 C 
ENDBRANCH   6  20
BRANCH   8  22
ATOM     22  O   UNL     1       2.216  14.491  20.720  0.00  0.00    +0.000 OA
ATOM     23  C   UNL     1       2.974  15.004  21.801  0.00  0.00    +0.000 C 
ENDBRANCH   8  22
BRANCH   5  24
ATOM     24  C   UNL     1      -3.120  12.926  21.767  0.00  0.00    +0.000 C 
BRANCH  24  25
ATOM     25  C   UNL     1      -3.857  12.807  20.476  0.00  0.00    +0.000 C 
ATOM     26  C   UNL     1      -5.185  12.657  20.342  0.00  0.00    +0.000 C 
ATOM     27  C   UNL     1      -6.125  12.584  21.515  0.00  0.00    +0.000 C 
BRANCH  26  28
ATOM     28  C   UNL     1      -5.715  12.544  18.927  0.00  0.00    +0.000 C 
BRANCH  28  29
ATOM     29  C   UNL     1      -5.441  11.207  18.265  0.00  0.00    +0.000 C 
BRANCH  29  30
ATOM     30  C   UNL     1      -4.702  11.328  16.965  0.00  0.00    +0.000 C 
ATOM     31  C   UNL     1      -3.523  10.708  16.752  0.00  0.00    +0.000 C 
ATOM     32  C   UNL     1      -2.838   9.842  17.780  0.00  0.00    +0.000 C 
ATOM     33  C   UNL     1      -2.794  10.848  15.445  0.00  0.00    +0.000 C 
ENDBRANCH  29  30
ENDBRANCH  28  29
ENDBRANCH  26  28
ENDBRANCH  24  25
ENDBRANCH   5  24
TORSDOF 9
ENDMDL
MODEL 9
REMARK VINA RESULT:      -6.5      2.404      3.372
REMARK  Name = 
REMARK  15 active torsions:
REMARK  status: ('A' for Active; 'I' for Inactive)
REMARK    1  A    between atoms: C_1  and  O_2
REMARK    2  A    between atoms: O_2  and  C_3
REMARK    3  A    between atoms: C_6  and  C_7
REMARK    4  A    between atoms: C_11  and  C_12
REMARK    5  A    between atoms: C_12  and  C_13
REMARK    6  A    between atoms: C_14  and  C_15
REMARK    7  A    between atoms: C_14  and  C_16
REMARK    8  A    between atoms: C_16  and  C_17
REMARK    9  A    between atoms: C_17  and  C_18
REMARK   10  A    between atoms: C_19  and  C_20
REMARK   11  A    between atoms: C_19  and  C_21
REMARK   12  A    between atoms: C_22  and  O_23
REMARK   13  A    between atoms: O_23  and  C_24
REMARK   14  A    between atoms: C_26  and  O_27
REMARK   15  A    between atoms: O_27  and  C_28
REMARK                            x       y       z     vdW  Elec       q    Type
REMARK                         _______ _______ _______ _____ _____    ______ ____
ROOT
ATOM      1  C   UNL     1       0.455  10.236  20.688  0.00  0.00    +0.000 A 
ATOM      2  C   UNL     1      -0.404   9.920  21.668  0.00  0.00    +0.000 A 
ATOM      3  O   UNL     1      -1.325  10.764  22.218  0.00  0.00    +0.000 OA
ATOM      4  C   UNL     1      -1.068  12.110  22.146  0.00  0.00    +0.000 A 
ATOM      5  C   UNL     1      -1.945  12.943  22.850  0.00  0.00    +0.000 A 
ATOM      6  C   UNL     1      -1.543  14.238  23.164  0.00  0.00    +0.000 A 
ATOM      7  C   UNL     1      -0.309  14.684  22.692  0.00  0.00    +0.000 A 
ATOM      8  C   UNL     1       0.478  13.904  21.807  0.00  0.00    +0.000 A 
ATOM      9  C   UNL     1       0.048  12.614  21.481  0.00  0.00    +0.000 A 
ATOM     10  C   UNL     1       0.538  11.708  20.405  0.00  0.00    +0.000 A 
ATOM     11  O   UNL     1       0.922  12.153  19.330  0.00  0.00    +0.000 OA
ENDROOT
BRANCH   1  15
ATOM     12  C   UNL     1       2.532   7.081  18.614  0.00  0.00    +0.000 A 
ATOM     13  C   UNL     1       2.270   8.287  17.978  0.00  0.00    +0.000 A 
ATOM     14  C   UNL     1       1.665   9.329  18.676  0.00  0.00    +0.000 A 
ATOM     15  C   UNL     1       1.244   9.174  20.013  0.00  0.00    +0.000 A 
ATOM     16  C   UNL     1       1.575   7.986  20.657  0.00  0.00    +0.000 A 
ATOM     17  C   UNL     1       2.215   6.935  19.962  0.00  0.00    +0.000 A 
BRANCH  12  19
ATOM     18  C   UNL     1       4.271   6.467  17.128  0.00  0.00    +0.000 C 
ATOM     19  O   UNL     1       3.069   6.121  17.804  0.00  0.00    +0.000 OA
ENDBRANCH  12  19
ENDBRANCH   1  15
BRANCH   6  20
ATOM     20  O   UNL     1      -2.421  14.936  23.939  0.00  0.00    +0.000 OA
ATOM     21  C   UNL     1      -2.675  16.299  23.652  0.00  0.00    +0.000 C 
ENDBRANCH   6  20
BRANCH   8  22
ATOM     22  O   UNL     1       1.607  14.580  21.442  0.00  0.00    +0.000 OA
ATOM     23  C   UNL     1       1.598  15.533  20.394  0.00  0.00    +0.000 C 
ENDBRANCH   8  22
BRANCH   5  24
ATOM     24  C   UNL     1      -3.277  12.397  23.287  0.00  0.00    +0.000 C 
BRANCH  24  25
ATOM     25  C   UNL     1      -4.385  12.906  22.429  0.00  0.00    +0.000 C 
ATOM     26  C   UNL     1      -5.669  13.032  22.800  0.00  0.00    +0.000 C 
ATOM     27  C   UNL     1      -6.169  12.660  24.170  0.00  0.00    +0.000 C 
BRANCH  26  28
ATOM     28  C   UNL     1      -6.628  13.562  21.753  0.00  0.00    +0.000 C 
BRANCH  28  29
ATOM     29  C   UNL     1      -6.873  12.611  20.597  0.00  0.00    +0.000 C 
BRANCH  29  30
ATOM     30  C   UNL     1      -7.436  11.289  21.026  0.00  0.00    +0.000 C 
ATOM     31  C   UNL     1      -7.339  10.186  20.253  0.00  0.00    +0.000 C 
ATOM     32  C   UNL     1      -6.665  10.170  18.904  0.00  0.00    +0.000 C 
ATOM     33  C   UNL     1      -7.916   8.871  20.696  0.00  0.00    +0.000 C 
ENDBRANCH  29  30
ENDBRANCH  28  29
ENDBRANCH  26  28
ENDBRANCH  24  25
ENDBRANCH   5  24
TORSDOF 9
ENDMDL
