MODEL 1
REMARK VINA RESULT:      -7.5      0.000      0.000
REMARK  Name = 
REMARK  3 active torsions:
REMARK  status: ('A' for Active; 'I' for Inactive)
REMARK    1  A    between atoms: C_1  and  O_2
REMARK    2  A    between atoms: O_2  and  C_3
REMARK    3  A    between atoms: N_11  and  C_12
REMARK                            x       y       z     vdW  Elec       q    Type
REMARK                         _______ _______ _______ _____ _____    ______ ____
ROOT
ATOM      1  C   UNL     1       0.758  12.966  19.345  0.00  0.00    +0.000 A 
ATOM      2  C   UNL     1       0.347  13.295  20.609  0.00  0.00    +0.000 A 
ATOM      3  C   UNL     1       0.188  12.230  21.452  0.00  0.00    +0.000 A 
ATOM      4  N   UNL     1       0.405  10.951  21.086  0.00  0.00    +0.000 NA
ATOM      5  C   UNL     1       0.800  10.722  19.825  0.00  0.00    +0.000 A 
ATOM      6  N   UNL     1       1.027   9.441  19.412  0.00  0.00    +0.000 N 
ATOM      7  C   UNL     1       1.446   9.149  18.043  0.00  0.00    +0.000 C 
ATOM      8  C   UNL     1       2.721   8.281  18.042  0.00  0.00    +0.000 C 
ATOM      9  N   UNL     1       2.548   7.103  18.910  0.00  0.00    +0.000 N 
ATOM     10  C   UNL     1       2.128   7.418  20.292  0.00  0.00    +0.000 C 
ATOM     11  C   UNL     1       0.852   8.291  20.297  0.00  0.00    +0.000 C 
ATOM     12  N   UNL     1       0.992  11.710  18.943  0.00  0.00    +0.000 NA
ENDROOT
BRANCH   9  13
ATOM     13  C   UNL     1       2.859   5.826  18.505  0.00  0.00    +0.000 A 
ATOM     14  C   UNL     1       1.873   4.964  17.979  0.00  0.00    +0.000 A 
ATOM     15  C   UNL     1       2.159   3.663  17.503  0.00  0.00    +0.000 A 
ATOM     16  C   UNL     1       3.456   3.157  17.534  0.00  0.00    +0.000 A 
ATOM     17  C   UNL     1       4.417   3.986  18.054  0.00  0.00    +0.000 A 
ATOM     18  N   UNL     1       5.776   3.743  18.230  0.00  0.00    +0.000 N 
ATOM     19  C   UNL     1       6.356   4.858  18.841  0.00  0.00    +0.000 A 
ATOM     20  O   UNL     1       7.525   4.986  19.158  0.00  0.00    +0.000 OA
ATOM     21  N   UNL     1       5.335   5.790  19.027  0.00  0.00    +0.000 N 
ATOM     22  C   UNL     1       4.133   5.272  18.530  0.00  0.00    +0.000 A 
ATOM     23  H   UNL     1       6.282   2.907  17.993  0.00  0.00    +0.000 HD
ATOM     24  H   UNL     1       5.459   6.666  19.501  0.00  0.00    +0.000 HD
ENDBRANCH   9  13
BRANCH   1  26
ATOM     25  C   UNL     1       0.325  15.220  18.903  0.00  0.00    +0.000 C 
ATOM     26  O   UNL     1       0.926  14.007  18.452  0.00  0.00    +0.000 OA
ENDBRANCH   1  26
TORSDOF 2
ENDMDL
MODEL 2
REMARK VINA RESULT:      -7.3      1.489      2.296
REMARK  Name = 
REMARK  3 active torsions:
REMARK  status: ('A' for Active; 'I' for Inactive)
REMARK    1  A    between atoms: C_1  and  O_2
REMARK    2  A    between atoms: O_2  and  C_3
REMARK    3  A    between atoms: N_11  and  C_12
REMARK                            x       y       z     vdW  Elec       q    Type
REMARK                         _______ _______ _______ _____ _____    ______ ____
ROOT
ATOM      1  C   UNL     1      -0.201  11.372  21.722  0.00  0.00    +0.000 A 
ATOM      2  C   UNL     1      -0.521  12.380  20.853  0.00  0.00    +0.000 A 
ATOM      3  C   UNL     1      -0.084  12.188  19.571  0.00  0.00    +0.000 A 
ATOM      4  N   UNL     1       0.613  11.105  19.176  0.00  0.00    +0.000 NA
ATOM      5  C   UNL     1       0.887  10.170  20.098  0.00  0.00    +0.000 A 
ATOM      6  N   UNL     1       1.595   9.059  19.740  0.00  0.00    +0.000 N 
ATOM      7  C   UNL     1       1.925   8.024  20.719  0.00  0.00    +0.000 C 
ATOM      8  C   UNL     1       1.475   6.638  20.210  0.00  0.00    +0.000 C 
ATOM      9  N   UNL     1       1.978   6.397  18.846  0.00  0.00    +0.000 N 
ATOM     10  C   UNL     1       1.632   7.453  17.870  0.00  0.00    +0.000 C 
ATOM     11  C   UNL     1       2.079   8.843  18.378  0.00  0.00    +0.000 C 
ATOM     12  N   UNL     1       0.484  10.276  21.369  0.00  0.00    +0.000 NA
ENDROOT
BRANCH   9  13
ATOM     13  C   UNL     1       2.619   5.236  18.482  0.00  0.00    +0.000 A 
ATOM     14  C   UNL     1       1.938   4.206  17.799  0.00  0.00    +0.000 A 
ATOM     15  C   UNL     1       2.572   3.019  17.361  0.00  0.00    +0.000 A 
ATOM     16  C   UNL     1       3.928   2.804  17.589  0.00  0.00    +0.000 A 
ATOM     17  C   UNL     1       4.594   3.798  18.262  0.00  0.00    +0.000 A 
ATOM     18  N   UNL     1       5.930   3.845  18.645  0.00  0.00    +0.000 N 
ATOM     19  C   UNL     1       6.153   5.031  19.350  0.00  0.00    +0.000 A 
ATOM     20  O   UNL     1       7.203   5.394  19.848  0.00  0.00    +0.000 OA
ATOM     21  N   UNL     1       4.936   5.712  19.383  0.00  0.00    +0.000 N 
ATOM     22  C   UNL     1       3.966   4.969  18.700  0.00  0.00    +0.000 A 
ATOM     23  H   UNL     1       6.637   3.149  18.482  0.00  0.00    +0.000 HD
ATOM     24  H   UNL     1       4.792   6.573  19.880  0.00  0.00    +0.000 HD
ENDBRANCH   9  13
BRANCH   1  26
ATOM     25  C   UNL     1      -2.024  11.700  23.147  0.00  0.00    +0.000 C 
ATOM     26  O   UNL     1      -0.613  11.522  23.033  0.00  0.00    +0.000 OA
ENDBRANCH   1  26
TORSDOF 2
ENDMDL
MODEL 3
REMARK VINA RESULT:      -7.3      2.228      8.344
REMARK  Name = 
REMARK  3 active torsions:
REMARK  status: ('A' for Active; 'I' for Inactive)
REMARK    1  A    between atoms: C_1  and  O_2
REMARK    2  A    between atoms: O_2  and  C_3
REMARK    3  A    between atoms: N_11  and  C_12
REMARK                            x       y       z     vdW  Elec       q    Type
REMARK                         _______ _______ _______ _____ _____    ______ ____
ROOT
ATOM      1  C   UNL     1       4.999   4.885  18.807  0.00  0.00    +0.000 A 
ATOM      2  C   UNL     1       5.808   5.033  17.713  0.00  0.00    +0.000 A 
ATOM      3  C   UNL     1       5.451   6.053  16.874  0.00  0.00    +0.000 A 
ATOM      4  N   UNL     1       4.387   6.853  17.085  0.00  0.00    +0.000 NA
ATOM      5  C   UNL     1       3.647   6.630  18.181  0.00  0.00    +0.000 A 
ATOM      6  N   UNL     1       2.559   7.415  18.430  0.00  0.00    +0.000 N 
ATOM      7  C   UNL     1       1.719   7.196  19.607  0.00  0.00    +0.000 C 
ATOM      8  C   UNL     1       1.559   8.505  20.407  0.00  0.00    +0.000 C 
ATOM      9  N   UNL     1       1.128   9.603  19.524  0.00  0.00    +0.000 N 
ATOM     10  C   UNL     1       1.991   9.812  18.341  0.00  0.00    +0.000 C 
ATOM     11  C   UNL     1       2.156   8.501  17.539  0.00  0.00    +0.000 C 
ATOM     12  N   UNL     1       3.938   5.662  19.059  0.00  0.00    +0.000 NA
ENDROOT
BRANCH   9  13
ATOM     13  C   UNL     1       0.078  10.438  19.829  0.00  0.00    +0.000 A 
ATOM     14  C   UNL     1      -0.074  10.981  21.122  0.00  0.00    +0.000 A 
ATOM     15  C   UNL     1      -1.109  11.883  21.465  0.00  0.00    +0.000 A 
ATOM     16  C   UNL     1      -2.050  12.287  20.521  0.00  0.00    +0.000 A 
ATOM     17  C   UNL     1      -1.913  11.754  19.264  0.00  0.00    +0.000 A 
ATOM     18  N   UNL     1      -2.711  11.955  18.142  0.00  0.00    +0.000 N 
ATOM     19  C   UNL     1      -2.219  11.169  17.096  0.00  0.00    +0.000 A 
ATOM     20  O   UNL     1      -2.680  11.084  15.972  0.00  0.00    +0.000 OA
ATOM     21  N   UNL     1      -1.104  10.493  17.592  0.00  0.00    +0.000 N 
ATOM     22  C   UNL     1      -0.893  10.857  18.927  0.00  0.00    +0.000 A 
ATOM     23  H   UNL     1      -3.525  12.539  18.068  0.00  0.00    +0.000 HD
ATOM     24  H   UNL     1      -0.587   9.810  17.068  0.00  0.00    +0.000 HD
ENDBRANCH   9  13
BRANCH   1  26
ATOM     25  C   UNL     1       4.392   2.776  19.611  0.00  0.00    +0.000 C 
ATOM     26  O   UNL     1       5.314   3.862  19.683  0.00  0.00    +0.000 OA
ENDBRANCH   1  26
TORSDOF 2
ENDMDL
MODEL 4
REMARK VINA RESULT:      -7.3      1.492      1.511
REMARK  Name = 
REMARK  3 active torsions:
REMARK  status: ('A' for Active; 'I' for Inactive)
REMARK    1  A    between atoms: C_1  and  O_2
REMARK    2  A    between atoms: O_2  and  C_3
REMARK    3  A    between atoms: N_11  and  C_12
REMARK                            x       y       z     vdW  Elec       q    Type
REMARK                         _______ _______ _______ _____ _____    ______ ____
ROOT
ATOM      1  C   UNL     1       1.390  12.956  18.895  0.00  0.00    +0.000 A 
ATOM      2  C   UNL     1       0.936  13.656  19.980  0.00  0.00    +0.000 A 
ATOM      3  C   UNL     1       0.501  12.879  21.019  0.00  0.00    +0.000 A 
ATOM      4  N   UNL     1       0.504  11.532  20.994  0.00  0.00    +0.000 NA
ATOM      5  C   UNL     1       0.961  10.930  19.886  0.00  0.00    +0.000 A 
ATOM      6  N   UNL     1       0.978   9.567  19.818  0.00  0.00    +0.000 N 
ATOM      7  C   UNL     1       1.457   8.874  18.623  0.00  0.00    +0.000 C 
ATOM      8  C   UNL     1       2.539   7.839  18.998  0.00  0.00    +0.000 C 
ATOM      9  N   UNL     1       2.066   6.964  20.085  0.00  0.00    +0.000 N 
ATOM     10  C   UNL     1       1.589   7.683  21.286  0.00  0.00    +0.000 C 
ATOM     11  C   UNL     1       0.507   8.723  20.914  0.00  0.00    +0.000 C 
ATOM     12  N   UNL     1       1.417  11.617  18.832  0.00  0.00    +0.000 NA
ENDROOT
BRANCH   9  13
ATOM     13  C   UNL     1       2.164   5.593  20.035  0.00  0.00    +0.000 A 
ATOM     14  C   UNL     1       1.065   4.768  20.354  0.00  0.00    +0.000 A 
ATOM     15  C   UNL     1       1.108   3.356  20.266  0.00  0.00    +0.000 A 
ATOM     16  C   UNL     1       2.262   2.698  19.851  0.00  0.00    +0.000 A 
ATOM     17  C   UNL     1       3.338   3.495  19.549  0.00  0.00    +0.000 A 
ATOM     18  N   UNL     1       4.612   3.118  19.137  0.00  0.00    +0.000 N 
ATOM     19  C   UNL     1       5.394   4.267  18.992  0.00  0.00    +0.000 A 
ATOM     20  O   UNL     1       6.565   4.311  18.660  0.00  0.00    +0.000 OA
ATOM     21  N   UNL     1       4.577   5.352  19.311  0.00  0.00    +0.000 N 
ATOM     22  C   UNL     1       3.297   4.891  19.642  0.00  0.00    +0.000 A 
ATOM     23  H   UNL     1       4.954   2.185  18.985  0.00  0.00    +0.000 HD
ATOM     24  H   UNL     1       4.900   6.302  19.348  0.00  0.00    +0.000 HD
ENDBRANCH   9  13
BRANCH   1  26
ATOM     25  C   UNL     1       2.970  14.498  18.129  0.00  0.00    +0.000 C 
ATOM     26  O   UNL     1       1.834  13.695  17.815  0.00  0.00    +0.000 OA
ENDBRANCH   1  26
TORSDOF 2
ENDMDL
MODEL 5
REMARK VINA RESULT:      -7.2      1.122      1.122
REMARK  Name = 
REMARK  3 active torsions:
REMARK  status: ('A' for Active; 'I' for Inactive)
REMARK    1  A    between atoms: C_1  and  O_2
REMARK    2  A    between atoms: O_2  and  C_3
REMARK    3  A    between atoms: N_11  and  C_12
REMARK                            x       y       z     vdW  Elec       q    Type
REMARK                         _______ _______ _______ _____ _____    ______ ____
ROOT
ATOM      1  C   UNL     1       0.127  13.040  19.510  0.00  0.00    +0.000 A 
ATOM      2  C   UNL     1      -0.107  13.302  20.833  0.00  0.00    +0.000 A 
ATOM      3  C   UNL     1      -0.007  12.214  21.656  0.00  0.00    +0.000 A 
ATOM      4  N   UNL     1       0.289  10.975  21.220  0.00  0.00    +0.000 NA
ATOM      5  C   UNL     1       0.497  10.810  19.905  0.00  0.00    +0.000 A 
ATOM      6  N   UNL     1       0.796   9.569  19.421  0.00  0.00    +0.000 N 
ATOM      7  C   UNL     1       1.018   9.346  17.993  0.00  0.00    +0.000 C 
ATOM      8  C   UNL     1       2.365   8.630  17.762  0.00  0.00    +0.000 C 
ATOM      9  N   UNL     1       2.467   7.429  18.609  0.00  0.00    +0.000 N 
ATOM     10  C   UNL     1       2.244   7.675  20.049  0.00  0.00    +0.000 C 
ATOM     11  C   UNL     1       0.896   8.394  20.285  0.00  0.00    +0.000 C 
ATOM     12  N   UNL     1       0.432  11.824  19.036  0.00  0.00    +0.000 NA
ENDROOT
BRANCH   9  13
ATOM     13  C   UNL     1       2.849   6.202  18.119  0.00  0.00    +0.000 A 
ATOM     14  C   UNL     1       1.969   5.099  18.138  0.00  0.00    +0.000 A 
ATOM     15  C   UNL     1       2.303   3.834  17.599  0.00  0.00    +0.000 A 
ATOM     16  C   UNL     1       3.544   3.611  17.010  0.00  0.00    +0.000 A 
ATOM     17  C   UNL     1       4.408   4.677  16.996  0.00  0.00    +0.000 A 
ATOM     18  N   UNL     1       5.707   4.738  16.502  0.00  0.00    +0.000 N 
ATOM     19  C   UNL     1       6.220   6.015  16.747  0.00  0.00    +0.000 A 
ATOM     20  O   UNL     1       7.334   6.417  16.464  0.00  0.00    +0.000 OA
ATOM     21  N   UNL     1       5.212   6.736  17.389  0.00  0.00    +0.000 N 
ATOM     22  C   UNL     1       4.080   5.926  17.535  0.00  0.00    +0.000 A 
ATOM     23  H   UNL     1       6.228   4.001  16.061  0.00  0.00    +0.000 HD
ATOM     24  H   UNL     1       5.330   7.671  17.736  0.00  0.00    +0.000 HD
ENDBRANCH   9  13
BRANCH   1  26
ATOM     25  C   UNL     1      -0.335  15.320  19.287  0.00  0.00    +0.000 C 
ATOM     26  O   UNL     1       0.031  14.105  18.635  0.00  0.00    +0.000 OA
ENDBRANCH   1  26
TORSDOF 2
ENDMDL
MODEL 6
REMARK VINA RESULT:      -7.1      1.826      2.577
REMARK  Name = 
REMARK  3 active torsions:
REMARK  status: ('A' for Active; 'I' for Inactive)
REMARK    1  A    between atoms: C_1  and  O_2
REMARK    2  A    between atoms: O_2  and  C_3
REMARK    3  A    between atoms: N_11  and  C_12
REMARK                            x       y       z     vdW  Elec       q    Type
REMARK                         _______ _______ _______ _____ _____    ______ ____
ROOT
ATOM      1  C   UNL     1      -0.863  11.399  20.804  0.00  0.00    +0.000 A 
ATOM      2  C   UNL     1      -1.085  12.135  19.672  0.00  0.00    +0.000 A 
ATOM      3  C   UNL     1      -0.404  11.700  18.567  0.00  0.00    +0.000 A 
ATOM      4  N   UNL     1       0.428  10.641  18.574  0.00  0.00    +0.000 NA
ATOM      5  C   UNL     1       0.590   9.983  19.731  0.00  0.00    +0.000 A 
ATOM      6  N   UNL     1       1.428   8.906  19.783  0.00  0.00    +0.000 N 
ATOM      7  C   UNL     1       1.640   8.170  21.028  0.00  0.00    +0.000 C 
ATOM      8  C   UNL     1       1.391   6.663  20.813  0.00  0.00    +0.000 C 
ATOM      9  N   UNL     1       2.155   6.170  19.654  0.00  0.00    +0.000 N 
ATOM     10  C   UNL     1       1.924   6.924  18.403  0.00  0.00    +0.000 C 
ATOM     11  C   UNL     1       2.170   8.435  18.615  0.00  0.00    +0.000 C 
ATOM     12  N   UNL     1      -0.050  10.335  20.853  0.00  0.00    +0.000 NA
ENDROOT
BRANCH   9  13
ATOM     13  C   UNL     1       2.932   5.036  19.700  0.00  0.00    +0.000 A 
ATOM     14  C   UNL     1       2.451   3.842  20.279  0.00  0.00    +0.000 A 
ATOM     15  C   UNL     1       3.197   2.640  20.301  0.00  0.00    +0.000 A 
ATOM     16  C   UNL     1       4.470   2.575  19.742  0.00  0.00    +0.000 A 
ATOM     17  C   UNL     1       4.947   3.736  19.186  0.00  0.00    +0.000 A 
ATOM     18  N   UNL     1       6.179   3.971  18.584  0.00  0.00    +0.000 N 
ATOM     19  C   UNL     1       6.244   5.315  18.206  0.00  0.00    +0.000 A 
ATOM     20  O   UNL     1       7.182   5.873  17.667  0.00  0.00    +0.000 OA
ATOM     21  N   UNL     1       5.030   5.895  18.577  0.00  0.00    +0.000 N 
ATOM     22  C   UNL     1       4.212   4.926  19.169  0.00  0.00    +0.000 A 
ATOM     23  H   UNL     1       6.929   3.315  18.451  0.00  0.00    +0.000 HD
ATOM     24  H   UNL     1       4.826   6.873  18.476  0.00  0.00    +0.000 HD
ENDBRANCH   9  13
BRANCH   1  26
ATOM     25  C   UNL     1      -1.245  10.958  23.067  0.00  0.00    +0.000 C 
ATOM     26  O   UNL     1      -1.522  11.802  21.951  0.00  0.00    +0.000 OA
ENDBRANCH   1  26
TORSDOF 2
ENDMDL
MODEL 7
REMARK VINA RESULT:      -7.1      2.290      8.498
REMARK  Name = 
REMARK  3 active torsions:
REMARK  status: ('A' for Active; 'I' for Inactive)
REMARK    1  A    between atoms: C_1  and  O_2
REMARK    2  A    between atoms: O_2  and  C_3
REMARK    3  A    between atoms: N_11  and  C_12
REMARK                            x       y       z     vdW  Elec       q    Type
REMARK                         _______ _______ _______ _____ _____    ______ ____
ROOT
ATOM      1  C   UNL     1       2.595   3.890  18.721  0.00  0.00    +0.000 A 
ATOM      2  C   UNL     1       2.256   3.194  19.849  0.00  0.00    +0.000 A 
ATOM      3  C   UNL     1       1.873   3.974  20.906  0.00  0.00    +0.000 A 
ATOM      4  N   UNL     1       1.834   5.320  20.863  0.00  0.00    +0.000 NA
ATOM      5  C   UNL     1       2.190   5.918  19.716  0.00  0.00    +0.000 A 
ATOM      6  N   UNL     1       2.169   7.280  19.632  0.00  0.00    +0.000 N 
ATOM      7  C   UNL     1       2.562   7.969  18.403  0.00  0.00    +0.000 C 
ATOM      8  C   UNL     1       1.459   8.953  17.961  0.00  0.00    +0.000 C 
ATOM      9  N   UNL     1       1.070   9.832  19.078  0.00  0.00    +0.000 N 
ATOM     10  C   UNL     1       0.672   9.118  20.309  0.00  0.00    +0.000 C 
ATOM     11  C   UNL     1       1.773   8.128  20.754  0.00  0.00    +0.000 C 
ATOM     12  N   UNL     1       2.563   5.226  18.633  0.00  0.00    +0.000 NA
ENDROOT
BRANCH   9  13
ATOM     13  C   UNL     1       0.974  11.199  18.953  0.00  0.00    +0.000 A 
ATOM     14  C   UNL     1       2.069  11.972  18.512  0.00  0.00    +0.000 A 
ATOM     15  C   UNL     1       1.998  13.372  18.321  0.00  0.00    +0.000 A 
ATOM     16  C   UNL     1       0.819  14.071  18.564  0.00  0.00    +0.000 A 
ATOM     17  C   UNL     1      -0.246  13.326  19.002  0.00  0.00    +0.000 A 
ATOM     18  N   UNL     1      -1.526  13.752  19.343  0.00  0.00    +0.000 N 
ATOM     19  C   UNL     1      -2.265  12.649  19.781  0.00  0.00    +0.000 A 
ATOM     20  O   UNL     1      -3.418  12.656  20.173  0.00  0.00    +0.000 OA
ATOM     21  N   UNL     1      -1.421  11.541  19.693  0.00  0.00    +0.000 N 
ATOM     22  C   UNL     1      -0.175  11.942  19.197  0.00  0.00    +0.000 A 
ATOM     23  H   UNL     1      -1.884  14.691  19.317  0.00  0.00    +0.000 HD
ATOM     24  H   UNL     1      -1.676  10.620  20.002  0.00  0.00    +0.000 HD
ENDBRANCH   9  13
BRANCH   1  26
ATOM     25  C   UNL     1       3.421   1.833  17.980  0.00  0.00    +0.000 C 
ATOM     26  O   UNL     1       2.997   3.148  17.626  0.00  0.00    +0.000 OA
ENDBRANCH   1  26
TORSDOF 2
ENDMDL
MODEL 8
REMARK VINA RESULT:      -7.0      2.337      2.723
REMARK  Name = 
REMARK  3 active torsions:
REMARK  status: ('A' for Active; 'I' for Inactive)
REMARK    1  A    between atoms: C_1  and  O_2
REMARK    2  A    between atoms: O_2  and  C_3
REMARK    3  A    between atoms: N_11  and  C_12
REMARK                            x       y       z     vdW  Elec       q    Type
REMARK                         _______ _______ _______ _____ _____    ______ ____
ROOT
ATOM      1  C   UNL     1      -1.354  13.121  20.889  0.00  0.00    +0.000 A 
ATOM      2  C   UNL     1      -1.686  13.255  22.210  0.00  0.00    +0.000 A 
ATOM      3  C   UNL     1      -1.453  12.142  22.972  0.00  0.00    +0.000 A 
ATOM      4  N   UNL     1      -0.946  10.995  22.478  0.00  0.00    +0.000 NA
ATOM      5  C   UNL     1      -0.656  10.953  21.170  0.00  0.00    +0.000 A 
ATOM      6  N   UNL     1      -0.145   9.809  20.629  0.00  0.00    +0.000 N 
ATOM      7  C   UNL     1       0.173   9.720  19.205  0.00  0.00    +0.000 C 
ATOM      8  C   UNL     1       1.625   9.237  19.005  0.00  0.00    +0.000 C 
ATOM      9  N   UNL     1       1.876   8.011  19.783  0.00  0.00    +0.000 N 
ATOM     10  C   UNL     1       1.553   8.122  21.221  0.00  0.00    +0.000 C 
ATOM     11  C   UNL     1       0.100   8.608  21.425  0.00  0.00    +0.000 C 
ATOM     12  N   UNL     1      -0.841  12.002  20.360  0.00  0.00    +0.000 NA
ENDROOT
BRANCH   9  13
ATOM     13  C   UNL     1       2.468   6.893  19.242  0.00  0.00    +0.000 A 
ATOM     14  C   UNL     1       3.117   6.941  17.990  0.00  0.00    +0.000 A 
ATOM     15  C   UNL     1       3.782   5.828  17.422  0.00  0.00    +0.000 A 
ATOM     16  C   UNL     1       3.827   4.605  18.085  0.00  0.00    +0.000 A 
ATOM     17  C   UNL     1       3.189   4.550  19.298  0.00  0.00    +0.000 A 
ATOM     18  N   UNL     1       3.052   3.467  20.161  0.00  0.00    +0.000 N 
ATOM     19  C   UNL     1       2.282   3.863  21.258  0.00  0.00    +0.000 A 
ATOM     20  O   UNL     1       1.949   3.168  22.201  0.00  0.00    +0.000 OA
ATOM     21  N   UNL     1       1.958   5.206  21.058  0.00  0.00    +0.000 N 
ATOM     22  C   UNL     1       2.527   5.648  19.857  0.00  0.00    +0.000 A 
ATOM     23  H   UNL     1       3.411   2.537  20.036  0.00  0.00    +0.000 HD
ATOM     24  H   UNL     1       1.358   5.732  21.667  0.00  0.00    +0.000 HD
ENDBRANCH   9  13
BRANCH   1  26
ATOM     25  C   UNL     1      -0.664  15.283  20.327  0.00  0.00    +0.000 C 
ATOM     26  O   UNL     1      -1.577  14.216  20.075  0.00  0.00    +0.000 OA
ENDBRANCH   1  26
TORSDOF 2
ENDMDL
MODEL 9
REMARK VINA RESULT:      -6.8      2.040      2.535
REMARK  Name = 
REMARK  3 active torsions:
REMARK  status: ('A' for Active; 'I' for Inactive)
REMARK    1  A    between atoms: C_1  and  O_2
REMARK    2  A    between atoms: O_2  and  C_3
REMARK    3  A    between atoms: N_11  and  C_12
REMARK                            x       y       z     vdW  Elec       q    Type
REMARK                         _______ _______ _______ _____ _____    ______ ____
ROOT
ATOM      1  C   UNL     1       0.533  12.460  19.496  0.00  0.00    +0.000 A 
ATOM      2  C   UNL     1       0.158  12.633  20.801  0.00  0.00    +0.000 A 
ATOM      3  C   UNL     1       0.174  11.491  21.554  0.00  0.00    +0.000 A 
ATOM      4  N   UNL     1       0.521  10.283  21.069  0.00  0.00    +0.000 NA
ATOM      5  C   UNL     1       0.868  10.207  19.776  0.00  0.00    +0.000 A 
ATOM      6  N   UNL     1       1.221   9.001  19.243  0.00  0.00    +0.000 N 
ATOM      7  C   UNL     1       1.594   8.875  17.835  0.00  0.00    +0.000 C 
ATOM      8  C   UNL     1       2.961   8.172  17.699  0.00  0.00    +0.000 C 
ATOM      9  N   UNL     1       2.978   6.916  18.469  0.00  0.00    +0.000 N 
ATOM     10  C   UNL     1       2.602   7.064  19.891  0.00  0.00    +0.000 C 
ATOM     11  C   UNL     1       1.234   7.770  20.031  0.00  0.00    +0.000 C 
ATOM     12  N   UNL     1       0.891  11.278  18.975  0.00  0.00    +0.000 NA
ENDROOT
BRANCH   9  13
ATOM     13  C   UNL     1       3.414   5.724  17.940  0.00  0.00    +0.000 A 
ATOM     14  C   UNL     1       4.648   5.631  17.262  0.00  0.00    +0.000 A 
ATOM     15  C   UNL     1       5.158   4.415  16.748  0.00  0.00    +0.000 A 
ATOM     16  C   UNL     1       4.450   3.224  16.890  0.00  0.00    +0.000 A 
ATOM     17  C   UNL     1       3.245   3.310  17.539  0.00  0.00    +0.000 A 
ATOM     18  N   UNL     1       2.323   2.301  17.801  0.00  0.00    +0.000 N 
ATOM     19  C   UNL     1       1.217   2.861  18.446  0.00  0.00    +0.000 A 
ATOM     20  O   UNL     1       0.213   2.273  18.809  0.00  0.00    +0.000 OA
ATOM     21  N   UNL     1       1.480   4.224  18.584  0.00  0.00    +0.000 N 
ATOM     22  C   UNL     1       2.738   4.513  18.042  0.00  0.00    +0.000 A 
ATOM     23  H   UNL     1       2.397   1.328  17.558  0.00  0.00    +0.000 HD
ATOM     24  H   UNL     1       0.824   4.883  18.962  0.00  0.00    +0.000 HD
ENDBRANCH   9  13
BRANCH   1  26
ATOM     25  C   UNL     1      -0.056  14.716  19.332  0.00  0.00    +0.000 C 
ATOM     26  O   UNL     1       0.525  13.583  18.689  0.00  0.00    +0.000 OA
ENDBRANCH   1  26
TORSDOF 2
ENDMDL
