MODEL 1
REMARK VINA RESULT:      -7.9      0.000      0.000
REMARK  Name = 
REMARK  11 active torsions:
REMARK  status: ('A' for Active; 'I' for Inactive)
REMARK    1  A    between atoms: C_1  and  C_2
REMARK    2  A    between atoms: C_5  and  S_6
REMARK    3  A    between atoms: S_6  and  C_7
REMARK    4  A    between atoms: C_7  and  C_8
REMARK    5  A    between atoms: C_9  and  O_10
REMARK    6  A    between atoms: C_13  and  C_14
REMARK    7  A    between atoms: C_14  and  O_16
REMARK    8  A    between atoms: C_17  and  N_18
REMARK    9  A    between atoms: C_17  and  C_19
REMARK   10  A    between atoms: C_19  and  O_21
REMARK   11  A    between atoms: C_23  and  C_24
REMARK                            x       y       z     vdW  Elec       q    Type
REMARK                         _______ _______ _______ _____ _____    ______ ____
ROOT
ATOM      1  C   UNL     1       4.896   5.779  18.140  0.00  0.00    +0.000 C 
ATOM      2  C   UNL     1       5.493   6.703  17.062  0.00  0.00    +0.000 C 
ATOM      3  C   UNL     1       5.574   5.840  15.776  0.00  0.00    +0.000 C 
ATOM      4  C   UNL     1       5.622   4.352  16.296  0.00  0.00    +0.000 C 
ATOM      5  C   UNL     1       6.783   4.938  15.522  0.00  0.00    +0.000 C 
ATOM      6  C   UNL     1       5.596   4.427  17.849  0.00  0.00    +0.000 C 
ENDROOT
BRANCH   6   7
ATOM      7  N   UNL     1       6.967   4.392  18.405  0.00  0.00    +0.000 NA
ATOM      8  H   UNL     1       7.566   5.216  18.211  0.00  0.00    +0.000 HD
ATOM      9  H   UNL     1       7.475   3.542  18.063  0.00  0.00    +0.000 HD
ENDBRANCH   6   7
BRANCH   2  10
ATOM     10  O   UNL     1       6.754   7.174  17.458  0.00  0.00    +0.000 OA
ATOM     11  H   UNL     1       6.888   8.059  17.033  0.00  0.00    +0.000 HD
ENDBRANCH   2  10
BRANCH   5  12
ATOM     12  C   UNL     1       6.893   4.559  14.061  0.00  0.00    +0.000 C 
ATOM     13  O   UNL     1       7.473   5.281  13.265  0.00  0.00    +0.000 OA
BRANCH  12  14
ATOM     14  O   UNL     1       6.322   3.420  13.616  0.00  0.00    +0.000 OA
ATOM     15  H   UNL     1       6.604   2.549  13.928  0.00  0.00    +0.000 HD
ENDBRANCH  12  14
ENDBRANCH   5  12
BRANCH   6  16
ATOM     16  C   UNL     1       4.877   3.246  18.475  0.00  0.00    +0.000 C 
ATOM     17  O   UNL     1       4.911   3.060  19.684  0.00  0.00    +0.000 OA
BRANCH  16  18
ATOM     18  O   UNL     1       4.152   2.406  17.708  0.00  0.00    +0.000 OA
ATOM     19  H   UNL     1       3.216   2.568  17.522  0.00  0.00    +0.000 HD
ENDBRANCH  16  18
ENDBRANCH   6  16
BRANCH   1  20
ATOM     20  C   UNL     1       3.335   5.737  18.015  0.00  0.00    +0.000 C 
BRANCH  20  21
ATOM     21  S   UNL     1       2.596   6.051  19.669  0.00  0.00    +0.000 S 
BRANCH  21  26
ATOM     22  C   UNL     1       0.401  11.717  18.847  0.00  0.00    +0.000 C 
ATOM     23  C   UNL     1       0.963  10.334  19.076  0.00  0.00    +0.000 A 
ATOM     24  C   UNL     1       1.623   9.674  18.027  0.00  0.00    +0.000 A 
ATOM     25  C   UNL     1       2.142   8.387  18.206  0.00  0.00    +0.000 A 
ATOM     26  C   UNL     1       2.014   7.742  19.440  0.00  0.00    +0.000 A 
ATOM     27  C   UNL     1       1.358   8.392  20.493  0.00  0.00    +0.000 A 
ATOM     28  C   UNL     1       0.827   9.684  20.326  0.00  0.00    +0.000 A 
ATOM     29  C   UNL     1       0.107  10.347  21.473  0.00  0.00    +0.000 C 
ENDBRANCH  21  26
ENDBRANCH  20  21
ENDBRANCH   1  20
TORSDOF 9
ENDMDL
MODEL 2
REMARK VINA RESULT:      -7.9      1.809      3.859
REMARK  Name = 
REMARK  11 active torsions:
REMARK  status: ('A' for Active; 'I' for Inactive)
REMARK    1  A    between atoms: C_1  and  C_2
REMARK    2  A    between atoms: C_5  and  S_6
REMARK    3  A    between atoms: S_6  and  C_7
REMARK    4  A    between atoms: C_7  and  C_8
REMARK    5  A    between atoms: C_9  and  O_10
REMARK    6  A    between atoms: C_13  and  C_14
REMARK    7  A    between atoms: C_14  and  O_16
REMARK    8  A    between atoms: C_17  and  N_18
REMARK    9  A    between atoms: C_17  and  C_19
REMARK   10  A    between atoms: C_19  and  O_21
REMARK   11  A    between atoms: C_23  and  C_24
REMARK                            x       y       z     vdW  Elec       q    Type
REMARK                         _______ _______ _______ _____ _____    ______ ____
ROOT
ATOM      1  C   UNL     1       5.693   4.493  17.497  0.00  0.00    +0.000 C 
ATOM      2  C   UNL     1       5.781   5.361  18.768  0.00  0.00    +0.000 C 
ATOM      3  C   UNL     1       6.342   6.727  18.296  0.00  0.00    +0.000 C 
ATOM      4  C   UNL     1       7.117   6.404  16.962  0.00  0.00    +0.000 C 
ATOM      5  C   UNL     1       7.851   6.946  18.170  0.00  0.00    +0.000 C 
ATOM      6  C   UNL     1       6.994   4.869  16.743  0.00  0.00    +0.000 C 
ENDROOT
BRANCH   6   7
ATOM      7  N   UNL     1       8.169   4.158  17.294  0.00  0.00    +0.000 NA
ATOM      8  H   UNL     1       7.977   3.278  17.809  0.00  0.00    +0.000 HD
ATOM      9  H   UNL     1       8.709   4.789  17.931  0.00  0.00    +0.000 HD
ENDBRANCH   6   7
BRANCH   2  10
ATOM     10  O   UNL     1       6.612   4.754  19.723  0.00  0.00    +0.000 OA
ATOM     11  H   UNL     1       6.359   5.118  20.609  0.00  0.00    +0.000 HD
ENDBRANCH   2  10
BRANCH   5  12
ATOM     12  C   UNL     1       8.197   8.419  18.156  0.00  0.00    +0.000 C 
ATOM     13  O   UNL     1       7.775   9.157  17.280  0.00  0.00    +0.000 OA
BRANCH  12  14
ATOM     14  O   UNL     1       9.005   8.929  19.110  0.00  0.00    +0.000 OA
ATOM     15  H   UNL     1       9.565   9.702  18.949  0.00  0.00    +0.000 HD
ENDBRANCH  12  14
ENDBRANCH   5  12
BRANCH   6  16
ATOM     16  C   UNL     1       6.949   4.494  15.272  0.00  0.00    +0.000 C 
ATOM     17  O   UNL     1       7.467   5.210  14.427  0.00  0.00    +0.000 OA
BRANCH  16  18
ATOM     18  O   UNL     1       6.373   3.339  14.882  0.00  0.00    +0.000 OA
ATOM     19  H   UNL     1       6.216   2.614  15.505  0.00  0.00    +0.000 HD
ENDBRANCH  16  18
ENDBRANCH   6  16
BRANCH   1  20
ATOM     20  C   UNL     1       4.376   4.814  16.712  0.00  0.00    +0.000 C 
BRANCH  20  21
ATOM     21  S   UNL     1       2.956   4.042  17.589  0.00  0.00    +0.000 S 
BRANCH  21  26
ATOM     22  C   UNL     1       1.316   8.843  21.033  0.00  0.00    +0.000 C 
ATOM     23  C   UNL     1       1.692   7.668  20.163  0.00  0.00    +0.000 A 
ATOM     24  C   UNL     1       1.705   6.376  20.713  0.00  0.00    +0.000 A 
ATOM     25  C   UNL     1       2.063   5.270  19.934  0.00  0.00    +0.000 A 
ATOM     26  C   UNL     1       2.407   5.438  18.590  0.00  0.00    +0.000 A 
ATOM     27  C   UNL     1       2.396   6.722  18.030  0.00  0.00    +0.000 A 
ATOM     28  C   UNL     1       2.043   7.844  18.803  0.00  0.00    +0.000 A 
ATOM     29  C   UNL     1       2.063   9.216  18.176  0.00  0.00    +0.000 C 
ENDBRANCH  21  26
ENDBRANCH  20  21
ENDBRANCH   1  20
TORSDOF 9
ENDMDL
MODEL 3
REMARK VINA RESULT:      -7.6      1.319      1.961
REMARK  Name = 
REMARK  11 active torsions:
REMARK  status: ('A' for Active; 'I' for Inactive)
REMARK    1  A    between atoms: C_1  and  C_2
REMARK    2  A    between atoms: C_5  and  S_6
REMARK    3  A    between atoms: S_6  and  C_7
REMARK    4  A    between atoms: C_7  and  C_8
REMARK    5  A    between atoms: C_9  and  O_10
REMARK    6  A    between atoms: C_13  and  C_14
REMARK    7  A    between atoms: C_14  and  O_16
REMARK    8  A    between atoms: C_17  and  N_18
REMARK    9  A    between atoms: C_17  and  C_19
REMARK   10  A    between atoms: C_19  and  O_21
REMARK   11  A    between atoms: C_23  and  C_24
REMARK                            x       y       z     vdW  Elec       q    Type
REMARK                         _______ _______ _______ _____ _____    ______ ____
ROOT
ATOM      1  C   UNL     1       3.959   5.309  18.573  0.00  0.00    +0.000 C 
ATOM      2  C   UNL     1       5.155   6.135  18.062  0.00  0.00    +0.000 C 
ATOM      3  C   UNL     1       5.395   5.658  16.607  0.00  0.00    +0.000 C 
ATOM      4  C   UNL     1       4.781   4.206  16.555  0.00  0.00    +0.000 C 
ATOM      5  C   UNL     1       6.261   4.428  16.326  0.00  0.00    +0.000 C 
ATOM      6  C   UNL     1       4.246   3.904  17.983  0.00  0.00    +0.000 C 
ENDROOT
BRANCH   6   7
ATOM      7  N   UNL     1       5.251   3.171  18.783  0.00  0.00    +0.000 NA
ATOM      8  H   UNL     1       5.689   2.346  18.332  0.00  0.00    +0.000 HD
ATOM      9  H   UNL     1       4.831   2.852  19.688  0.00  0.00    +0.000 HD
ENDBRANCH   6   7
BRANCH   2  10
ATOM     10  O   UNL     1       6.281   5.929  18.874  0.00  0.00    +0.000 OA
ATOM     11  H   UNL     1       7.077   5.935  18.284  0.00  0.00    +0.000 HD
ENDBRANCH   2  10
BRANCH   5  12
ATOM     12  C   UNL     1       6.742   4.407  14.891  0.00  0.00    +0.000 C 
ATOM     13  O   UNL     1       7.506   5.262  14.471  0.00  0.00    +0.000 OA
BRANCH  12  14
ATOM     14  O   UNL     1       6.305   3.446  14.049  0.00  0.00    +0.000 OA
ATOM     15  H   UNL     1       5.861   3.658  13.216  0.00  0.00    +0.000 HD
ENDBRANCH  12  14
ENDBRANCH   5  12
BRANCH   6  16
ATOM     16  C   UNL     1       3.016   3.013  17.966  0.00  0.00    +0.000 C 
ATOM     17  O   UNL     1       2.662   2.414  18.971  0.00  0.00    +0.000 OA
BRANCH  16  18
ATOM     18  O   UNL     1       2.271   2.904  16.847  0.00  0.00    +0.000 OA
ATOM     19  H   UNL     1       2.313   2.118  16.282  0.00  0.00    +0.000 HD
ENDBRANCH  16  18
ENDBRANCH   6  16
BRANCH   1  20
ATOM     20  C   UNL     1       2.613   5.949  18.093  0.00  0.00    +0.000 C 
BRANCH  20  21
ATOM     21  S   UNL     1       2.849   7.762  17.903  0.00  0.00    +0.000 S 
BRANCH  21  26
ATOM     22  C   UNL     1      -0.489   9.943  22.561  0.00  0.00    +0.000 C 
ATOM     23  C   UNL     1       0.303   9.403  21.395  0.00  0.00    +0.000 A 
ATOM     24  C   UNL     1       1.048   8.223  21.552  0.00  0.00    +0.000 A 
ATOM     25  C   UNL     1       1.802   7.707  20.492  0.00  0.00    +0.000 A 
ATOM     26  C   UNL     1       1.817   8.359  19.256  0.00  0.00    +0.000 A 
ATOM     27  C   UNL     1       1.076   9.536  19.088  0.00  0.00    +0.000 A 
ATOM     28  C   UNL     1       0.318  10.070  20.146  0.00  0.00    +0.000 A 
ATOM     29  C   UNL     1      -0.451  11.350  19.939  0.00  0.00    +0.000 C 
ENDBRANCH  21  26
ENDBRANCH  20  21
ENDBRANCH   1  20
TORSDOF 9
ENDMDL
MODEL 4
REMARK VINA RESULT:      -7.6      2.402      4.624
REMARK  Name = 
REMARK  11 active torsions:
REMARK  status: ('A' for Active; 'I' for Inactive)
REMARK    1  A    between atoms: C_1  and  C_2
REMARK    2  A    between atoms: C_5  and  S_6
REMARK    3  A    between atoms: S_6  and  C_7
REMARK    4  A    between atoms: C_7  and  C_8
REMARK    5  A    between atoms: C_9  and  O_10
REMARK    6  A    between atoms: C_13  and  C_14
REMARK    7  A    between atoms: C_14  and  O_16
REMARK    8  A    between atoms: C_17  and  N_18
REMARK    9  A    between atoms: C_17  and  C_19
REMARK   10  A    between atoms: C_19  and  O_21
REMARK   11  A    between atoms: C_23  and  C_24
REMARK                            x       y       z     vdW  Elec       q    Type
REMARK                         _______ _______ _______ _____ _____    ______ ____
ROOT
ATOM      1  C   UNL     1       3.531   5.306  17.709  0.00  0.00    +0.000 C 
ATOM      2  C   UNL     1       2.084   4.916  18.069  0.00  0.00    +0.000 C 
ATOM      3  C   UNL     1       2.140   4.437  19.543  0.00  0.00    +0.000 C 
ATOM      4  C   UNL     1       3.634   3.985  19.761  0.00  0.00    +0.000 C 
ATOM      5  C   UNL     1       2.501   2.988  19.875  0.00  0.00    +0.000 C 
ATOM      6  C   UNL     1       4.360   4.194  18.402  0.00  0.00    +0.000 C 
ENDROOT
BRANCH   6   7
ATOM      7  N   UNL     1       4.370   2.946  17.607  0.00  0.00    +0.000 NA
ATOM      8  H   UNL     1       5.076   2.234  17.873  0.00  0.00    +0.000 HD
ATOM      9  H   UNL     1       4.506   3.164  16.592  0.00  0.00    +0.000 HD
ENDBRANCH   6   7
BRANCH   2  10
ATOM     10  O   UNL     1       1.616   3.911  17.208  0.00  0.00    +0.000 OA
ATOM     11  H   UNL     1       1.311   4.353  16.375  0.00  0.00    +0.000 HD
ENDBRANCH   2  10
BRANCH   5  12
ATOM     12  C   UNL     1       2.056   2.614  21.273  0.00  0.00    +0.000 C 
ATOM     13  O   UNL     1       2.861   2.238  22.110  0.00  0.00    +0.000 OA
BRANCH  12  14
ATOM     14  O   UNL     1       0.748   2.671  21.600  0.00  0.00    +0.000 OA
ATOM     15  H   UNL     1       0.260   1.891  21.902  0.00  0.00    +0.000 HD
ENDBRANCH  12  14
ENDBRANCH   5  12
BRANCH   6  16
ATOM     16  C   UNL     1       5.820   4.573  18.576  0.00  0.00    +0.000 C 
ATOM     17  O   UNL     1       6.224   5.045  19.629  0.00  0.00    +0.000 OA
BRANCH  16  18
ATOM     18  O   UNL     1       6.703   4.353  17.580  0.00  0.00    +0.000 OA
ATOM     19  H   UNL     1       7.576   3.970  17.750  0.00  0.00    +0.000 HD
ENDBRANCH  16  18
ENDBRANCH   6  16
BRANCH   1  20
ATOM     20  C   UNL     1       3.844   6.755  18.216  0.00  0.00    +0.000 C 
BRANCH  20  21
ATOM     21  S   UNL     1       2.624   7.919  17.482  0.00  0.00    +0.000 S 
BRANCH  21  26
ATOM     22  C   UNL     1      -0.136   9.894  22.588  0.00  0.00    +0.000 C 
ATOM     23  C   UNL     1       0.511   9.404  21.316  0.00  0.00    +0.000 A 
ATOM     24  C   UNL     1       1.306   8.247  21.345  0.00  0.00    +0.000 A 
ATOM     25  C   UNL     1       1.929   7.777  20.184  0.00  0.00    +0.000 A 
ATOM     26  C   UNL     1       1.761   8.453  18.973  0.00  0.00    +0.000 A 
ATOM     27  C   UNL     1       0.969   9.608  18.931  0.00  0.00    +0.000 A 
ATOM     28  C   UNL     1       0.340  10.095  20.092  0.00  0.00    +0.000 A 
ATOM     29  C   UNL     1      -0.488  11.353  20.018  0.00  0.00    +0.000 C 
ENDBRANCH  21  26
ENDBRANCH  20  21
ENDBRANCH   1  20
TORSDOF 9
ENDMDL
MODEL 5
REMARK VINA RESULT:      -7.6      0.944      1.873
REMARK  Name = 
REMARK  11 active torsions:
REMARK  status: ('A' for Active; 'I' for Inactive)
REMARK    1  A    between atoms: C_1  and  C_2
REMARK    2  A    between atoms: C_5  and  S_6
REMARK    3  A    between atoms: S_6  and  C_7
REMARK    4  A    between atoms: C_7  and  C_8
REMARK    5  A    between atoms: C_9  and  O_10
REMARK    6  A    between atoms: C_13  and  C_14
REMARK    7  A    between atoms: C_14  and  O_16
REMARK    8  A    between atoms: C_17  and  N_18
REMARK    9  A    between atoms: C_17  and  C_19
REMARK   10  A    between atoms: C_19  and  O_21
REMARK   11  A    between atoms: C_23  and  C_24
REMARK                            x       y       z     vdW  Elec       q    Type
REMARK                         _______ _______ _______ _____ _____    ______ ____
ROOT
ATOM      1  C   UNL     1       4.603   5.858  18.249  0.00  0.00    +0.000 C 
ATOM      2  C   UNL     1       5.457   6.730  17.308  0.00  0.00    +0.000 C 
ATOM      3  C   UNL     1       5.483   5.973  15.955  0.00  0.00    +0.000 C 
ATOM      4  C   UNL     1       5.201   4.468  16.332  0.00  0.00    +0.000 C 
ATOM      5  C   UNL     1       6.516   4.874  15.700  0.00  0.00    +0.000 C 
ATOM      6  C   UNL     1       5.056   4.423  17.879  0.00  0.00    +0.000 C 
ENDROOT
BRANCH   6   7
ATOM      7  N   UNL     1       6.341   4.073  18.524  0.00  0.00    +0.000 NA
ATOM      8  H   UNL     1       7.203   4.367  18.026  0.00  0.00    +0.000 HD
ATOM      9  H   UNL     1       6.400   3.039  18.677  0.00  0.00    +0.000 HD
ENDBRANCH   6   7
BRANCH   2  10
ATOM     10  O   UNL     1       6.745   6.909  17.834  0.00  0.00    +0.000 OA
ATOM     11  H   UNL     1       6.834   7.865  18.082  0.00  0.00    +0.000 HD
ENDBRANCH   2  10
BRANCH   5  12
ATOM     12  C   UNL     1       6.678   4.599  14.221  0.00  0.00    +0.000 C 
ATOM     13  O   UNL     1       6.060   3.698  13.676  0.00  0.00    +0.000 OA
BRANCH  12  14
ATOM     14  O   UNL     1       7.536   5.341  13.489  0.00  0.00    +0.000 OA
ATOM     15  H   UNL     1       7.232   6.040  12.893  0.00  0.00    +0.000 HD
ENDBRANCH  12  14
ENDBRANCH   5  12
BRANCH   6  16
ATOM     16  C   UNL     1       4.073   3.360  18.339  0.00  0.00    +0.000 C 
ATOM     17  O   UNL     1       3.445   2.695  17.528  0.00  0.00    +0.000 OA
BRANCH  16  18
ATOM     18  O   UNL     1       3.912   3.106  19.654  0.00  0.00    +0.000 OA
ATOM     19  H   UNL     1       4.650   2.814  20.209  0.00  0.00    +0.000 HD
ENDBRANCH  16  18
ENDBRANCH   6  16
BRANCH   1  20
ATOM     20  C   UNL     1       3.080   6.136  18.012  0.00  0.00    +0.000 C 
BRANCH  20  21
ATOM     21  S   UNL     1       2.844   7.931  17.694  0.00  0.00    +0.000 S 
BRANCH  21  26
ATOM     22  C   UNL     1      -0.416   9.593  22.614  0.00  0.00    +0.000 C 
ATOM     23  C   UNL     1       0.356   9.182  21.384  0.00  0.00    +0.000 A 
ATOM     24  C   UNL     1       1.134   8.013  21.414  0.00  0.00    +0.000 A 
ATOM     25  C   UNL     1       1.871   7.614  20.293  0.00  0.00    +0.000 A 
ATOM     26  C   UNL     1       1.835   8.375  19.121  0.00  0.00    +0.000 A 
ATOM     27  C   UNL     1       1.061   9.543  19.079  0.00  0.00    +0.000 A 
ATOM     28  C   UNL     1       0.320   9.959  20.201  0.00  0.00    +0.000 A 
ATOM     29  C   UNL     1      -0.485  11.231  20.130  0.00  0.00    +0.000 C 
ENDBRANCH  21  26
ENDBRANCH  20  21
ENDBRANCH   1  20
TORSDOF 9
ENDMDL
MODEL 6
REMARK VINA RESULT:      -7.5      1.853      2.667
REMARK  Name = 
REMARK  11 active torsions:
REMARK  status: ('A' for Active; 'I' for Inactive)
REMARK    1  A    between atoms: C_1  and  C_2
REMARK    2  A    between atoms: C_5  and  S_6
REMARK    3  A    between atoms: S_6  and  C_7
REMARK    4  A    between atoms: C_7  and  C_8
REMARK    5  A    between atoms: C_9  and  O_10
REMARK    6  A    between atoms: C_13  and  C_14
REMARK    7  A    between atoms: C_14  and  O_16
REMARK    8  A    between atoms: C_17  and  N_18
REMARK    9  A    between atoms: C_17  and  C_19
REMARK   10  A    between atoms: C_19  and  O_21
REMARK   11  A    between atoms: C_23  and  C_24
REMARK                            x       y       z     vdW  Elec       q    Type
REMARK                         _______ _______ _______ _____ _____    ______ ____
ROOT
ATOM      1  C   UNL     1       5.522   5.771  17.391  0.00  0.00    +0.000 C 
ATOM      2  C   UNL     1       4.800   5.926  16.038  0.00  0.00    +0.000 C 
ATOM      3  C   UNL     1       5.422   4.848  15.113  0.00  0.00    +0.000 C 
ATOM      4  C   UNL     1       6.844   4.561  15.731  0.00  0.00    +0.000 C 
ATOM      5  C   UNL     1       6.710   5.139  14.339  0.00  0.00    +0.000 C 
ATOM      6  C   UNL     1       6.987   5.503  16.961  0.00  0.00    +0.000 C 
ENDROOT
BRANCH   6   7
ATOM      7  N   UNL     1       7.685   6.754  16.593  0.00  0.00    +0.000 NA
ATOM      8  H   UNL     1       8.464   6.667  15.913  0.00  0.00    +0.000 HD
ATOM      9  H   UNL     1       8.063   7.224  17.450  0.00  0.00    +0.000 HD
ENDBRANCH   6   7
BRANCH   2  10
ATOM     10  O   UNL     1       4.978   7.221  15.529  0.00  0.00    +0.000 OA
ATOM     11  H   UNL     1       4.896   7.852  16.290  0.00  0.00    +0.000 HD
ENDBRANCH   2  10
BRANCH   5  12
ATOM     12  C   UNL     1       6.887   4.182  13.180  0.00  0.00    +0.000 C 
ATOM     13  O   UNL     1       7.518   4.506  12.187  0.00  0.00    +0.000 OA
BRANCH  12  14
ATOM     14  O   UNL     1       6.320   2.958  13.227  0.00  0.00    +0.000 OA
ATOM     15  H   UNL     1       6.534   2.319  13.921  0.00  0.00    +0.000 HD
ENDBRANCH  12  14
ENDBRANCH   5  12
BRANCH   6  16
ATOM     16  C   UNL     1       7.821   4.887  18.070  0.00  0.00    +0.000 C 
ATOM     17  O   UNL     1       8.563   3.941  17.845  0.00  0.00    +0.000 OA
BRANCH  16  18
ATOM     18  O   UNL     1       7.787   5.406  19.314  0.00  0.00    +0.000 OA
ATOM     19  H   UNL     1       7.311   6.226  19.511  0.00  0.00    +0.000 HD
ENDBRANCH  16  18
ENDBRANCH   6  16
BRANCH   1  20
ATOM     20  C   UNL     1       4.872   4.615  18.224  0.00  0.00    +0.000 C 
BRANCH  20  21
ATOM     21  S   UNL     1       3.089   4.496  17.788  0.00  0.00    +0.000 S 
BRANCH  21  26
ATOM     22  C   UNL     1       1.100   9.289  21.053  0.00  0.00    +0.000 C 
ATOM     23  C   UNL     1       1.561   8.113  20.228  0.00  0.00    +0.000 A 
ATOM     24  C   UNL     1       1.704   6.855  20.835  0.00  0.00    +0.000 A 
ATOM     25  C   UNL     1       2.143   5.750  20.098  0.00  0.00    +0.000 A 
ATOM     26  C   UNL     1       2.439   5.883  18.739  0.00  0.00    +0.000 A 
ATOM     27  C   UNL     1       2.298   7.134  18.121  0.00  0.00    +0.000 A 
ATOM     28  C   UNL     1       1.863   8.255  18.852  0.00  0.00    +0.000 A 
ATOM     29  C   UNL     1       1.743   9.591  18.163  0.00  0.00    +0.000 C 
ENDBRANCH  21  26
ENDBRANCH  20  21
ENDBRANCH   1  20
TORSDOF 9
ENDMDL
MODEL 7
REMARK VINA RESULT:      -7.5      1.492      1.719
REMARK  Name = 
REMARK  11 active torsions:
REMARK  status: ('A' for Active; 'I' for Inactive)
REMARK    1  A    between atoms: C_1  and  C_2
REMARK    2  A    between atoms: C_5  and  S_6
REMARK    3  A    between atoms: S_6  and  C_7
REMARK    4  A    between atoms: C_7  and  C_8
REMARK    5  A    between atoms: C_9  and  O_10
REMARK    6  A    between atoms: C_13  and  C_14
REMARK    7  A    between atoms: C_14  and  O_16
REMARK    8  A    between atoms: C_17  and  N_18
REMARK    9  A    between atoms: C_17  and  C_19
REMARK   10  A    between atoms: C_19  and  O_21
REMARK   11  A    between atoms: C_23  and  C_24
REMARK                            x       y       z     vdW  Elec       q    Type
REMARK                         _______ _______ _______ _____ _____    ______ ____
ROOT
ATOM      1  C   UNL     1       4.204   5.118  19.343  0.00  0.00    +0.000 C 
ATOM      2  C   UNL     1       5.550   5.768  18.968  0.00  0.00    +0.000 C 
ATOM      3  C   UNL     1       5.695   5.565  17.438  0.00  0.00    +0.000 C 
ATOM      4  C   UNL     1       4.792   4.314  17.113  0.00  0.00    +0.000 C 
ATOM      5  C   UNL     1       6.287   4.268  16.880  0.00  0.00    +0.000 C 
ATOM      6  C   UNL     1       4.194   3.839  18.468  0.00  0.00    +0.000 C 
ENDROOT
BRANCH   6   7
ATOM      7  N   UNL     1       5.018   2.764  19.064  0.00  0.00    +0.000 NA
ATOM      8  H   UNL     1       5.622   3.033  19.864  0.00  0.00    +0.000 HD
ATOM      9  H   UNL     1       5.632   2.331  18.335  0.00  0.00    +0.000 HD
ENDBRANCH   6   7
BRANCH   2  10
ATOM     10  O   UNL     1       6.602   5.171  19.680  0.00  0.00    +0.000 OA
ATOM     11  H   UNL     1       6.565   5.515  20.609  0.00  0.00    +0.000 HD
ENDBRANCH   2  10
BRANCH   5  12
ATOM     12  C   UNL     1       6.763   4.447  15.455  0.00  0.00    +0.000 C 
ATOM     13  O   UNL     1       7.488   5.379  15.146  0.00  0.00    +0.000 OA
BRANCH  12  14
ATOM     14  O   UNL     1       6.364   3.581  14.499  0.00  0.00    +0.000 OA
ATOM     15  H   UNL     1       6.994   3.044  13.998  0.00  0.00    +0.000 HD
ENDBRANCH  12  14
ENDBRANCH   5  12
BRANCH   6  16
ATOM     16  C   UNL     1       2.806   3.243  18.313  0.00  0.00    +0.000 C 
ATOM     17  O   UNL     1       2.235   2.729  19.265  0.00  0.00    +0.000 OA
BRANCH  16  18
ATOM     18  O   UNL     1       2.164   3.313  17.129  0.00  0.00    +0.000 OA
ATOM     19  H   UNL     1       2.554   3.763  16.366  0.00  0.00    +0.000 HD
ENDBRANCH  16  18
ENDBRANCH   6  16
BRANCH   1  20
ATOM     20  C   UNL     1       3.024   6.107  19.053  0.00  0.00    +0.000 C 
BRANCH  20  21
ATOM     21  S   UNL     1       1.948   6.204  20.541  0.00  0.00    +0.000 S 
BRANCH  21  26
ATOM     22  C   UNL     1      -0.050  11.987  20.149  0.00  0.00    +0.000 C 
ATOM     23  C   UNL     1       0.463  10.573  20.273  0.00  0.00    +0.000 A 
ATOM     24  C   UNL     1       1.125   9.980  19.186  0.00  0.00    +0.000 A 
ATOM     25  C   UNL     1       1.600   8.666  19.268  0.00  0.00    +0.000 A 
ATOM     26  C   UNL     1       1.425   7.927  20.441  0.00  0.00    +0.000 A 
ATOM     27  C   UNL     1       0.767   8.509  21.533  0.00  0.00    +0.000 A 
ATOM     28  C   UNL     1       0.281   9.828  21.463  0.00  0.00    +0.000 A 
ATOM     29  C   UNL     1      -0.442  10.418  22.647  0.00  0.00    +0.000 C 
ENDBRANCH  21  26
ENDBRANCH  20  21
ENDBRANCH   1  20
TORSDOF 9
ENDMDL
MODEL 8
REMARK VINA RESULT:      -7.4      1.753      3.324
REMARK  Name = 
REMARK  11 active torsions:
REMARK  status: ('A' for Active; 'I' for Inactive)
REMARK    1  A    between atoms: C_1  and  C_2
REMARK    2  A    between atoms: C_5  and  S_6
REMARK    3  A    between atoms: S_6  and  C_7
REMARK    4  A    between atoms: C_7  and  C_8
REMARK    5  A    between atoms: C_9  and  O_10
REMARK    6  A    between atoms: C_13  and  C_14
REMARK    7  A    between atoms: C_14  and  O_16
REMARK    8  A    between atoms: C_17  and  N_18
REMARK    9  A    between atoms: C_17  and  C_19
REMARK   10  A    between atoms: C_19  and  O_21
REMARK   11  A    between atoms: C_23  and  C_24
REMARK                            x       y       z     vdW  Elec       q    Type
REMARK                         _______ _______ _______ _____ _____    ______ ____
ROOT
ATOM      1  C   UNL     1       5.722   4.475  18.030  0.00  0.00    +0.000 C 
ATOM      2  C   UNL     1       6.032   5.381  19.238  0.00  0.00    +0.000 C 
ATOM      3  C   UNL     1       6.446   6.748  18.633  0.00  0.00    +0.000 C 
ATOM      4  C   UNL     1       6.953   6.406  17.180  0.00  0.00    +0.000 C 
ATOM      5  C   UNL     1       7.894   7.001  18.206  0.00  0.00    +0.000 C 
ATOM      6  C   UNL     1       6.837   4.863  17.025  0.00  0.00    +0.000 C 
ENDROOT
BRANCH   6   7
ATOM      7  N   UNL     1       8.118   4.198  17.349  0.00  0.00    +0.000 NA
ATOM      8  H   UNL     1       8.945   4.491  16.794  0.00  0.00    +0.000 HD
ATOM      9  H   UNL     1       8.023   3.160  17.252  0.00  0.00    +0.000 HD
ENDBRANCH   6   7
BRANCH   2  10
ATOM     10  O   UNL     1       7.053   4.824  20.023  0.00  0.00    +0.000 OA
ATOM     11  H   UNL     1       7.036   5.284  20.901  0.00  0.00    +0.000 HD
ENDBRANCH   2  10
BRANCH   5  12
ATOM     12  C   UNL     1       8.184   8.482  18.090  0.00  0.00    +0.000 C 
ATOM     13  O   UNL     1       7.717   9.146  17.179  0.00  0.00    +0.000 OA
BRANCH  12  14
ATOM     14  O   UNL     1       8.994   9.080  18.990  0.00  0.00    +0.000 OA
ATOM     15  H   UNL     1       9.285   8.632  19.796  0.00  0.00    +0.000 HD
ENDBRANCH  12  14
ENDBRANCH   5  12
BRANCH   6  16
ATOM     16  C   UNL     1       6.515   4.445  15.601  0.00  0.00    +0.000 C 
ATOM     17  O   UNL     1       6.577   5.250  14.682  0.00  0.00    +0.000 OA
BRANCH  16  18
ATOM     18  O   UNL     1       6.197   3.164  15.324  0.00  0.00    +0.000 OA
ATOM     19  H   UNL     1       6.436   2.440  15.921  0.00  0.00    +0.000 HD
ENDBRANCH  16  18
ENDBRANCH   6  16
BRANCH   1  20
ATOM     20  C   UNL     1       4.267   4.739  17.513  0.00  0.00    +0.000 C 
BRANCH  20  21
ATOM     21  S   UNL     1       3.111   4.700  18.943  0.00  0.00    +0.000 S 
BRANCH  21  26
ATOM     22  C   UNL     1       1.095  10.491  18.990  0.00  0.00    +0.000 C 
ATOM     23  C   UNL     1       1.614   9.073  19.005  0.00  0.00    +0.000 A 
ATOM     24  C   UNL     1       2.206   8.541  17.848  0.00  0.00    +0.000 A 
ATOM     25  C   UNL     1       2.684   7.226  17.829  0.00  0.00    +0.000 A 
ATOM     26  C   UNL     1       2.583   6.425  18.969  0.00  0.00    +0.000 A 
ATOM     27  C   UNL     1       1.996   6.946  20.130  0.00  0.00    +0.000 A 
ATOM     28  C   UNL     1       1.506   8.265  20.162  0.00  0.00    +0.000 A 
ATOM     29  C   UNL     1       0.859   8.788  21.419  0.00  0.00    +0.000 C 
ENDBRANCH  21  26
ENDBRANCH  20  21
ENDBRANCH   1  20
TORSDOF 9
ENDMDL
MODEL 9
REMARK VINA RESULT:      -7.4      0.604      1.404
REMARK  Name = 
REMARK  11 active torsions:
REMARK  status: ('A' for Active; 'I' for Inactive)
REMARK    1  A    between atoms: C_1  and  C_2
REMARK    2  A    between atoms: C_5  and  S_6
REMARK    3  A    between atoms: S_6  and  C_7
REMARK    4  A    between atoms: C_7  and  C_8
REMARK    5  A    between atoms: C_9  and  O_10
REMARK    6  A    between atoms: C_13  and  C_14
REMARK    7  A    between atoms: C_14  and  O_16
REMARK    8  A    between atoms: C_17  and  N_18
REMARK    9  A    between atoms: C_17  and  C_19
REMARK   10  A    between atoms: C_19  and  O_21
REMARK   11  A    between atoms: C_23  and  C_24
REMARK                            x       y       z     vdW  Elec       q    Type
REMARK                         _______ _______ _______ _____ _____    ______ ____
ROOT
ATOM      1  C   UNL     1       4.875   5.743  18.200  0.00  0.00    +0.000 C 
ATOM      2  C   UNL     1       5.454   6.682  17.124  0.00  0.00    +0.000 C 
ATOM      3  C   UNL     1       5.541   5.829  15.833  0.00  0.00    +0.000 C 
ATOM      4  C   UNL     1       5.611   4.338  16.342  0.00  0.00    +0.000 C 
ATOM      5  C   UNL     1       6.761   4.944  15.567  0.00  0.00    +0.000 C 
ATOM      6  C   UNL     1       5.592   4.403  17.896  0.00  0.00    +0.000 C 
ENDROOT
BRANCH   6   7
ATOM      7  N   UNL     1       6.966   4.382  18.445  0.00  0.00    +0.000 NA
ATOM      8  H   UNL     1       7.615   3.679  18.043  0.00  0.00    +0.000 HD
ATOM      9  H   UNL     1       6.940   4.235  19.481  0.00  0.00    +0.000 HD
ENDBRANCH   6   7
BRANCH   2  10
ATOM     10  O   UNL     1       6.711   7.167  17.518  0.00  0.00    +0.000 OA
ATOM     11  H   UNL     1       7.332   6.394  17.544  0.00  0.00    +0.000 HD
ENDBRANCH   2  10
BRANCH   5  12
ATOM     12  C   UNL     1       6.869   4.577  14.103  0.00  0.00    +0.000 C 
ATOM     13  O   UNL     1       7.449   5.304  13.312  0.00  0.00    +0.000 OA
BRANCH  12  14
ATOM     14  O   UNL     1       6.294   3.443  13.650  0.00  0.00    +0.000 OA
ATOM     15  H   UNL     1       5.809   3.412  12.813  0.00  0.00    +0.000 HD
ENDBRANCH  12  14
ENDBRANCH   5  12
BRANCH   6  16
ATOM     16  C   UNL     1       4.892   3.207  18.518  0.00  0.00    +0.000 C 
ATOM     17  O   UNL     1       4.998   2.971  19.713  0.00  0.00    +0.000 OA
BRANCH  16  18
ATOM     18  O   UNL     1       4.106   2.412  17.765  0.00  0.00    +0.000 OA
ATOM     19  H   UNL     1       3.151   2.557  17.699  0.00  0.00    +0.000 HD
ENDBRANCH  16  18
ENDBRANCH   6  16
BRANCH   1  20
ATOM     20  C   UNL     1       3.314   5.681  18.082  0.00  0.00    +0.000 C 
BRANCH  20  21
ATOM     21  S   UNL     1       2.593   5.577  19.770  0.00  0.00    +0.000 S 
BRANCH  21  26
ATOM     22  C   UNL     1       0.397  11.275  20.321  0.00  0.00    +0.000 C 
ATOM     23  C   UNL     1       0.917   9.867  20.157  0.00  0.00    +0.000 A 
ATOM     24  C   UNL     1       0.737   8.938  21.194  0.00  0.00    +0.000 A 
ATOM     25  C   UNL     1       1.219   7.630  21.075  0.00  0.00    +0.000 A 
ATOM     26  C   UNL     1       1.884   7.229  19.913  0.00  0.00    +0.000 A 
ATOM     27  C   UNL     1       2.069   8.148  18.871  0.00  0.00    +0.000 A 
ATOM     28  C   UNL     1       1.593   9.468  18.979  0.00  0.00    +0.000 A 
ATOM     29  C   UNL     1       1.826  10.438  17.849  0.00  0.00    +0.000 C 
ENDBRANCH  21  26
ENDBRANCH  20  21
ENDBRANCH   1  20
TORSDOF 9
ENDMDL
