MODEL 1
REMARK VINA RESULT:      -8.5      0.000      0.000
REMARK  Name = 
REMARK  8 active torsions:
REMARK  status: ('A' for Active; 'I' for Inactive)
REMARK    1  A    between atoms: C_1  and  C_2
REMARK    2  A    between atoms: C_6  and  O_7
REMARK    3  A    between atoms: O_7  and  C_8
REMARK    4  A    between atoms: C_8  and  C_9
REMARK    5  A    between atoms: C_9  and  N_10
REMARK    6  A    between atoms: N_10  and  C_11
REMARK    7  A    between atoms: C_14  and  C_15
REMARK    8  A    between atoms: C_20  and  N_21
REMARK                            x       y       z     vdW  Elec       q    Type
REMARK                         _______ _______ _______ _____ _____    ______ ____
ROOT
ATOM      1  C   UNL     1       5.678   6.521  17.090  0.00  0.00    +0.000 A 
ATOM      2  C   UNL     1       4.374   6.848  17.505  0.00  0.00    +0.000 A 
ATOM      3  C   UNL     1       3.401   5.873  17.748  0.00  0.00    +0.000 A 
ATOM      4  C   UNL     1       3.682   4.520  17.553  0.00  0.00    +0.000 A 
ATOM      5  C   UNL     1       4.960   4.164  17.101  0.00  0.00    +0.000 A 
ATOM      6  C   UNL     1       5.944   5.149  16.861  0.00  0.00    +0.000 A 
ENDROOT
BRANCH   4   7
ATOM      7  C   UNL     1       2.641   3.458  17.814  0.00  0.00    +0.000 C 
ATOM      8  F   UNL     1       2.844   2.315  17.103  0.00  0.00    +0.000 F 
ATOM      9  F   UNL     1       2.602   3.086  19.121  0.00  0.00    +0.000 F 
ATOM     10  F   UNL     1       1.386   3.878  17.501  0.00  0.00    +0.000 F 
ENDBRANCH   4   7
BRANCH   6  11
ATOM     11  N   UNL     1       7.268   4.683  16.401  0.00  0.00    +0.000 N 
ATOM     12  O   UNL     1       8.054   4.206  17.237  0.00  0.00    +0.000 OA
ATOM     13  O   UNL     1       7.519   4.770  15.190  0.00  0.00    +0.000 OA
ENDBRANCH   6  11
BRANCH   1  14
ATOM     14  N   UNL     1       6.598   7.542  16.812  0.00  0.00    +0.000 N 
ATOM     15  H   UNL     1       6.852   7.571  15.817  0.00  0.00    +0.000 HD
BRANCH  14  16
ATOM     16  C   UNL     1       7.738   7.752  17.711  0.00  0.00    +0.000 C 
BRANCH  16  17
ATOM     17  C   UNL     1       8.120   9.232  17.768  0.00  0.00    +0.000 C 
BRANCH  17  18
ATOM     18  O   UNL     1       8.795   9.491  18.999  0.00  0.00    +0.000 OA
BRANCH  18  24
ATOM     19  C   UNL     1      11.195  13.285  16.879  0.00  0.00    +0.000 C 
ATOM     20  C   UNL     1      10.745  12.528  18.093  0.00  0.00    +0.000 A 
ATOM     21  C   UNL     1      11.077  12.955  19.382  0.00  0.00    +0.000 A 
ATOM     22  C   UNL     1      10.648  12.231  20.493  0.00  0.00    +0.000 A 
ATOM     23  C   UNL     1       9.885  11.075  20.322  0.00  0.00    +0.000 A 
ATOM     24  C   UNL     1       9.545  10.636  19.042  0.00  0.00    +0.000 A 
ATOM     25  C   UNL     1       9.978  11.366  17.932  0.00  0.00    +0.000 A 
ENDBRANCH  18  24
ENDBRANCH  17  18
ENDBRANCH  16  17
ENDBRANCH  14  16
ENDBRANCH   1  14
TORSDOF 7
ENDMDL
MODEL 2
REMARK VINA RESULT:      -8.0      0.977      1.284
REMARK  Name = 
REMARK  8 active torsions:
REMARK  status: ('A' for Active; 'I' for Inactive)
REMARK    1  A    between atoms: C_1  and  C_2
REMARK    2  A    between atoms: C_6  and  O_7
REMARK    3  A    between atoms: O_7  and  C_8
REMARK    4  A    between atoms: C_8  and  C_9
REMARK    5  A    between atoms: C_9  and  N_10
REMARK    6  A    between atoms: N_10  and  C_11
REMARK    7  A    between atoms: C_14  and  C_15
REMARK    8  A    between atoms: C_20  and  N_21
REMARK                            x       y       z     vdW  Elec       q    Type
REMARK                         _______ _______ _______ _____ _____    ______ ____
ROOT
ATOM      1  C   UNL     1       6.163   5.568  17.724  0.00  0.00    +0.000 A 
ATOM      2  C   UNL     1       5.240   5.828  18.754  0.00  0.00    +0.000 A 
ATOM      3  C   UNL     1       3.988   5.207  18.807  0.00  0.00    +0.000 A 
ATOM      4  C   UNL     1       3.588   4.319  17.808  0.00  0.00    +0.000 A 
ATOM      5  C   UNL     1       4.469   4.070  16.747  0.00  0.00    +0.000 A 
ATOM      6  C   UNL     1       5.736   4.693  16.696  0.00  0.00    +0.000 A 
ENDROOT
BRANCH   4   7
ATOM      7  C   UNL     1       2.239   3.641  17.855  0.00  0.00    +0.000 C 
ATOM      8  F   UNL     1       1.228   4.414  17.371  0.00  0.00    +0.000 F 
ATOM      9  F   UNL     1       2.215   2.492  17.130  0.00  0.00    +0.000 F 
ATOM     10  F   UNL     1       1.878   3.300  19.121  0.00  0.00    +0.000 F 
ENDBRANCH   4   7
BRANCH   6  11
ATOM     11  N   UNL     1       6.607   4.361  15.550  0.00  0.00    +0.000 N 
ATOM     12  O   UNL     1       7.823   4.600  15.638  0.00  0.00    +0.000 OA
ATOM     13  O   UNL     1       6.078   3.833  14.561  0.00  0.00    +0.000 OA
ENDBRANCH   6  11
BRANCH   1  14
ATOM     14  N   UNL     1       7.384   6.257  17.693  0.00  0.00    +0.000 N 
ATOM     15  H   UNL     1       7.990   6.004  18.483  0.00  0.00    +0.000 HD
BRANCH  14  16
ATOM     16  C   UNL     1       7.396   7.691  17.385  0.00  0.00    +0.000 C 
BRANCH  16  17
ATOM     17  C   UNL     1       8.378   8.434  18.293  0.00  0.00    +0.000 C 
BRANCH  17  18
ATOM     18  O   UNL     1       8.212   9.840  18.105  0.00  0.00    +0.000 OA
BRANCH  18  24
ATOM     19  C   UNL     1      12.080  12.896  17.509  0.00  0.00    +0.000 C 
ATOM     20  C   UNL     1      11.127  12.134  18.384  0.00  0.00    +0.000 A 
ATOM     21  C   UNL     1      11.222  12.184  19.778  0.00  0.00    +0.000 A 
ATOM     22  C   UNL     1      10.326  11.465  20.568  0.00  0.00    +0.000 A 
ATOM     23  C   UNL     1       9.331  10.691  19.967  0.00  0.00    +0.000 A 
ATOM     24  C   UNL     1       9.224  10.631  18.577  0.00  0.00    +0.000 A 
ATOM     25  C   UNL     1      10.126  11.354  17.792  0.00  0.00    +0.000 A 
ENDBRANCH  18  24
ENDBRANCH  17  18
ENDBRANCH  16  17
ENDBRANCH  14  16
ENDBRANCH   1  14
TORSDOF 7
ENDMDL
MODEL 3
REMARK VINA RESULT:      -7.9      0.854      1.734
REMARK  Name = 
REMARK  8 active torsions:
REMARK  status: ('A' for Active; 'I' for Inactive)
REMARK    1  A    between atoms: C_1  and  C_2
REMARK    2  A    between atoms: C_6  and  O_7
REMARK    3  A    between atoms: O_7  and  C_8
REMARK    4  A    between atoms: C_8  and  C_9
REMARK    5  A    between atoms: C_9  and  N_10
REMARK    6  A    between atoms: N_10  and  C_11
REMARK    7  A    between atoms: C_14  and  C_15
REMARK    8  A    between atoms: C_20  and  N_21
REMARK                            x       y       z     vdW  Elec       q    Type
REMARK                         _______ _______ _______ _____ _____    ______ ____
ROOT
ATOM      1  C   UNL     1       5.740   6.574  17.116  0.00  0.00    +0.000 A 
ATOM      2  C   UNL     1       4.467   6.981  17.554  0.00  0.00    +0.000 A 
ATOM      3  C   UNL     1       3.420   6.073  17.749  0.00  0.00    +0.000 A 
ATOM      4  C   UNL     1       3.594   4.715  17.480  0.00  0.00    +0.000 A 
ATOM      5  C   UNL     1       4.839   4.284  17.004  0.00  0.00    +0.000 A 
ATOM      6  C   UNL     1       5.898   5.200  16.812  0.00  0.00    +0.000 A 
ENDROOT
BRANCH   4   7
ATOM      7  C   UNL     1       2.472   3.725  17.689  0.00  0.00    +0.000 C 
ATOM      8  F   UNL     1       2.526   2.660  16.842  0.00  0.00    +0.000 F 
ATOM      9  F   UNL     1       2.470   3.207  18.945  0.00  0.00    +0.000 F 
ATOM     10  F   UNL     1       1.248   4.288  17.508  0.00  0.00    +0.000 F 
ENDBRANCH   4   7
BRANCH   6  11
ATOM     11  N   UNL     1       7.181   4.658  16.322  0.00  0.00    +0.000 N 
ATOM     12  O   UNL     1       7.989   4.203  17.148  0.00  0.00    +0.000 OA
ATOM     13  O   UNL     1       7.375   4.661  15.097  0.00  0.00    +0.000 OA
ENDBRANCH   6  11
BRANCH   1  14
ATOM     14  N   UNL     1       6.738   7.534  16.888  0.00  0.00    +0.000 N 
ATOM     15  H   UNL     1       7.093   7.499  15.926  0.00  0.00    +0.000 HD
BRANCH  14  16
ATOM     16  C   UNL     1       7.789   7.734  17.892  0.00  0.00    +0.000 C 
BRANCH  16  17
ATOM     17  C   UNL     1       8.288   9.180  17.875  0.00  0.00    +0.000 C 
BRANCH  17  18
ATOM     18  O   UNL     1       9.191   9.373  18.964  0.00  0.00    +0.000 OA
BRANCH  18  24
ATOM     19  C   UNL     1       9.129  12.686  22.661  0.00  0.00    +0.000 C 
ATOM     20  C   UNL     1       9.252  12.341  21.206  0.00  0.00    +0.000 A 
ATOM     21  C   UNL     1       9.454  13.330  20.238  0.00  0.00    +0.000 A 
ATOM     22  C   UNL     1       9.562  12.982  18.893  0.00  0.00    +0.000 A 
ATOM     23  C   UNL     1       9.468  11.644  18.507  0.00  0.00    +0.000 A 
ATOM     24  C   UNL     1       9.267  10.646  19.461  0.00  0.00    +0.000 A 
ATOM     25  C   UNL     1       9.159  11.001  20.808  0.00  0.00    +0.000 A 
ENDBRANCH  18  24
ENDBRANCH  17  18
ENDBRANCH  16  17
ENDBRANCH  14  16
ENDBRANCH   1  14
TORSDOF 7
ENDMDL
MODEL 4
REMARK VINA RESULT:      -7.8      5.339      6.841
REMARK  Name = 
REMARK  8 active torsions:
REMARK  status: ('A' for Active; 'I' for Inactive)
REMARK    1  A    between atoms: C_1  and  C_2
REMARK    2  A    between atoms: C_6  and  O_7
REMARK    3  A    between atoms: O_7  and  C_8
REMARK    4  A    between atoms: C_8  and  C_9
REMARK    5  A    between atoms: C_9  and  N_10
REMARK    6  A    between atoms: N_10  and  C_11
REMARK    7  A    between atoms: C_14  and  C_15
REMARK    8  A    between atoms: C_20  and  N_21
REMARK                            x       y       z     vdW  Elec       q    Type
REMARK                         _______ _______ _______ _____ _____    ______ ____
ROOT
ATOM      1  C   UNL     1       2.129   4.373  20.012  0.00  0.00    +0.000 A 
ATOM      2  C   UNL     1       2.426   5.574  20.682  0.00  0.00    +0.000 A 
ATOM      3  C   UNL     1       2.402   6.814  20.036  0.00  0.00    +0.000 A 
ATOM      4  C   UNL     1       2.110   6.905  18.674  0.00  0.00    +0.000 A 
ATOM      5  C   UNL     1       1.850   5.722  17.969  0.00  0.00    +0.000 A 
ATOM      6  C   UNL     1       1.869   4.469  18.623  0.00  0.00    +0.000 A 
ENDROOT
BRANCH   4   7
ATOM      7  C   UNL     1       2.079   8.238  17.966  0.00  0.00    +0.000 C 
ATOM      8  F   UNL     1       2.225   9.300  18.805  0.00  0.00    +0.000 F 
ATOM      9  F   UNL     1       3.068   8.352  17.040  0.00  0.00    +0.000 F 
ATOM     10  F   UNL     1       0.911   8.442  17.301  0.00  0.00    +0.000 F 
ENDBRANCH   4   7
BRANCH   6  11
ATOM     11  N   UNL     1       1.567   3.276  17.808  0.00  0.00    +0.000 N 
ATOM     12  O   UNL     1       2.185   3.112  16.742  0.00  0.00    +0.000 OA
ATOM     13  O   UNL     1       0.724   2.479  18.245  0.00  0.00    +0.000 OA
ENDBRANCH   6  11
BRANCH   1  14
ATOM     14  N   UNL     1       2.218   3.153  20.697  0.00  0.00    +0.000 N 
ATOM     15  H   UNL     1       1.609   3.129  21.523  0.00  0.00    +0.000 HD
BRANCH  14  16
ATOM     16  C   UNL     1       3.535   2.548  20.926  0.00  0.00    +0.000 C 
BRANCH  16  17
ATOM     17  C   UNL     1       4.319   2.441  19.618  0.00  0.00    +0.000 C 
BRANCH  17  18
ATOM     18  O   UNL     1       5.377   3.400  19.629  0.00  0.00    +0.000 OA
BRANCH  18  24
ATOM     19  C   UNL     1       5.342   4.278  14.742  0.00  0.00    +0.000 C 
ATOM     20  C   UNL     1       5.446   4.750  16.163  0.00  0.00    +0.000 A 
ATOM     21  C   UNL     1       5.635   6.102  16.469  0.00  0.00    +0.000 A 
ATOM     22  C   UNL     1       5.732   6.513  17.797  0.00  0.00    +0.000 A 
ATOM     23  C   UNL     1       5.640   5.576  18.827  0.00  0.00    +0.000 A 
ATOM     24  C   UNL     1       5.451   4.224  18.538  0.00  0.00    +0.000 A 
ATOM     25  C   UNL     1       5.356   3.818  17.205  0.00  0.00    +0.000 A 
ENDBRANCH  18  24
ENDBRANCH  17  18
ENDBRANCH  16  17
ENDBRANCH  14  16
ENDBRANCH   1  14
TORSDOF 7
ENDMDL
MODEL 5
REMARK VINA RESULT:      -7.8      1.164      2.103
REMARK  Name = 
REMARK  8 active torsions:
REMARK  status: ('A' for Active; 'I' for Inactive)
REMARK    1  A    between atoms: C_1  and  C_2
REMARK    2  A    between atoms: C_6  and  O_7
REMARK    3  A    between atoms: O_7  and  C_8
REMARK    4  A    between atoms: C_8  and  C_9
REMARK    5  A    between atoms: C_9  and  N_10
REMARK    6  A    between atoms: N_10  and  C_11
REMARK    7  A    between atoms: C_14  and  C_15
REMARK    8  A    between atoms: C_20  and  N_21
REMARK                            x       y       z     vdW  Elec       q    Type
REMARK                         _______ _______ _______ _____ _____    ______ ____
ROOT
ATOM      1  C   UNL     1       5.717   5.809  17.273  0.00  0.00    +0.000 A 
ATOM      2  C   UNL     1       4.962   5.693  18.454  0.00  0.00    +0.000 A 
ATOM      3  C   UNL     1       4.177   4.568  18.730  0.00  0.00    +0.000 A 
ATOM      4  C   UNL     1       4.087   3.518  17.816  0.00  0.00    +0.000 A 
ATOM      5  C   UNL     1       4.796   3.622  16.611  0.00  0.00    +0.000 A 
ATOM      6  C   UNL     1       5.593   4.755  16.335  0.00  0.00    +0.000 A 
ENDROOT
BRANCH   4   7
ATOM      7  C   UNL     1       3.245   2.298  18.103  0.00  0.00    +0.000 C 
ATOM      8  F   UNL     1       2.672   2.315  19.338  0.00  0.00    +0.000 F 
ATOM      9  F   UNL     1       2.226   2.155  17.216  0.00  0.00    +0.000 F 
ATOM     10  F   UNL     1       3.967   1.147  18.041  0.00  0.00    +0.000 F 
ENDBRANCH   4   7
BRANCH   6  11
ATOM     11  N   UNL     1       6.318   4.774  15.049  0.00  0.00    +0.000 N 
ATOM     12  O   UNL     1       5.739   4.353  14.033  0.00  0.00    +0.000 OA
ATOM     13  O   UNL     1       7.468   5.238  15.044  0.00  0.00    +0.000 OA
ENDBRANCH   6  11
BRANCH   1  14
ATOM     14  N   UNL     1       6.446   6.981  17.024  0.00  0.00    +0.000 N 
ATOM     15  H   UNL     1       6.509   7.190  16.021  0.00  0.00    +0.000 HD
BRANCH  14  16
ATOM     16  C   UNL     1       7.698   7.220  17.750  0.00  0.00    +0.000 C 
BRANCH  16  17
ATOM     17  C   UNL     1       8.025   8.714  17.792  0.00  0.00    +0.000 C 
BRANCH  17  18
ATOM     18  O   UNL     1       8.814   8.985  18.951  0.00  0.00    +0.000 OA
BRANCH  18  24
ATOM     19  C   UNL     1       9.760  13.018  21.688  0.00  0.00    +0.000 C 
ATOM     20  C   UNL     1       9.711  12.306  20.369  0.00  0.00    +0.000 A 
ATOM     21  C   UNL     1      10.084  12.945  19.182  0.00  0.00    +0.000 A 
ATOM     22  C   UNL     1      10.027  12.262  17.969  0.00  0.00    +0.000 A 
ATOM     23  C   UNL     1       9.595  10.935  17.935  0.00  0.00    +0.000 A 
ATOM     24  C   UNL     1       9.220  10.283  19.109  0.00  0.00    +0.000 A 
ATOM     25  C   UNL     1       9.279  10.974  20.322  0.00  0.00    +0.000 A 
ENDBRANCH  18  24
ENDBRANCH  17  18
ENDBRANCH  16  17
ENDBRANCH  14  16
ENDBRANCH   1  14
TORSDOF 7
ENDMDL
MODEL 6
REMARK VINA RESULT:      -7.8      6.096      6.905
REMARK  Name = 
REMARK  8 active torsions:
REMARK  status: ('A' for Active; 'I' for Inactive)
REMARK    1  A    between atoms: C_1  and  C_2
REMARK    2  A    between atoms: C_6  and  O_7
REMARK    3  A    between atoms: O_7  and  C_8
REMARK    4  A    between atoms: C_8  and  C_9
REMARK    5  A    between atoms: C_9  and  N_10
REMARK    6  A    between atoms: N_10  and  C_11
REMARK    7  A    between atoms: C_14  and  C_15
REMARK    8  A    between atoms: C_20  and  N_21
REMARK                            x       y       z     vdW  Elec       q    Type
REMARK                         _______ _______ _______ _____ _____    ______ ____
ROOT
ATOM      1  C   UNL     1       3.790   3.890  19.148  0.00  0.00    +0.000 A 
ATOM      2  C   UNL     1       5.107   4.376  19.240  0.00  0.00    +0.000 A 
ATOM      3  C   UNL     1       5.836   4.773  18.114  0.00  0.00    +0.000 A 
ATOM      4  C   UNL     1       5.286   4.671  16.835  0.00  0.00    +0.000 A 
ATOM      5  C   UNL     1       3.991   4.152  16.707  0.00  0.00    +0.000 A 
ATOM      6  C   UNL     1       3.253   3.755  17.845  0.00  0.00    +0.000 A 
ENDROOT
BRANCH   4   7
ATOM      7  C   UNL     1       6.062   5.098  15.612  0.00  0.00    +0.000 C 
ATOM      8  F   UNL     1       6.298   4.081  14.738  0.00  0.00    +0.000 F 
ATOM      9  F   UNL     1       5.415   6.061  14.903  0.00  0.00    +0.000 F 
ATOM     10  F   UNL     1       7.280   5.613  15.928  0.00  0.00    +0.000 F 
ENDBRANCH   4   7
BRANCH   6  11
ATOM     11  N   UNL     1       1.890   3.235  17.620  0.00  0.00    +0.000 N 
ATOM     12  O   UNL     1       1.021   4.011  17.188  0.00  0.00    +0.000 OA
ATOM     13  O   UNL     1       1.687   2.034  17.850  0.00  0.00    +0.000 OA
ENDBRANCH   6  11
BRANCH   1  14
ATOM     14  N   UNL     1       3.125   3.458  20.305  0.00  0.00    +0.000 N 
ATOM     15  H   UNL     1       2.492   2.672  20.115  0.00  0.00    +0.000 HD
BRANCH  14  16
ATOM     16  C   UNL     1       2.563   4.450  21.228  0.00  0.00    +0.000 C 
BRANCH  16  17
ATOM     17  C   UNL     1       1.526   5.324  20.522  0.00  0.00    +0.000 C 
BRANCH  17  18
ATOM     18  O   UNL     1       1.679   6.674  20.960  0.00  0.00    +0.000 OA
BRANCH  18  24
ATOM     19  C   UNL     1       0.661  11.130  19.021  0.00  0.00    +0.000 C 
ATOM     20  C   UNL     1       1.307   9.778  18.943  0.00  0.00    +0.000 A 
ATOM     21  C   UNL     1       2.044   9.388  17.821  0.00  0.00    +0.000 A 
ATOM     22  C   UNL     1       2.632   8.124  17.773  0.00  0.00    +0.000 A 
ATOM     23  C   UNL     1       2.485   7.245  18.846  0.00  0.00    +0.000 A 
ATOM     24  C   UNL     1       1.753   7.620  19.973  0.00  0.00    +0.000 A 
ATOM     25  C   UNL     1       1.166   8.887  20.015  0.00  0.00    +0.000 A 
ENDBRANCH  18  24
ENDBRANCH  17  18
ENDBRANCH  16  17
ENDBRANCH  14  16
ENDBRANCH   1  14
TORSDOF 7
ENDMDL
MODEL 7
REMARK VINA RESULT:      -7.8      1.292      1.650
REMARK  Name = 
REMARK  8 active torsions:
REMARK  status: ('A' for Active; 'I' for Inactive)
REMARK    1  A    between atoms: C_1  and  C_2
REMARK    2  A    between atoms: C_6  and  O_7
REMARK    3  A    between atoms: O_7  and  C_8
REMARK    4  A    between atoms: C_8  and  C_9
REMARK    5  A    between atoms: C_9  and  N_10
REMARK    6  A    between atoms: N_10  and  C_11
REMARK    7  A    between atoms: C_14  and  C_15
REMARK    8  A    between atoms: C_20  and  N_21
REMARK                            x       y       z     vdW  Elec       q    Type
REMARK                         _______ _______ _______ _____ _____    ______ ____
ROOT
ATOM      1  C   UNL     1       6.266   5.588  17.911  0.00  0.00    +0.000 A 
ATOM      2  C   UNL     1       5.828   5.082  19.148  0.00  0.00    +0.000 A 
ATOM      3  C   UNL     1       4.654   4.332  19.274  0.00  0.00    +0.000 A 
ATOM      4  C   UNL     1       3.844   4.081  18.166  0.00  0.00    +0.000 A 
ATOM      5  C   UNL     1       4.232   4.606  16.926  0.00  0.00    +0.000 A 
ATOM      6  C   UNL     1       5.421   5.359  16.797  0.00  0.00    +0.000 A 
ENDROOT
BRANCH   4   7
ATOM      7  C   UNL     1       2.576   3.270  18.289  0.00  0.00    +0.000 C 
ATOM      8  F   UNL     1       2.573   2.430  19.360  0.00  0.00    +0.000 F 
ATOM      9  F   UNL     1       1.475   4.055  18.423  0.00  0.00    +0.000 F 
ATOM     10  F   UNL     1       2.355   2.489  17.197  0.00  0.00    +0.000 F 
ENDBRANCH   4   7
BRANCH   6  11
ATOM     11  N   UNL     1       5.761   5.861  15.451  0.00  0.00    +0.000 N 
ATOM     12  O   UNL     1       5.103   6.805  14.984  0.00  0.00    +0.000 OA
ATOM     13  O   UNL     1       6.712   5.326  14.862  0.00  0.00    +0.000 OA
ENDBRANCH   6  11
BRANCH   1  14
ATOM     14  N   UNL     1       7.423   6.377  17.851  0.00  0.00    +0.000 N 
ATOM     15  H   UNL     1       8.107   6.113  18.569  0.00  0.00    +0.000 HD
BRANCH  14  16
ATOM     16  C   UNL     1       7.299   7.828  17.669  0.00  0.00    +0.000 C 
BRANCH  16  17
ATOM     17  C   UNL     1       8.438   8.564  18.376  0.00  0.00    +0.000 C 
BRANCH  17  18
ATOM     18  O   UNL     1       8.399   9.943  18.009  0.00  0.00    +0.000 OA
BRANCH  18  24
ATOM     19  C   UNL     1      12.295  13.006  17.708  0.00  0.00    +0.000 C 
ATOM     20  C   UNL     1      11.280  12.244  18.508  0.00  0.00    +0.000 A 
ATOM     21  C   UNL     1      11.267  12.295  19.906  0.00  0.00    +0.000 A 
ATOM     22  C   UNL     1      10.314  11.575  20.625  0.00  0.00    +0.000 A 
ATOM     23  C   UNL     1       9.370  10.798  19.951  0.00  0.00    +0.000 A 
ATOM     24  C   UNL     1       9.370  10.737  18.557  0.00  0.00    +0.000 A 
ATOM     25  C   UNL     1      10.328  11.461  17.842  0.00  0.00    +0.000 A 
ENDBRANCH  18  24
ENDBRANCH  17  18
ENDBRANCH  16  17
ENDBRANCH  14  16
ENDBRANCH   1  14
TORSDOF 7
ENDMDL
MODEL 8
REMARK VINA RESULT:      -7.8      1.305      1.657
REMARK  Name = 
REMARK  8 active torsions:
REMARK  status: ('A' for Active; 'I' for Inactive)
REMARK    1  A    between atoms: C_1  and  C_2
REMARK    2  A    between atoms: C_6  and  O_7
REMARK    3  A    between atoms: O_7  and  C_8
REMARK    4  A    between atoms: C_8  and  C_9
REMARK    5  A    between atoms: C_9  and  N_10
REMARK    6  A    between atoms: N_10  and  C_11
REMARK    7  A    between atoms: C_14  and  C_15
REMARK    8  A    between atoms: C_20  and  N_21
REMARK                            x       y       z     vdW  Elec       q    Type
REMARK                         _______ _______ _______ _____ _____    ______ ____
ROOT
ATOM      1  C   UNL     1       6.387   6.744  17.428  0.00  0.00    +0.000 A 
ATOM      2  C   UNL     1       5.202   7.125  16.773  0.00  0.00    +0.000 A 
ATOM      3  C   UNL     1       3.990   6.456  16.974  0.00  0.00    +0.000 A 
ATOM      4  C   UNL     1       3.918   5.349  17.821  0.00  0.00    +0.000 A 
ATOM      5  C   UNL     1       5.090   4.920  18.457  0.00  0.00    +0.000 A 
ATOM      6  C   UNL     1       6.313   5.599  18.257  0.00  0.00    +0.000 A 
ENDROOT
BRANCH   4   7
ATOM      7  C   UNL     1       2.615   4.620  18.049  0.00  0.00    +0.000 C 
ATOM      8  F   UNL     1       2.384   4.321  19.356  0.00  0.00    +0.000 F 
ATOM      9  F   UNL     1       1.542   5.343  17.632  0.00  0.00    +0.000 F 
ATOM     10  F   UNL     1       2.561   3.439  17.377  0.00  0.00    +0.000 F 
ENDBRANCH   4   7
BRANCH   6  11
ATOM     11  N   UNL     1       7.496   5.088  18.978  0.00  0.00    +0.000 N 
ATOM     12  O   UNL     1       7.608   5.340  20.190  0.00  0.00    +0.000 OA
ATOM     13  O   UNL     1       8.310   4.405  18.338  0.00  0.00    +0.000 OA
ENDBRANCH   6  11
BRANCH   1  14
ATOM     14  N   UNL     1       7.585   7.419  17.149  0.00  0.00    +0.000 N 
ATOM     15  H   UNL     1       8.214   6.859  16.562  0.00  0.00    +0.000 HD
BRANCH  14  16
ATOM     16  C   UNL     1       8.275   8.139  18.224  0.00  0.00    +0.000 C 
BRANCH  16  17
ATOM     17  C   UNL     1       8.367   9.632  17.907  0.00  0.00    +0.000 C 
BRANCH  17  18
ATOM     18  O   UNL     1       8.797  10.331  19.076  0.00  0.00    +0.000 OA
BRANCH  18  24
ATOM     19  C   UNL     1      11.677  13.425  16.470  0.00  0.00    +0.000 C 
ATOM     20  C   UNL     1      11.362  12.662  17.723  0.00  0.00    +0.000 A 
ATOM     21  C   UNL     1      12.195  12.729  18.845  0.00  0.00    +0.000 A 
ATOM     22  C   UNL     1      11.881  12.008  19.996  0.00  0.00    +0.000 A 
ATOM     23  C   UNL     1      10.733  11.216  20.032  0.00  0.00    +0.000 A 
ATOM     24  C   UNL     1       9.891  11.139  18.922  0.00  0.00    +0.000 A 
ATOM     25  C   UNL     1      10.212  11.864  17.771  0.00  0.00    +0.000 A 
ENDBRANCH  18  24
ENDBRANCH  17  18
ENDBRANCH  16  17
ENDBRANCH  14  16
ENDBRANCH   1  14
TORSDOF 7
ENDMDL
MODEL 9
REMARK VINA RESULT:      -7.7      4.396      7.313
REMARK  Name = 
REMARK  8 active torsions:
REMARK  status: ('A' for Active; 'I' for Inactive)
REMARK    1  A    between atoms: C_1  and  C_2
REMARK    2  A    between atoms: C_6  and  O_7
REMARK    3  A    between atoms: O_7  and  C_8
REMARK    4  A    between atoms: C_8  and  C_9
REMARK    5  A    between atoms: C_9  and  N_10
REMARK    6  A    between atoms: N_10  and  C_11
REMARK    7  A    between atoms: C_14  and  C_15
REMARK    8  A    between atoms: C_20  and  N_21
REMARK                            x       y       z     vdW  Elec       q    Type
REMARK                         _______ _______ _______ _____ _____    ______ ____
ROOT
ATOM      1  C   UNL     1       5.627   4.260  17.200  0.00  0.00    +0.000 A 
ATOM      2  C   UNL     1       5.858   4.773  18.489  0.00  0.00    +0.000 A 
ATOM      3  C   UNL     1       6.571   5.957  18.704  0.00  0.00    +0.000 A 
ATOM      4  C   UNL     1       7.115   6.668  17.633  0.00  0.00    +0.000 A 
ATOM      5  C   UNL     1       6.937   6.161  16.339  0.00  0.00    +0.000 A 
ATOM      6  C   UNL     1       6.212   4.967  16.122  0.00  0.00    +0.000 A 
ENDROOT
BRANCH   4   7
ATOM      7  C   UNL     1       7.885   7.948  17.852  0.00  0.00    +0.000 C 
ATOM      8  F   UNL     1       8.713   7.904  18.931  0.00  0.00    +0.000 F 
ATOM      9  F   UNL     1       8.669   8.266  16.788  0.00  0.00    +0.000 F 
ATOM     10  F   UNL     1       7.065   9.015  18.052  0.00  0.00    +0.000 F 
ENDBRANCH   4   7
BRANCH   6  11
ATOM     11  N   UNL     1       6.059   4.514  14.725  0.00  0.00    +0.000 N 
ATOM     12  O   UNL     1       7.030   4.616  13.956  0.00  0.00    +0.000 OA
ATOM     13  O   UNL     1       4.967   4.027  14.395  0.00  0.00    +0.000 OA
ENDBRANCH   6  11
BRANCH   1  14
ATOM     14  N   UNL     1       4.950   3.041  17.046  0.00  0.00    +0.000 N 
ATOM     15  H   UNL     1       4.659   2.882  16.075  0.00  0.00    +0.000 HD
BRANCH  14  16
ATOM     16  C   UNL     1       3.935   2.650  18.031  0.00  0.00    +0.000 C 
BRANCH  16  17
ATOM     17  C   UNL     1       2.545   2.613  17.393  0.00  0.00    +0.000 C 
BRANCH  17  18
ATOM     18  O   UNL     1       1.593   3.138  18.320  0.00  0.00    +0.000 OA
BRANCH  18  24
ATOM     19  C   UNL     1       3.025   7.854  17.721  0.00  0.00    +0.000 C 
ATOM     20  C   UNL     1       2.521   6.732  18.579  0.00  0.00    +0.000 A 
ATOM     21  C   UNL     1       2.266   6.915  19.942  0.00  0.00    +0.000 A 
ATOM     22  C   UNL     1       1.801   5.855  20.718  0.00  0.00    +0.000 A 
ATOM     23  C   UNL     1       1.589   4.604  20.135  0.00  0.00    +0.000 A 
ATOM     24  C   UNL     1       1.838   4.405  18.777  0.00  0.00    +0.000 A 
ATOM     25  C   UNL     1       2.305   5.472  18.005  0.00  0.00    +0.000 A 
ENDBRANCH  18  24
ENDBRANCH  17  18
ENDBRANCH  16  17
ENDBRANCH  14  16
ENDBRANCH   1  14
TORSDOF 7
ENDMDL
