MODEL 1
REMARK VINA RESULT:      -8.8      0.000      0.000
REMARK  Name = 
REMARK  9 active torsions:
REMARK  status: ('A' for Active; 'I' for Inactive)
REMARK    1  A    between atoms: C_2  and  O_3
REMARK    2  A    between atoms: C_2  and  C_4
REMARK    3  A    between atoms: C_4  and  C_5
REMARK    4  A    between atoms: C_5  and  N_6
REMARK    5  A    between atoms: C_5  and  C_25
REMARK    6  A    between atoms: C_7  and  C_9
REMARK    7  A    between atoms: C_14  and  C_16
REMARK    8  A    between atoms: C_16  and  C_17
REMARK    9  A    between atoms: C_17  and  C_18
REMARK                            x       y       z     vdW  Elec       q    Type
REMARK                         _______ _______ _______ _____ _____    ______ ____
ROOT
ATOM      1  N   UNL     1       2.097   7.327  20.847  0.00  0.00    +0.000 N 
ATOM      2  C   UNL     1       1.017   7.947  21.393  0.00  0.00    +0.000 C 
ATOM      3  O   UNL     1      -0.138   7.593  21.176  0.00  0.00    +0.000 OA
ATOM      4  H   UNL     1       2.940   7.882  20.822  0.00  0.00    +0.000 HD
ENDROOT
BRANCH   2   5
ATOM      5  C   UNL     1       1.347   9.219  22.195  0.00  0.00    +0.000 C 
ATOM      6  C   UNL     1       0.277   9.482  23.266  0.00  0.00    +0.000 C 
ATOM      7  C   UNL     1      -1.001  10.104  22.709  0.00  0.00    +0.000 C 
ATOM      8  C   UNL     1      -0.729  11.273  21.774  0.00  0.00    +0.000 C 
ATOM      9  N   UNL     1       0.282  10.945  20.767  0.00  0.00    +0.000 N 
ATOM     10  C   UNL     1       0.127  11.013  19.381  0.00  0.00    +0.000 C 
ATOM     11  O   UNL     1       1.077  10.906  18.604  0.00  0.00    +0.000 OA
ATOM     12  C   UNL     1       1.560  10.472  21.320  0.00  0.00    +0.000 C 
BRANCH  10  13
ATOM     13  C   UNL     1      -1.294  10.981  18.841  0.00  0.00    +0.000 C 
BRANCH  13  14
ATOM     14  C   UNL     1      -1.444  10.171  17.572  0.00  0.00    +0.000 C 
BRANCH  14  15
ATOM     15  C   UNL     1      -2.873   9.643  17.321  0.00  0.00    +0.000 C 
ATOM     16  C   UNL     1      -3.125   9.599  15.807  0.00  0.00    +0.000 C 
ATOM     17  C   UNL     1      -3.429  10.987  15.234  0.00  0.00    +0.000 C 
ATOM     18  N   UNL     1      -4.584  11.603  15.885  0.00  0.00    +0.000 NA
ATOM     19  C   UNL     1      -4.381  11.735  17.328  0.00  0.00    +0.000 C 
ATOM     20  C   UNL     1      -4.033  10.403  17.993  0.00  0.00    +0.000 C 
ATOM     21  H   UNL     1      -5.403  11.016  15.723  0.00  0.00    +0.000 HD
ENDBRANCH  14  15
ENDBRANCH  13  14
ENDBRANCH  10  13
ENDBRANCH   2   5
BRANCH   1  22
ATOM     22  C   UNL     1       2.137   6.136  20.008  0.00  0.00    +0.000 C 
BRANCH  22  23
ATOM     23  C   UNL     1       3.383   6.110  19.131  0.00  0.00    +0.000 A 
ATOM     24  C   UNL     1       3.438   6.884  17.937  0.00  0.00    +0.000 A 
ATOM     25  C   UNL     1       4.558   6.842  17.086  0.00  0.00    +0.000 A 
ATOM     26  C   UNL     1       5.600   6.008  17.442  0.00  0.00    +0.000 A 
ATOM     27  C   UNL     1       5.551   5.265  18.598  0.00  0.00    +0.000 A 
ATOM     28  C   UNL     1       4.480   5.303  19.455  0.00  0.00    +0.000 A 
ATOM     29  O   UNL     1       6.668   4.504  18.778  0.00  0.00    +0.000 OA
ATOM     30  C   UNL     1       7.394   4.816  17.576  0.00  0.00    +0.000 C 
ATOM     31  O   UNL     1       6.755   5.811  16.753  0.00  0.00    +0.000 OA
ENDBRANCH  22  23
BRANCH  22  32
ATOM     32  C   UNL     1       1.860   4.871  20.842  0.00  0.00    +0.000 C 
BRANCH  32  34
ATOM     33  O   UNL     1       1.097   3.878  18.789  0.00  0.00    +0.000 OA
ATOM     34  C   UNL     1       1.133   3.846  20.003  0.00  0.00    +0.000 C 
BRANCH  34  35
ATOM     35  O   UNL     1       0.516   2.877  20.706  0.00  0.00    +0.000 OA
ATOM     36  H   UNL     1       1.105   2.192  21.071  0.00  0.00    +0.000 HD
ENDBRANCH  34  35
ENDBRANCH  32  34
ENDBRANCH  22  32
ENDBRANCH   1  22
TORSDOF 9
ENDMDL
MODEL 2
REMARK VINA RESULT:      -8.6      3.297      6.361
REMARK  Name = 
REMARK  9 active torsions:
REMARK  status: ('A' for Active; 'I' for Inactive)
REMARK    1  A    between atoms: C_2  and  O_3
REMARK    2  A    between atoms: C_2  and  C_4
REMARK    3  A    between atoms: C_4  and  C_5
REMARK    4  A    between atoms: C_5  and  N_6
REMARK    5  A    between atoms: C_5  and  C_25
REMARK    6  A    between atoms: C_7  and  C_9
REMARK    7  A    between atoms: C_14  and  C_16
REMARK    8  A    between atoms: C_16  and  C_17
REMARK    9  A    between atoms: C_17  and  C_18
REMARK                            x       y       z     vdW  Elec       q    Type
REMARK                         _______ _______ _______ _____ _____    ______ ____
ROOT
ATOM      1  N   UNL     1       4.768   3.620  18.208  0.00  0.00    +0.000 N 
ATOM      2  C   UNL     1       4.499   2.846  19.293  0.00  0.00    +0.000 C 
ATOM      3  O   UNL     1       5.334   2.597  20.159  0.00  0.00    +0.000 OA
ATOM      4  H   UNL     1       4.143   3.487  17.426  0.00  0.00    +0.000 HD
ENDROOT
BRANCH   2   5
ATOM      5  C   UNL     1       3.109   2.188  19.285  0.00  0.00    +0.000 C 
ATOM      6  C   UNL     1       2.541   2.130  17.858  0.00  0.00    +0.000 C 
ATOM      7  C   UNL     1       1.969   3.461  17.376  0.00  0.00    +0.000 C 
ATOM      8  C   UNL     1       1.058   4.118  18.401  0.00  0.00    +0.000 C 
ATOM      9  N   UNL     1       1.671   4.159  19.731  0.00  0.00    +0.000 N 
ATOM     10  C   UNL     1       1.900   5.299  20.505  0.00  0.00    +0.000 C 
ATOM     11  O   UNL     1       2.243   5.237  21.686  0.00  0.00    +0.000 OA
ATOM     12  C   UNL     1       2.098   2.849  20.245  0.00  0.00    +0.000 C 
BRANCH  10  13
ATOM     13  C   UNL     1       1.952   6.632  19.775  0.00  0.00    +0.000 C 
BRANCH  13  14
ATOM     14  C   UNL     1       1.766   7.829  20.681  0.00  0.00    +0.000 C 
BRANCH  14  15
ATOM     15  C   UNL     1       0.333   8.402  20.692  0.00  0.00    +0.000 C 
ATOM     16  C   UNL     1       0.353   9.798  20.054  0.00  0.00    +0.000 C 
ATOM     17  C   UNL     1       0.893  10.862  21.014  0.00  0.00    +0.000 C 
ATOM     18  N   UNL     1       0.116  10.922  22.252  0.00  0.00    +0.000 NA
ATOM     19  C   UNL     1       0.111   9.634  22.947  0.00  0.00    +0.000 C 
ATOM     20  C   UNL     1      -0.379   8.492  22.056  0.00  0.00    +0.000 C 
ATOM     21  H   UNL     1      -0.846  11.174  22.022  0.00  0.00    +0.000 HD
ENDBRANCH  14  15
ENDBRANCH  13  14
ENDBRANCH  10  13
ENDBRANCH   2   5
BRANCH   1  22
ATOM     22  C   UNL     1       5.988   4.347  17.884  0.00  0.00    +0.000 C 
BRANCH  22  23
ATOM     23  C   UNL     1       6.221   4.409  16.380  0.00  0.00    +0.000 A 
ATOM     24  C   UNL     1       5.400   3.657  15.493  0.00  0.00    +0.000 A 
ATOM     25  C   UNL     1       5.624   3.662  14.104  0.00  0.00    +0.000 A 
ATOM     26  C   UNL     1       6.682   4.412  13.629  0.00  0.00    +0.000 A 
ATOM     27  C   UNL     1       7.472   5.144  14.484  0.00  0.00    +0.000 A 
ATOM     28  C   UNL     1       7.263   5.173  15.840  0.00  0.00    +0.000 A 
ATOM     29  O   UNL     1       8.464   5.817  13.833  0.00  0.00    +0.000 OA
ATOM     30  C   UNL     1       8.235   5.376  12.482  0.00  0.00    +0.000 C 
ATOM     31  O   UNL     1       7.075   4.535  12.334  0.00  0.00    +0.000 OA
ENDBRANCH  22  23
BRANCH  22  32
ATOM     32  C   UNL     1       6.042   5.686  18.642  0.00  0.00    +0.000 C 
BRANCH  32  34
ATOM     33  O   UNL     1       7.675   5.174  20.332  0.00  0.00    +0.000 OA
ATOM     34  C   UNL     1       7.368   5.826  19.354  0.00  0.00    +0.000 C 
BRANCH  34  35
ATOM     35  O   UNL     1       8.200   6.741  18.821  0.00  0.00    +0.000 OA
ATOM     36  H   UNL     1       8.825   6.395  18.159  0.00  0.00    +0.000 HD
ENDBRANCH  34  35
ENDBRANCH  32  34
ENDBRANCH  22  32
ENDBRANCH   1  22
TORSDOF 9
ENDMDL
MODEL 3
REMARK VINA RESULT:      -8.4      2.956      5.900
REMARK  Name = 
REMARK  9 active torsions:
REMARK  status: ('A' for Active; 'I' for Inactive)
REMARK    1  A    between atoms: C_2  and  O_3
REMARK    2  A    between atoms: C_2  and  C_4
REMARK    3  A    between atoms: C_4  and  C_5
REMARK    4  A    between atoms: C_5  and  N_6
REMARK    5  A    between atoms: C_5  and  C_25
REMARK    6  A    between atoms: C_7  and  C_9
REMARK    7  A    between atoms: C_14  and  C_16
REMARK    8  A    between atoms: C_16  and  C_17
REMARK    9  A    between atoms: C_17  and  C_18
REMARK                            x       y       z     vdW  Elec       q    Type
REMARK                         _______ _______ _______ _____ _____    ______ ____
ROOT
ATOM      1  N   UNL     1       4.637   3.834  18.541  0.00  0.00    +0.000 N 
ATOM      2  C   UNL     1       4.376   2.938  19.531  0.00  0.00    +0.000 C 
ATOM      3  O   UNL     1       5.253   2.448  20.236  0.00  0.00    +0.000 OA
ATOM      4  H   UNL     1       3.918   3.910  17.836  0.00  0.00    +0.000 HD
ENDROOT
BRANCH   2   5
ATOM      5  C   UNL     1       2.911   2.476  19.608  0.00  0.00    +0.000 C 
ATOM      6  C   UNL     1       2.389   2.077  18.220  0.00  0.00    +0.000 C 
ATOM      7  C   UNL     1       2.019   3.270  17.342  0.00  0.00    +0.000 C 
ATOM      8  C   UNL     1       1.169   4.299  18.074  0.00  0.00    +0.000 C 
ATOM      9  N   UNL     1       1.737   4.649  19.378  0.00  0.00    +0.000 N 
ATOM     10  C   UNL     1       2.090   5.928  19.814  0.00  0.00    +0.000 C 
ATOM     11  O   UNL     1       2.381   6.169  20.987  0.00  0.00    +0.000 OA
ATOM     12  C   UNL     1       1.966   3.501  20.270  0.00  0.00    +0.000 C 
BRANCH  10  13
ATOM     13  C   UNL     1       2.346   6.977  18.744  0.00  0.00    +0.000 C 
BRANCH  13  14
ATOM     14  C   UNL     1       1.796   8.344  19.090  0.00  0.00    +0.000 C 
BRANCH  14  15
ATOM     15  C   UNL     1       1.353   9.178  17.869  0.00  0.00    +0.000 C 
ATOM     16  C   UNL     1       2.158  10.486  17.845  0.00  0.00    +0.000 C 
ATOM     17  C   UNL     1       1.631  11.505  18.859  0.00  0.00    +0.000 C 
ATOM     18  N   UNL     1       0.220  11.818  18.633  0.00  0.00    +0.000 NA
ATOM     19  C   UNL     1      -0.615  10.618  18.709  0.00  0.00    +0.000 C 
ATOM     20  C   UNL     1      -0.146   9.519  17.756  0.00  0.00    +0.000 C 
ATOM     21  H   UNL     1       0.121  12.227  17.704  0.00  0.00    +0.000 HD
ENDBRANCH  14  15
ENDBRANCH  13  14
ENDBRANCH  10  13
ENDBRANCH   2   5
BRANCH   1  22
ATOM     22  C   UNL     1       5.909   4.439  18.170  0.00  0.00    +0.000 C 
BRANCH  22  23
ATOM     23  C   UNL     1       6.113   4.433  16.660  0.00  0.00    +0.000 A 
ATOM     24  C   UNL     1       5.276   3.639  15.824  0.00  0.00    +0.000 A 
ATOM     25  C   UNL     1       5.473   3.581  14.432  0.00  0.00    +0.000 A 
ATOM     26  C   UNL     1       6.521   4.309  13.904  0.00  0.00    +0.000 A 
ATOM     27  C   UNL     1       7.326   5.082  14.708  0.00  0.00    +0.000 A 
ATOM     28  C   UNL     1       7.143   5.172  16.066  0.00  0.00    +0.000 A 
ATOM     29  O   UNL     1       8.303   5.724  14.008  0.00  0.00    +0.000 OA
ATOM     30  C   UNL     1       8.049   5.222  12.684  0.00  0.00    +0.000 C 
ATOM     31  O   UNL     1       6.888   4.374  12.597  0.00  0.00    +0.000 OA
ENDBRANCH  22  23
BRANCH  22  32
ATOM     32  C   UNL     1       6.098   5.792  18.881  0.00  0.00    +0.000 C 
BRANCH  32  34
ATOM     33  O   UNL     1       8.331   6.680  18.795  0.00  0.00    +0.000 OA
ATOM     34  C   UNL     1       7.531   5.943  19.336  0.00  0.00    +0.000 C 
BRANCH  34  35
ATOM     35  O   UNL     1       7.868   5.190  20.401  0.00  0.00    +0.000 OA
ATOM     36  H   UNL     1       7.443   4.314  20.438  0.00  0.00    +0.000 HD
ENDBRANCH  34  35
ENDBRANCH  32  34
ENDBRANCH  22  32
ENDBRANCH   1  22
TORSDOF 9
ENDMDL
MODEL 4
REMARK VINA RESULT:      -8.4      3.202      6.444
REMARK  Name = 
REMARK  9 active torsions:
REMARK  status: ('A' for Active; 'I' for Inactive)
REMARK    1  A    between atoms: C_2  and  O_3
REMARK    2  A    between atoms: C_2  and  C_4
REMARK    3  A    between atoms: C_4  and  C_5
REMARK    4  A    between atoms: C_5  and  N_6
REMARK    5  A    between atoms: C_5  and  C_25
REMARK    6  A    between atoms: C_7  and  C_9
REMARK    7  A    between atoms: C_14  and  C_16
REMARK    8  A    between atoms: C_16  and  C_17
REMARK    9  A    between atoms: C_17  and  C_18
REMARK                            x       y       z     vdW  Elec       q    Type
REMARK                         _______ _______ _______ _____ _____    ______ ____
ROOT
ATOM      1  N   UNL     1       4.726   3.511  18.173  0.00  0.00    +0.000 N 
ATOM      2  C   UNL     1       4.489   2.675  19.219  0.00  0.00    +0.000 C 
ATOM      3  O   UNL     1       5.342   2.392  20.054  0.00  0.00    +0.000 OA
ATOM      4  H   UNL     1       4.089   3.413  17.396  0.00  0.00    +0.000 HD
ENDROOT
BRANCH   2   5
ATOM      5  C   UNL     1       3.108   1.998  19.198  0.00  0.00    +0.000 C 
ATOM      6  C   UNL     1       2.478   2.083  17.799  0.00  0.00    +0.000 C 
ATOM      7  C   UNL     1       1.869   3.447  17.488  0.00  0.00    +0.000 C 
ATOM      8  C   UNL     1       0.995   3.974  18.616  0.00  0.00    +0.000 C 
ATOM      9  N   UNL     1       1.666   3.883  19.916  0.00  0.00    +0.000 N 
ATOM     10  C   UNL     1       1.913   4.938  20.797  0.00  0.00    +0.000 C 
ATOM     11  O   UNL     1       2.308   4.755  21.950  0.00  0.00    +0.000 OA
ATOM     12  C   UNL     1       2.132   2.533  20.266  0.00  0.00    +0.000 C 
BRANCH  10  13
ATOM     13  C   UNL     1       1.915   6.342  20.214  0.00  0.00    +0.000 C 
BRANCH  13  14
ATOM     14  C   UNL     1       0.951   7.286  20.899  0.00  0.00    +0.000 C 
BRANCH  14  15
ATOM     15  C   UNL     1       1.472   8.732  21.042  0.00  0.00    +0.000 C 
ATOM     16  C   UNL     1       1.265   9.191  22.493  0.00  0.00    +0.000 C 
ATOM     17  C   UNL     1      -0.190   9.581  22.771  0.00  0.00    +0.000 C 
ATOM     18  N   UNL     1      -0.651  10.639  21.873  0.00  0.00    +0.000 NA
ATOM     19  C   UNL     1      -0.542  10.238  20.469  0.00  0.00    +0.000 C 
ATOM     20  C   UNL     1       0.872   9.792  20.098  0.00  0.00    +0.000 C 
ATOM     21  H   UNL     1      -0.076  11.468  22.022  0.00  0.00    +0.000 HD
ENDBRANCH  14  15
ENDBRANCH  13  14
ENDBRANCH  10  13
ENDBRANCH   2   5
BRANCH   1  22
ATOM     22  C   UNL     1       5.930   4.274  17.869  0.00  0.00    +0.000 C 
BRANCH  22  23
ATOM     23  C   UNL     1       6.170   4.368  16.367  0.00  0.00    +0.000 A 
ATOM     24  C   UNL     1       5.338   3.651  15.460  0.00  0.00    +0.000 A 
ATOM     25  C   UNL     1       5.567   3.685  14.072  0.00  0.00    +0.000 A 
ATOM     26  C   UNL     1       6.640   4.427  13.619  0.00  0.00    +0.000 A 
ATOM     27  C   UNL     1       7.440   5.125  14.493  0.00  0.00    +0.000 A 
ATOM     28  C   UNL     1       7.227   5.126  15.849  0.00  0.00    +0.000 A 
ATOM     29  O   UNL     1       8.445   5.795  13.862  0.00  0.00    +0.000 OA
ATOM     30  C   UNL     1       8.214   5.391  12.501  0.00  0.00    +0.000 C 
ATOM     31  O   UNL     1       7.040   4.574  12.328  0.00  0.00    +0.000 OA
ENDBRANCH  22  23
BRANCH  22  32
ATOM     32  C   UNL     1       5.946   5.602  18.650  0.00  0.00    +0.000 C 
BRANCH  32  34
ATOM     33  O   UNL     1       8.118   6.632  18.671  0.00  0.00    +0.000 OA
ATOM     34  C   UNL     1       7.331   5.867  19.192  0.00  0.00    +0.000 C 
BRANCH  34  35
ATOM     35  O   UNL     1       7.640   5.184  20.311  0.00  0.00    +0.000 OA
ATOM     36  H   UNL     1       7.311   5.577  21.139  0.00  0.00    +0.000 HD
ENDBRANCH  34  35
ENDBRANCH  32  34
ENDBRANCH  22  32
ENDBRANCH   1  22
TORSDOF 9
ENDMDL
MODEL 5
REMARK VINA RESULT:      -8.2      2.902      6.216
REMARK  Name = 
REMARK  9 active torsions:
REMARK  status: ('A' for Active; 'I' for Inactive)
REMARK    1  A    between atoms: C_2  and  O_3
REMARK    2  A    between atoms: C_2  and  C_4
REMARK    3  A    between atoms: C_4  and  C_5
REMARK    4  A    between atoms: C_5  and  N_6
REMARK    5  A    between atoms: C_5  and  C_25
REMARK    6  A    between atoms: C_7  and  C_9
REMARK    7  A    between atoms: C_14  and  C_16
REMARK    8  A    between atoms: C_16  and  C_17
REMARK    9  A    between atoms: C_17  and  C_18
REMARK                            x       y       z     vdW  Elec       q    Type
REMARK                         _______ _______ _______ _____ _____    ______ ____
ROOT
ATOM      1  N   UNL     1       4.801   3.584  18.180  0.00  0.00    +0.000 N 
ATOM      2  C   UNL     1       4.540   2.813  19.270  0.00  0.00    +0.000 C 
ATOM      3  O   UNL     1       5.372   2.588  20.143  0.00  0.00    +0.000 OA
ATOM      4  H   UNL     1       4.185   3.433  17.394  0.00  0.00    +0.000 HD
ENDROOT
BRANCH   2   5
ATOM      5  C   UNL     1       3.163   2.128  19.256  0.00  0.00    +0.000 C 
ATOM      6  C   UNL     1       2.595   2.072  17.829  0.00  0.00    +0.000 C 
ATOM      7  C   UNL     1       1.996   3.395  17.359  0.00  0.00    +0.000 C 
ATOM      8  C   UNL     1       1.073   4.024  18.392  0.00  0.00    +0.000 C 
ATOM      9  N   UNL     1       1.686   4.065  19.722  0.00  0.00    +0.000 N 
ATOM     10  C   UNL     1       1.893   5.202  20.506  0.00  0.00    +0.000 C 
ATOM     11  O   UNL     1       2.237   5.136  21.687  0.00  0.00    +0.000 OA
ATOM     12  C   UNL     1       2.140   2.759  20.223  0.00  0.00    +0.000 C 
BRANCH  10  13
ATOM     13  C   UNL     1       1.917   6.543  19.789  0.00  0.00    +0.000 C 
BRANCH  13  14
ATOM     14  C   UNL     1       1.321   7.675  20.596  0.00  0.00    +0.000 C 
BRANCH  14  15
ATOM     15  C   UNL     1       1.688   9.083  20.083  0.00  0.00    +0.000 C 
ATOM     16  C   UNL     1       0.734  10.106  20.716  0.00  0.00    +0.000 C 
ATOM     17  C   UNL     1      -0.640  10.108  20.039  0.00  0.00    +0.000 C 
ATOM     18  N   UNL     1      -0.540  10.384  18.607  0.00  0.00    +0.000 NA
ATOM     19  C   UNL     1       0.307   9.402  17.928  0.00  0.00    +0.000 C 
ATOM     20  C   UNL     1       1.697   9.296  18.556  0.00  0.00    +0.000 C 
ATOM     21  H   UNL     1      -0.132  11.311  18.480  0.00  0.00    +0.000 HD
ENDBRANCH  14  15
ENDBRANCH  13  14
ENDBRANCH  10  13
ENDBRANCH   2   5
BRANCH   1  22
ATOM     22  C   UNL     1       6.009   4.333  17.860  0.00  0.00    +0.000 C 
BRANCH  22  23
ATOM     23  C   UNL     1       6.239   4.411  16.355  0.00  0.00    +0.000 A 
ATOM     24  C   UNL     1       5.400   3.687  15.462  0.00  0.00    +0.000 A 
ATOM     25  C   UNL     1       5.619   3.706  14.072  0.00  0.00    +0.000 A 
ATOM     26  C   UNL     1       6.689   4.442  13.604  0.00  0.00    +0.000 A 
ATOM     27  C   UNL     1       7.496   5.148  14.465  0.00  0.00    +0.000 A 
ATOM     28  C   UNL     1       7.293   5.162  15.822  0.00  0.00    +0.000 A 
ATOM     29  O   UNL     1       8.498   5.810  13.820  0.00  0.00    +0.000 OA
ATOM     30  C   UNL     1       8.256   5.392  12.464  0.00  0.00    +0.000 C 
ATOM     31  O   UNL     1       7.080   4.575  12.309  0.00  0.00    +0.000 OA
ENDBRANCH  22  23
BRANCH  22  32
ATOM     32  C   UNL     1       6.044   5.667  18.629  0.00  0.00    +0.000 C 
BRANCH  32  34
ATOM     33  O   UNL     1       7.618   5.168  20.376  0.00  0.00    +0.000 OA
ATOM     34  C   UNL     1       7.351   5.802  19.375  0.00  0.00    +0.000 C 
BRANCH  34  35
ATOM     35  O   UNL     1       8.214   6.690  18.846  0.00  0.00    +0.000 OA
ATOM     36  H   UNL     1       8.180   7.582  19.235  0.00  0.00    +0.000 HD
ENDBRANCH  34  35
ENDBRANCH  32  34
ENDBRANCH  22  32
ENDBRANCH   1  22
TORSDOF 9
ENDMDL
MODEL 6
REMARK VINA RESULT:      -8.2      3.300      6.444
REMARK  Name = 
REMARK  9 active torsions:
REMARK  status: ('A' for Active; 'I' for Inactive)
REMARK    1  A    between atoms: C_2  and  O_3
REMARK    2  A    between atoms: C_2  and  C_4
REMARK    3  A    between atoms: C_4  and  C_5
REMARK    4  A    between atoms: C_5  and  N_6
REMARK    5  A    between atoms: C_5  and  C_25
REMARK    6  A    between atoms: C_7  and  C_9
REMARK    7  A    between atoms: C_14  and  C_16
REMARK    8  A    between atoms: C_16  and  C_17
REMARK    9  A    between atoms: C_17  and  C_18
REMARK                            x       y       z     vdW  Elec       q    Type
REMARK                         _______ _______ _______ _____ _____    ______ ____
ROOT
ATOM      1  N   UNL     1       4.977   3.689  17.934  0.00  0.00    +0.000 N 
ATOM      2  C   UNL     1       4.613   3.052  19.079  0.00  0.00    +0.000 C 
ATOM      3  O   UNL     1       5.356   2.949  20.050  0.00  0.00    +0.000 OA
ATOM      4  H   UNL     1       4.443   3.433  17.116  0.00  0.00    +0.000 HD
ENDROOT
BRANCH   2   5
ATOM      5  C   UNL     1       3.248   2.345  19.014  0.00  0.00    +0.000 C 
ATOM      6  C   UNL     1       2.688   2.369  17.583  0.00  0.00    +0.000 C 
ATOM      7  C   UNL     1       2.068   3.709  17.195  0.00  0.00    +0.000 C 
ATOM      8  C   UNL     1       1.129   4.256  18.259  0.00  0.00    +0.000 C 
ATOM      9  N   UNL     1       1.736   4.223  19.592  0.00  0.00    +0.000 N 
ATOM     10  C   UNL     1       1.919   5.312  20.448  0.00  0.00    +0.000 C 
ATOM     11  O   UNL     1       2.259   5.178  21.624  0.00  0.00    +0.000 OA
ATOM     12  C   UNL     1       2.210   2.896  20.013  0.00  0.00    +0.000 C 
BRANCH  10  13
ATOM     13  C   UNL     1       1.922   6.696  19.816  0.00  0.00    +0.000 C 
BRANCH  13  14
ATOM     14  C   UNL     1       1.697   7.817  20.808  0.00  0.00    +0.000 C 
BRANCH  14  15
ATOM     15  C   UNL     1       0.263   8.387  20.805  0.00  0.00    +0.000 C 
ATOM     16  C   UNL     1       0.281   9.770  20.138  0.00  0.00    +0.000 C 
ATOM     17  C   UNL     1       0.819  10.854  21.077  0.00  0.00    +0.000 C 
ATOM     18  N   UNL     1       0.041  10.939  22.312  0.00  0.00    +0.000 NA
ATOM     19  C   UNL     1       0.038   9.666  23.034  0.00  0.00    +0.000 C 
ATOM     20  C   UNL     1      -0.450   8.505  22.167  0.00  0.00    +0.000 C 
ATOM     21  H   UNL     1      -0.921  11.184  22.077  0.00  0.00    +0.000 HD
ENDBRANCH  14  15
ENDBRANCH  13  14
ENDBRANCH  10  13
ENDBRANCH   2   5
BRANCH   1  22
ATOM     22  C   UNL     1       6.206   4.415  17.644  0.00  0.00    +0.000 C 
BRANCH  22  23
ATOM     23  C   UNL     1       6.523   4.410  16.154  0.00  0.00    +0.000 A 
ATOM     24  C   UNL     1       7.533   5.267  15.631  0.00  0.00    +0.000 A 
ATOM     25  C   UNL     1       7.814   5.314  14.253  0.00  0.00    +0.000 A 
ATOM     26  C   UNL     1       7.061   4.510  13.419  0.00  0.00    +0.000 A 
ATOM     27  C   UNL     1       6.090   3.677  13.923  0.00  0.00    +0.000 A 
ATOM     28  C   UNL     1       5.810   3.597  15.265  0.00  0.00    +0.000 A 
ATOM     29  O   UNL     1       5.455   2.964  12.951  0.00  0.00    +0.000 OA
ATOM     30  C   UNL     1       6.104   3.488  11.778  0.00  0.00    +0.000 C 
ATOM     31  O   UNL     1       7.162   4.422  12.067  0.00  0.00    +0.000 OA
ENDBRANCH  22  23
BRANCH  22  32
ATOM     32  C   UNL     1       6.204   5.790  18.339  0.00  0.00    +0.000 C 
BRANCH  32  34
ATOM     33  O   UNL     1       8.354   6.745  18.839  0.00  0.00    +0.000 OA
ATOM     34  C   UNL     1       7.471   5.966  19.143  0.00  0.00    +0.000 C 
BRANCH  34  35
ATOM     35  O   UNL     1       7.559   5.187  20.237  0.00  0.00    +0.000 OA
ATOM     36  H   UNL     1       7.090   4.335  20.177  0.00  0.00    +0.000 HD
ENDBRANCH  34  35
ENDBRANCH  32  34
ENDBRANCH  22  32
ENDBRANCH   1  22
TORSDOF 9
ENDMDL
MODEL 7
REMARK VINA RESULT:      -8.1      3.160      6.201
REMARK  Name = 
REMARK  9 active torsions:
REMARK  status: ('A' for Active; 'I' for Inactive)
REMARK    1  A    between atoms: C_2  and  O_3
REMARK    2  A    between atoms: C_2  and  C_4
REMARK    3  A    between atoms: C_4  and  C_5
REMARK    4  A    between atoms: C_5  and  N_6
REMARK    5  A    between atoms: C_5  and  C_25
REMARK    6  A    between atoms: C_7  and  C_9
REMARK    7  A    between atoms: C_14  and  C_16
REMARK    8  A    between atoms: C_16  and  C_17
REMARK    9  A    between atoms: C_17  and  C_18
REMARK                            x       y       z     vdW  Elec       q    Type
REMARK                         _______ _______ _______ _____ _____    ______ ____
ROOT
ATOM      1  N   UNL     1       4.870   3.677  18.178  0.00  0.00    +0.000 N 
ATOM      2  C   UNL     1       4.578   2.942  19.285  0.00  0.00    +0.000 C 
ATOM      3  O   UNL     1       5.405   2.690  20.156  0.00  0.00    +0.000 OA
ATOM      4  H   UNL     1       4.240   3.543  17.400  0.00  0.00    +0.000 HD
ENDROOT
BRANCH   2   5
ATOM      5  C   UNL     1       3.167   2.329  19.294  0.00  0.00    +0.000 C 
ATOM      6  C   UNL     1       2.655   2.113  17.862  0.00  0.00    +0.000 C 
ATOM      7  C   UNL     1       2.150   3.390  17.197  0.00  0.00    +0.000 C 
ATOM      8  C   UNL     1       1.221   4.194  18.094  0.00  0.00    +0.000 C 
ATOM      9  N   UNL     1       1.781   4.381  19.435  0.00  0.00    +0.000 N 
ATOM     10  C   UNL     1       2.018   5.600  20.074  0.00  0.00    +0.000 C 
ATOM     11  O   UNL     1       2.310   5.673  21.268  0.00  0.00    +0.000 OA
ATOM     12  C   UNL     1       2.142   3.131  20.122  0.00  0.00    +0.000 C 
BRANCH  10  13
ATOM     13  C   UNL     1       2.144   6.831  19.191  0.00  0.00    +0.000 C 
BRANCH  13  14
ATOM     14  C   UNL     1       1.945   8.135  19.933  0.00  0.00    +0.000 C 
BRANCH  14  15
ATOM     15  C   UNL     1       0.689   8.923  19.505  0.00  0.00    +0.000 C 
ATOM     16  C   UNL     1       0.982   9.637  18.177  0.00  0.00    +0.000 C 
ATOM     17  C   UNL     1       1.829  10.898  18.376  0.00  0.00    +0.000 C 
ATOM     18  N   UNL     1       1.189  11.845  19.288  0.00  0.00    +0.000 NA
ATOM     19  C   UNL     1       0.940  11.245  20.599  0.00  0.00    +0.000 C 
ATOM     20  C   UNL     1       0.129   9.953  20.506  0.00  0.00    +0.000 C 
ATOM     21  H   UNL     1       0.296  12.134  18.885  0.00  0.00    +0.000 HD
ENDBRANCH  14  15
ENDBRANCH  13  14
ENDBRANCH  10  13
ENDBRANCH   2   5
BRANCH   1  22
ATOM     22  C   UNL     1       6.112   4.356  17.835  0.00  0.00    +0.000 C 
BRANCH  22  23
ATOM     23  C   UNL     1       6.320   4.416  16.326  0.00  0.00    +0.000 A 
ATOM     24  C   UNL     1       5.495   3.648  15.456  0.00  0.00    +0.000 A 
ATOM     25  C   UNL     1       5.695   3.651  14.063  0.00  0.00    +0.000 A 
ATOM     26  C   UNL     1       6.735   4.415  13.569  0.00  0.00    +0.000 A 
ATOM     27  C   UNL     1       7.528   5.162  14.407  0.00  0.00    +0.000 A 
ATOM     28  C   UNL     1       7.341   5.193  15.767  0.00  0.00    +0.000 A 
ATOM     29  O   UNL     1       8.498   5.846  13.738  0.00  0.00    +0.000 OA
ATOM     30  C   UNL     1       8.254   5.398  12.393  0.00  0.00    +0.000 C 
ATOM     31  O   UNL     1       7.104   4.539  12.266  0.00  0.00    +0.000 OA
ENDBRANCH  22  23
BRANCH  22  32
ATOM     32  C   UNL     1       6.235   5.688  18.597  0.00  0.00    +0.000 C 
BRANCH  32  34
ATOM     33  O   UNL     1       8.247   5.042  19.743  0.00  0.00    +0.000 OA
ATOM     34  C   UNL     1       7.650   5.875  19.091  0.00  0.00    +0.000 C 
BRANCH  34  35
ATOM     35  O   UNL     1       8.215   7.050  18.754  0.00  0.00    +0.000 OA
ATOM     36  H   UNL     1       7.704   7.841  19.003  0.00  0.00    +0.000 HD
ENDBRANCH  34  35
ENDBRANCH  32  34
ENDBRANCH  22  32
ENDBRANCH   1  22
TORSDOF 9
ENDMDL
MODEL 8
REMARK VINA RESULT:      -8.1      3.188      5.145
REMARK  Name = 
REMARK  9 active torsions:
REMARK  status: ('A' for Active; 'I' for Inactive)
REMARK    1  A    between atoms: C_2  and  O_3
REMARK    2  A    between atoms: C_2  and  C_4
REMARK    3  A    between atoms: C_4  and  C_5
REMARK    4  A    between atoms: C_5  and  N_6
REMARK    5  A    between atoms: C_5  and  C_25
REMARK    6  A    between atoms: C_7  and  C_9
REMARK    7  A    between atoms: C_14  and  C_16
REMARK    8  A    between atoms: C_16  and  C_17
REMARK    9  A    between atoms: C_17  and  C_18
REMARK                            x       y       z     vdW  Elec       q    Type
REMARK                         _______ _______ _______ _____ _____    ______ ____
ROOT
ATOM      1  N   UNL     1       1.058   9.779  19.710  0.00  0.00    +0.000 N 
ATOM      2  C   UNL     1      -0.063  10.444  19.322  0.00  0.00    +0.000 C 
ATOM      3  O   UNL     1      -1.195  10.013  19.514  0.00  0.00    +0.000 OA
ATOM      4  H   UNL     1       1.902  10.047  19.225  0.00  0.00    +0.000 HD
ENDROOT
BRANCH   2   5
ATOM      5  C   UNL     1       0.200  11.716  18.497  0.00  0.00    +0.000 C 
ATOM      6  C   UNL     1       1.480  12.420  18.971  0.00  0.00    +0.000 C 
ATOM      7  C   UNL     1       1.292  13.230  20.251  0.00  0.00    +0.000 C 
ATOM      8  C   UNL     1       0.052  14.112  20.214  0.00  0.00    +0.000 C 
ATOM      9  N   UNL     1      -1.133  13.371  19.776  0.00  0.00    +0.000 N 
ATOM     10  C   UNL     1      -2.331  13.229  20.480  0.00  0.00    +0.000 C 
ATOM     11  O   UNL     1      -3.346  12.756  19.967  0.00  0.00    +0.000 OA
ATOM     12  C   UNL     1      -0.986  12.702  18.474  0.00  0.00    +0.000 C 
BRANCH  10  13
ATOM     13  C   UNL     1      -2.281  13.454  21.983  0.00  0.00    +0.000 C 
BRANCH  13  14
ATOM     14  C   UNL     1      -3.164  12.508  22.768  0.00  0.00    +0.000 C 
BRANCH  14  15
ATOM     15  C   UNL     1      -3.537  13.012  24.179  0.00  0.00    +0.000 C 
ATOM     16  C   UNL     1      -4.816  12.297  24.638  0.00  0.00    +0.000 C 
ATOM     17  C   UNL     1      -6.070  12.887  23.986  0.00  0.00    +0.000 C 
ATOM     18  N   UNL     1      -6.206  14.317  24.263  0.00  0.00    +0.000 NA
ATOM     19  C   UNL     1      -5.043  15.069  23.790  0.00  0.00    +0.000 C 
ATOM     20  C   UNL     1      -3.729  14.531  24.356  0.00  0.00    +0.000 C 
ATOM     21  H   UNL     1      -6.291  14.448  25.272  0.00  0.00    +0.000 HD
ENDBRANCH  14  15
ENDBRANCH  13  14
ENDBRANCH  10  13
ENDBRANCH   2   5
BRANCH   1  22
ATOM     22  C   UNL     1       1.167   8.534  20.460  0.00  0.00    +0.000 C 
BRANCH  22  23
ATOM     23  C   UNL     1       2.043   7.518  19.737  0.00  0.00    +0.000 A 
ATOM     24  C   UNL     1       2.618   7.835  18.473  0.00  0.00    +0.000 A 
ATOM     25  C   UNL     1       3.392   6.899  17.763  0.00  0.00    +0.000 A 
ATOM     26  C   UNL     1       3.562   5.651  18.330  0.00  0.00    +0.000 A 
ATOM     27  C   UNL     1       3.013   5.345  19.553  0.00  0.00    +0.000 A 
ATOM     28  C   UNL     1       2.271   6.246  20.275  0.00  0.00    +0.000 A 
ATOM     29  O   UNL     1       3.288   4.069  19.946  0.00  0.00    +0.000 OA
ATOM     30  C   UNL     1       4.024   3.596  18.804  0.00  0.00    +0.000 C 
ATOM     31  O   UNL     1       4.254   4.606  17.803  0.00  0.00    +0.000 OA
ENDBRANCH  22  23
BRANCH  22  32
ATOM     32  C   UNL     1       1.518   8.815  21.934  0.00  0.00    +0.000 C 
BRANCH  32  34
ATOM     33  O   UNL     1       0.240   9.792  23.720  0.00  0.00    +0.000 OA
ATOM     34  C   UNL     1       0.260   9.103  22.720  0.00  0.00    +0.000 C 
BRANCH  34  35
ATOM     35  O   UNL     1      -0.856   8.533  22.228  0.00  0.00    +0.000 OA
ATOM     36  H   UNL     1      -0.821   8.304  21.282  0.00  0.00    +0.000 HD
ENDBRANCH  34  35
ENDBRANCH  32  34
ENDBRANCH  22  32
ENDBRANCH   1  22
TORSDOF 9
ENDMDL
MODEL 9
REMARK VINA RESULT:      -8.0      2.562      8.449
REMARK  Name = 
REMARK  9 active torsions:
REMARK  status: ('A' for Active; 'I' for Inactive)
REMARK    1  A    between atoms: C_2  and  O_3
REMARK    2  A    between atoms: C_2  and  C_4
REMARK    3  A    between atoms: C_4  and  C_5
REMARK    4  A    between atoms: C_5  and  N_6
REMARK    5  A    between atoms: C_5  and  C_25
REMARK    6  A    between atoms: C_7  and  C_9
REMARK    7  A    between atoms: C_14  and  C_16
REMARK    8  A    between atoms: C_16  and  C_17
REMARK    9  A    between atoms: C_17  and  C_18
REMARK                            x       y       z     vdW  Elec       q    Type
REMARK                         _______ _______ _______ _____ _____    ______ ____
ROOT
ATOM      1  N   UNL     1       1.074   7.412  20.704  0.00  0.00    +0.000 N 
ATOM      2  C   UNL     1       1.850   6.399  20.233  0.00  0.00    +0.000 C 
ATOM      3  O   UNL     1       3.033   6.545  19.940  0.00  0.00    +0.000 OA
ATOM      4  H   UNL     1       0.080   7.272  20.596  0.00  0.00    +0.000 HD
ENDROOT
BRANCH   2   5
ATOM      5  C   UNL     1       1.096   5.086  19.963  0.00  0.00    +0.000 C 
ATOM      6  C   UNL     1       1.115   4.179  21.202  0.00  0.00    +0.000 C 
ATOM      7  C   UNL     1       2.436   3.438  21.395  0.00  0.00    +0.000 C 
ATOM      8  C   UNL     1       2.937   2.785  20.115  0.00  0.00    +0.000 C 
ATOM      9  N   UNL     1       2.913   3.712  18.982  0.00  0.00    +0.000 N 
ATOM     10  C   UNL     1       3.998   4.073  18.180  0.00  0.00    +0.000 C 
ATOM     11  O   UNL     1       3.863   4.706  17.132  0.00  0.00    +0.000 OA
ATOM     12  C   UNL     1       1.599   4.320  18.721  0.00  0.00    +0.000 C 
BRANCH  10  13
ATOM     13  C   UNL     1       5.387   3.871  18.765  0.00  0.00    +0.000 C 
BRANCH  13  14
ATOM     14  C   UNL     1       6.029   5.148  19.262  0.00  0.00    +0.000 C 
BRANCH  14  15
ATOM     15  C   UNL     1       7.418   5.438  18.656  0.00  0.00    +0.000 C 
ATOM     16  C   UNL     1       7.414   6.855  18.064  0.00  0.00    +0.000 C 
ATOM     17  C   UNL     1       6.701   6.912  16.710  0.00  0.00    +0.000 C 
ATOM     18  N   UNL     1       7.303   5.999  15.739  0.00  0.00    +0.000 NA
ATOM     19  C   UNL     1       7.280   4.615  16.215  0.00  0.00    +0.000 C 
ATOM     20  C   UNL     1       7.938   4.458  17.586  0.00  0.00    +0.000 C 
ATOM     21  H   UNL     1       8.274   6.277  15.588  0.00  0.00    +0.000 HD
ENDBRANCH  14  15
ENDBRANCH  13  14
ENDBRANCH  10  13
ENDBRANCH   2   5
BRANCH   1  22
ATOM     22  C   UNL     1       1.456   8.781  21.024  0.00  0.00    +0.000 C 
BRANCH  22  23
ATOM     23  C   UNL     1       0.728   9.788  20.141  0.00  0.00    +0.000 A 
ATOM     24  C   UNL     1       1.232  11.111  19.995  0.00  0.00    +0.000 A 
ATOM     25  C   UNL     1       0.554  12.073  19.223  0.00  0.00    +0.000 A 
ATOM     26  C   UNL     1      -0.629  11.692  18.622  0.00  0.00    +0.000 A 
ATOM     27  C   UNL     1      -1.114  10.412  18.756  0.00  0.00    +0.000 A 
ATOM     28  C   UNL     1      -0.462   9.449  19.487  0.00  0.00    +0.000 A 
ATOM     29  O   UNL     1      -2.290  10.225  18.095  0.00  0.00    +0.000 OA
ATOM     30  C   UNL     1      -2.512  11.549  17.577  0.00  0.00    +0.000 C 
ATOM     31  O   UNL     1      -1.439  12.469  17.855  0.00  0.00    +0.000 OA
ENDBRANCH  22  23
BRANCH  22  32
ATOM     32  C   UNL     1       1.385   9.026  22.543  0.00  0.00    +0.000 C 
BRANCH  32  34
ATOM     33  O   UNL     1      -0.277  10.601  23.275  0.00  0.00    +0.000 OA
ATOM     34  C   UNL     1      -0.006   9.467  22.934  0.00  0.00    +0.000 C 
BRANCH  34  35
ATOM     35  O   UNL     1      -0.941   8.500  22.878  0.00  0.00    +0.000 OA
ATOM     36  H   UNL     1      -1.847   8.811  22.703  0.00  0.00    +0.000 HD
ENDBRANCH  34  35
ENDBRANCH  32  34
ENDBRANCH  22  32
ENDBRANCH   1  22
TORSDOF 9
ENDMDL
