MODEL 1
REMARK VINA RESULT:      -4.8      0.000      0.000
REMARK  Name = 
REMARK  2 active torsions:
REMARK  status: ('A' for Active; 'I' for Inactive)
REMARK    1  A    between atoms: C_2  and  N_4
REMARK    2  A    between atoms: N_7  and  C_8
REMARK                            x       y       z     vdW  Elec       q    Type
REMARK                         _______ _______ _______ _____ _____    ______ ____
ROOT
ATOM      1  N   UNL     1       3.160   3.775  19.135  0.00  0.00    +0.000 N 
ATOM      2  C   UNL     1       3.683   5.090  19.582  0.00  0.00    +0.000 C 
ATOM      3  C   UNL     1       5.079   5.359  19.001  0.00  0.00    +0.000 C 
ATOM      4  N   UNL     1       5.230   5.093  17.556  0.00  0.00    +0.000 N 
ATOM      5  C   UNL     1       4.404   4.019  16.966  0.00  0.00    +0.000 C 
ATOM      6  C   UNL     1       3.044   3.791  17.642  0.00  0.00    +0.000 C 
ENDROOT
BRANCH   1   8
ATOM      7  S   UNL     1       0.937   2.446  18.844  0.00  0.00    +0.000 S 
ATOM      8  C   UNL     1       2.138   3.214  19.802  0.00  0.00    +0.000 C 
ATOM      9  S   UNL     1       2.053   2.979  21.476  0.00  0.00    +0.000 SA
ENDBRANCH   1   8
BRANCH   4  10
ATOM     10  C   UNL     1       6.365   5.503  16.909  0.00  0.00    +0.000 C 
ATOM     11  S   UNL     1       7.294   6.808  17.508  0.00  0.00    +0.000 S 
ATOM     12  S   UNL     1       6.860   4.758  15.452  0.00  0.00    +0.000 SA
ENDBRANCH   4  10
TORSDOF 2
ENDMDL
MODEL 2
REMARK VINA RESULT:      -4.8      0.057      1.200
REMARK  Name = 
REMARK  2 active torsions:
REMARK  status: ('A' for Active; 'I' for Inactive)
REMARK    1  A    between atoms: C_2  and  N_4
REMARK    2  A    between atoms: N_7  and  C_8
REMARK                            x       y       z     vdW  Elec       q    Type
REMARK                         _______ _______ _______ _____ _____    ______ ____
ROOT
ATOM      1  N   UNL     1       3.144   3.749  19.134  0.00  0.00    +0.000 N 
ATOM      2  C   UNL     1       3.618   5.096  19.540  0.00  0.00    +0.000 C 
ATOM      3  C   UNL     1       5.014   5.388  18.969  0.00  0.00    +0.000 C 
ATOM      4  N   UNL     1       5.195   5.075  17.537  0.00  0.00    +0.000 N 
ATOM      5  C   UNL     1       4.412   3.954  16.976  0.00  0.00    +0.000 C 
ATOM      6  C   UNL     1       3.049   3.708  17.640  0.00  0.00    +0.000 C 
ENDROOT
BRANCH   1   8
ATOM      7  S   UNL     1       0.909   2.437  18.855  0.00  0.00    +0.000 S 
ATOM      8  C   UNL     1       2.130   3.181  19.807  0.00  0.00    +0.000 C 
ATOM      9  S   UNL     1       2.071   2.914  21.477  0.00  0.00    +0.000 SA
ENDBRANCH   1   8
BRANCH   4  10
ATOM     10  C   UNL     1       6.326   5.497  16.891  0.00  0.00    +0.000 C 
ATOM     11  S   UNL     1       6.842   4.744  15.445  0.00  0.00    +0.000 S 
ATOM     12  S   UNL     1       7.286   6.756  17.536  0.00  0.00    +0.000 SA
ENDBRANCH   4  10
TORSDOF 2
ENDMDL
MODEL 3
REMARK VINA RESULT:      -4.8      0.902      5.306
REMARK  Name = 
REMARK  2 active torsions:
REMARK  status: ('A' for Active; 'I' for Inactive)
REMARK    1  A    between atoms: C_2  and  N_4
REMARK    2  A    between atoms: N_7  and  C_8
REMARK                            x       y       z     vdW  Elec       q    Type
REMARK                         _______ _______ _______ _____ _____    ______ ____
ROOT
ATOM      1  N   UNL     1       5.259   4.959  17.381  0.00  0.00    +0.000 N 
ATOM      2  C   UNL     1       4.002   5.737  17.514  0.00  0.00    +0.000 C 
ATOM      3  C   UNL     1       2.847   4.847  17.996  0.00  0.00    +0.000 C 
ATOM      4  N   UNL     1       3.154   3.968  19.142  0.00  0.00    +0.000 N 
ATOM      5  C   UNL     1       4.542   3.476  19.276  0.00  0.00    +0.000 C 
ATOM      6  C   UNL     1       5.627   4.413  18.726  0.00  0.00    +0.000 C 
ENDROOT
BRANCH   1   8
ATOM      7  S   UNL     1       7.169   6.732  17.376  0.00  0.00    +0.000 S 
ATOM      8  C   UNL     1       6.268   5.463  16.651  0.00  0.00    +0.000 C 
ATOM      9  S   UNL     1       6.881   4.808  15.216  0.00  0.00    +0.000 SA
ENDBRANCH   1   8
BRANCH   4  10
ATOM     10  C   UNL     1       2.139   3.302  19.774  0.00  0.00    +0.000 C 
ATOM     11  S   UNL     1       2.044   3.264  21.481  0.00  0.00    +0.000 S 
ATOM     12  S   UNL     1       0.963   2.443  18.878  0.00  0.00    +0.000 SA
ENDBRANCH   4  10
TORSDOF 2
ENDMDL
MODEL 4
REMARK VINA RESULT:      -4.8      0.904      5.423
REMARK  Name = 
REMARK  2 active torsions:
REMARK  status: ('A' for Active; 'I' for Inactive)
REMARK    1  A    between atoms: C_2  and  N_4
REMARK    2  A    between atoms: N_7  and  C_8
REMARK                            x       y       z     vdW  Elec       q    Type
REMARK                         _______ _______ _______ _____ _____    ______ ____
ROOT
ATOM      1  N   UNL     1       5.266   4.955  17.375  0.00  0.00    +0.000 N 
ATOM      2  C   UNL     1       4.005   5.726  17.516  0.00  0.00    +0.000 C 
ATOM      3  C   UNL     1       2.856   4.827  17.997  0.00  0.00    +0.000 C 
ATOM      4  N   UNL     1       3.172   3.945  19.138  0.00  0.00    +0.000 N 
ATOM      5  C   UNL     1       4.562   3.459  19.265  0.00  0.00    +0.000 C 
ATOM      6  C   UNL     1       5.641   4.404  18.716  0.00  0.00    +0.000 C 
ENDROOT
BRANCH   1   8
ATOM      7  S   UNL     1       7.171   6.734  17.376  0.00  0.00    +0.000 S 
ATOM      8  C   UNL     1       6.270   5.468  16.644  0.00  0.00    +0.000 C 
ATOM      9  S   UNL     1       6.877   4.827  15.201  0.00  0.00    +0.000 SA
ENDBRANCH   1   8
BRANCH   4  10
ATOM     10  C   UNL     1       2.161   3.270  19.770  0.00  0.00    +0.000 C 
ATOM     11  S   UNL     1       0.936   2.485  18.873  0.00  0.00    +0.000 S 
ATOM     12  S   UNL     1       2.065   3.236  21.476  0.00  0.00    +0.000 SA
ENDBRANCH   4  10
TORSDOF 2
ENDMDL
MODEL 5
REMARK VINA RESULT:      -4.8      0.673      1.910
REMARK  Name = 
REMARK  2 active torsions:
REMARK  status: ('A' for Active; 'I' for Inactive)
REMARK    1  A    between atoms: C_2  and  N_4
REMARK    2  A    between atoms: N_7  and  C_8
REMARK                            x       y       z     vdW  Elec       q    Type
REMARK                         _______ _______ _______ _____ _____    ______ ____
ROOT
ATOM      1  N   UNL     1       3.169   3.629  18.973  0.00  0.00    +0.000 N 
ATOM      2  C   UNL     1       3.234   3.284  17.531  0.00  0.00    +0.000 C 
ATOM      3  C   UNL     1       4.142   4.260  16.768  0.00  0.00    +0.000 C 
ATOM      4  N   UNL     1       5.449   4.538  17.396  0.00  0.00    +0.000 N 
ATOM      5  C   UNL     1       5.524   4.495  18.872  0.00  0.00    +0.000 C 
ATOM      6  C   UNL     1       4.547   3.524  19.551  0.00  0.00    +0.000 C 
ENDROOT
BRANCH   1   8
ATOM      7  S   UNL     1       0.902   2.346  18.872  0.00  0.00    +0.000 S 
ATOM      8  C   UNL     1       2.174   3.127  19.723  0.00  0.00    +0.000 C 
ATOM      9  S   UNL     1       2.178   2.974  21.409  0.00  0.00    +0.000 SA
ENDBRANCH   1   8
BRANCH   4  10
ATOM     10  C   UNL     1       6.406   5.219  16.692  0.00  0.00    +0.000 C 
ATOM     11  S   UNL     1       6.858   4.722  15.120  0.00  0.00    +0.000 S 
ATOM     12  S   UNL     1       7.217   6.555  17.384  0.00  0.00    +0.000 SA
ENDBRANCH   4  10
TORSDOF 2
ENDMDL
MODEL 6
REMARK VINA RESULT:      -4.7      0.153      1.191
REMARK  Name = 
REMARK  2 active torsions:
REMARK  status: ('A' for Active; 'I' for Inactive)
REMARK    1  A    between atoms: C_2  and  N_4
REMARK    2  A    between atoms: N_7  and  C_8
REMARK                            x       y       z     vdW  Elec       q    Type
REMARK                         _______ _______ _______ _____ _____    ______ ____
ROOT
ATOM      1  N   UNL     1       3.226   3.630  19.053  0.00  0.00    +0.000 N 
ATOM      2  C   UNL     1       3.695   4.956  19.529  0.00  0.00    +0.000 C 
ATOM      3  C   UNL     1       5.094   5.277  18.984  0.00  0.00    +0.000 C 
ATOM      4  N   UNL     1       5.288   5.036  17.541  0.00  0.00    +0.000 N 
ATOM      5  C   UNL     1       4.510   3.943  16.918  0.00  0.00    +0.000 C 
ATOM      6  C   UNL     1       3.143   3.663  17.558  0.00  0.00    +0.000 C 
ENDROOT
BRANCH   1   8
ATOM      7  S   UNL     1       2.205   3.148  21.403  0.00  0.00    +0.000 S 
ATOM      8  C   UNL     1       2.207   3.028  19.689  0.00  0.00    +0.000 C 
ATOM      9  S   UNL     1       0.819   2.390  18.962  0.00  0.00    +0.000 SA
ENDBRANCH   1   8
BRANCH   4  10
ATOM     10  C   UNL     1       6.423   5.491  16.925  0.00  0.00    +0.000 C 
ATOM     11  S   UNL     1       7.323   6.783  17.589  0.00  0.00    +0.000 S 
ATOM     12  S   UNL     1       6.947   4.815  15.445  0.00  0.00    +0.000 SA
ENDBRANCH   4  10
TORSDOF 2
ENDMDL
MODEL 7
REMARK VINA RESULT:      -4.7      0.876      5.320
REMARK  Name = 
REMARK  2 active torsions:
REMARK  status: ('A' for Active; 'I' for Inactive)
REMARK    1  A    between atoms: C_2  and  N_4
REMARK    2  A    between atoms: N_7  and  C_8
REMARK                            x       y       z     vdW  Elec       q    Type
REMARK                         _______ _______ _______ _____ _____    ______ ____
ROOT
ATOM      1  N   UNL     1       5.379   5.019  17.601  0.00  0.00    +0.000 N 
ATOM      2  C   UNL     1       4.096   5.763  17.666  0.00  0.00    +0.000 C 
ATOM      3  C   UNL     1       2.936   4.837  18.058  0.00  0.00    +0.000 C 
ATOM      4  N   UNL     1       3.191   3.946  19.207  0.00  0.00    +0.000 N 
ATOM      5  C   UNL     1       4.580   3.485  19.423  0.00  0.00    +0.000 C 
ATOM      6  C   UNL     1       5.673   4.458  18.958  0.00  0.00    +0.000 C 
ENDROOT
BRANCH   1   8
ATOM      7  S   UNL     1       6.777   4.890  15.405  0.00  0.00    +0.000 S 
ATOM      8  C   UNL     1       6.418   5.560  16.946  0.00  0.00    +0.000 C 
ATOM      9  S   UNL     1       7.236   6.978  17.377  0.00  0.00    +0.000 SA
ENDBRANCH   1   8
BRANCH   4  10
ATOM     10  C   UNL     1       2.155   3.243  19.762  0.00  0.00    +0.000 C 
ATOM     11  S   UNL     1       0.971   2.502  18.777  0.00  0.00    +0.000 S 
ATOM     12  S   UNL     1       1.983   3.131  21.459  0.00  0.00    +0.000 SA
ENDBRANCH   4  10
TORSDOF 2
ENDMDL
MODEL 8
REMARK VINA RESULT:      -4.7      0.888      5.201
REMARK  Name = 
REMARK  2 active torsions:
REMARK  status: ('A' for Active; 'I' for Inactive)
REMARK    1  A    between atoms: C_2  and  N_4
REMARK    2  A    between atoms: N_7  and  C_8
REMARK                            x       y       z     vdW  Elec       q    Type
REMARK                         _______ _______ _______ _____ _____    ______ ____
ROOT
ATOM      1  N   UNL     1       5.366   5.027  17.588  0.00  0.00    +0.000 N 
ATOM      2  C   UNL     1       4.099   5.796  17.684  0.00  0.00    +0.000 C 
ATOM      3  C   UNL     1       2.925   4.884  18.071  0.00  0.00    +0.000 C 
ATOM      4  N   UNL     1       3.176   3.964  19.198  0.00  0.00    +0.000 N 
ATOM      5  C   UNL     1       4.558   3.472  19.387  0.00  0.00    +0.000 C 
ATOM      6  C   UNL     1       5.665   4.433  18.930  0.00  0.00    +0.000 C 
ENDROOT
BRANCH   1   8
ATOM      7  S   UNL     1       6.748   4.904  15.382  0.00  0.00    +0.000 S 
ATOM      8  C   UNL     1       6.408   5.562  16.932  0.00  0.00    +0.000 C 
ATOM      9  S   UNL     1       7.248   6.964  17.373  0.00  0.00    +0.000 SA
ENDBRANCH   1   8
BRANCH   4  10
ATOM     10  C   UNL     1       2.133   3.271  19.751  0.00  0.00    +0.000 C 
ATOM     11  S   UNL     1       1.968   3.141  21.447  0.00  0.00    +0.000 S 
ATOM     12  S   UNL     1       0.991   2.470  18.762  0.00  0.00    +0.000 SA
ENDBRANCH   4  10
TORSDOF 2
ENDMDL
MODEL 9
REMARK VINA RESULT:      -4.7      0.205      1.690
REMARK  Name = 
REMARK  2 active torsions:
REMARK  status: ('A' for Active; 'I' for Inactive)
REMARK    1  A    between atoms: C_2  and  N_4
REMARK    2  A    between atoms: N_7  and  C_8
REMARK                            x       y       z     vdW  Elec       q    Type
REMARK                         _______ _______ _______ _____ _____    ______ ____
ROOT
ATOM      1  N   UNL     1       3.203   3.780  19.036  0.00  0.00    +0.000 N 
ATOM      2  C   UNL     1       3.797   5.015  19.606  0.00  0.00    +0.000 C 
ATOM      3  C   UNL     1       5.181   5.295  19.001  0.00  0.00    +0.000 C 
ATOM      4  N   UNL     1       5.268   5.189  17.531  0.00  0.00    +0.000 N 
ATOM      5  C   UNL     1       4.375   4.222  16.859  0.00  0.00    +0.000 C 
ATOM      6  C   UNL     1       3.032   3.971  17.560  0.00  0.00    +0.000 C 
ENDROOT
BRANCH   1   8
ATOM      7  S   UNL     1       2.075   3.480  21.366  0.00  0.00    +0.000 S 
ATOM      8  C   UNL     1       2.183   3.187  19.677  0.00  0.00    +0.000 C 
ATOM      9  S   UNL     1       0.875   2.397  18.949  0.00  0.00    +0.000 SA
ENDBRANCH   1   8
BRANCH   4  10
ATOM     10  C   UNL     1       6.395   5.627  16.887  0.00  0.00    +0.000 C 
ATOM     11  S   UNL     1       6.966   4.834  15.485  0.00  0.00    +0.000 S 
ATOM     12  S   UNL     1       7.295   6.946  17.496  0.00  0.00    +0.000 SA
ENDBRANCH   4  10
TORSDOF 2
ENDMDL
