MODEL 1
REMARK VINA RESULT:      -7.2      0.000      0.000
REMARK  Name = 
REMARK  3 active torsions:
REMARK  status: ('A' for Active; 'I' for Inactive)
REMARK    1  A    between atoms: C_2  and  C_3
REMARK    2  A    between atoms: C_5  and  S_6
REMARK    3  A    between atoms: S_6  and  N_9
REMARK                            x       y       z     vdW  Elec       q    Type
REMARK                         _______ _______ _______ _____ _____    ______ ____
ROOT
ATOM      1  C   UNL     1       2.264   6.514  18.992  0.00  0.00    +0.000 A 
ATOM      2  C   UNL     1       2.175   7.860  18.589  0.00  0.00    +0.000 A 
ATOM      3  C   UNL     1       1.578   8.854  19.403  0.00  0.00    +0.000 A 
ATOM      4  C   UNL     1       1.102   8.507  20.658  0.00  0.00    +0.000 A 
ATOM      5 CL   UNL     1       0.246   9.546  21.735  0.00  0.00    +0.000 Cl
ATOM      6  C   UNL     1       1.342   7.214  21.133  0.00  0.00    +0.000 A 
ATOM      7  C   UNL     1       1.936   6.230  20.327  0.00  0.00    +0.000 A 
ATOM      8 CL   UNL     1       2.235   4.720  21.120  0.00  0.00    +0.000 Cl
ENDROOT
BRANCH   1  10
ATOM      9  O   UNL     1       1.853   4.723  17.531  0.00  0.00    +0.000 OA
ATOM     10  C   UNL     1       2.720   5.427  18.051  0.00  0.00    +0.000 C 
ATOM     11  N   UNL     1       4.077   5.229  17.737  0.00  0.00    +0.000 N 
ATOM     12  C   UNL     1       5.241   5.920  18.288  0.00  0.00    +0.000 C 
ATOM     13  C   UNL     1       6.092   6.547  17.199  0.00  0.00    +0.000 C 
ATOM     14  C   UNL     1       6.485   5.542  16.131  0.00  0.00    +0.000 C 
ATOM     15  C   UNL     1       5.285   4.739  15.628  0.00  0.00    +0.000 C 
ATOM     16  C   UNL     1       4.433   4.178  16.771  0.00  0.00    +0.000 C 
ENDBRANCH   1  10
BRANCH   3  17
ATOM     17  S   UNL     1       1.351  10.472  18.664  0.00  0.00    +0.000 S 
ATOM     18  O   UNL     1       1.655  11.422  19.698  0.00  0.00    +0.000 OA
ATOM     19  O   UNL     1       2.077  10.533  17.412  0.00  0.00    +0.000 OA
BRANCH  17  20
ATOM     20  N   UNL     1      -0.287  10.530  18.315  0.00  0.00    +0.000 N 
ATOM     21  C   UNL     1      -0.892   9.548  17.409  0.00  0.00    +0.000 C 
ATOM     22  C   UNL     1      -2.267  10.170  17.151  0.00  0.00    +0.000 C 
ATOM     23  C   UNL     1      -2.594  10.967  18.413  0.00  0.00    +0.000 C 
ATOM     24  C   UNL     1      -1.229  11.391  18.903  0.00  0.00    +0.000 C 
ATOM     25  O   UNL     1      -1.009  12.244  19.744  0.00  0.00    +0.000 OA
ENDBRANCH  17  20
ENDBRANCH   3  17
TORSDOF 3
ENDMDL
MODEL 2
REMARK VINA RESULT:      -7.0      1.343      2.131
REMARK  Name = 
REMARK  3 active torsions:
REMARK  status: ('A' for Active; 'I' for Inactive)
REMARK    1  A    between atoms: C_2  and  C_3
REMARK    2  A    between atoms: C_5  and  S_6
REMARK    3  A    between atoms: S_6  and  N_9
REMARK                            x       y       z     vdW  Elec       q    Type
REMARK                         _______ _______ _______ _____ _____    ______ ____
ROOT
ATOM      1  C   UNL     1       2.552   6.982  19.225  0.00  0.00    +0.000 A 
ATOM      2  C   UNL     1       2.349   8.333  18.886  0.00  0.00    +0.000 A 
ATOM      3  C   UNL     1       1.435   9.158  19.589  0.00  0.00    +0.000 A 
ATOM      4  C   UNL     1       0.746   8.637  20.673  0.00  0.00    +0.000 A 
ATOM      5 CL   UNL     1      -0.483   9.447  21.570  0.00  0.00    +0.000 Cl
ATOM      6  C   UNL     1       1.069   7.353  21.119  0.00  0.00    +0.000 A 
ATOM      7  C   UNL     1       1.977   6.537  20.425  0.00  0.00    +0.000 A 
ATOM      8 CL   UNL     1       2.318   5.017  21.183  0.00  0.00    +0.000 Cl
ENDROOT
BRANCH   1  10
ATOM      9  O   UNL     1       4.555   6.350  18.175  0.00  0.00    +0.000 OA
ATOM     10  C   UNL     1       3.374   6.056  18.362  0.00  0.00    +0.000 C 
ATOM     11  N   UNL     1       2.841   4.876  17.812  0.00  0.00    +0.000 N 
ATOM     12  C   UNL     1       1.464   4.391  17.879  0.00  0.00    +0.000 C 
ATOM     13  C   UNL     1       1.387   2.992  18.460  0.00  0.00    +0.000 C 
ATOM     14  C   UNL     1       2.294   2.018  17.729  0.00  0.00    +0.000 C 
ATOM     15  C   UNL     1       3.711   2.568  17.561  0.00  0.00    +0.000 C 
ATOM     16  C   UNL     1       3.723   4.003  17.023  0.00  0.00    +0.000 C 
ENDBRANCH   1  10
BRANCH   3  17
ATOM     17  S   UNL     1       1.135  10.789  18.907  0.00  0.00    +0.000 S 
ATOM     18  O   UNL     1       1.236  11.702  20.012  0.00  0.00    +0.000 OA
ATOM     19  O   UNL     1       1.980  10.987  17.747  0.00  0.00    +0.000 OA
BRANCH  17  20
ATOM     20  N   UNL     1      -0.455  10.719  18.382  0.00  0.00    +0.000 N 
ATOM     21  C   UNL     1      -0.914   9.613  17.535  0.00  0.00    +0.000 C 
ATOM     22  C   UNL     1      -2.277  10.128  17.063  0.00  0.00    +0.000 C 
ATOM     23  C   UNL     1      -2.775  11.040  18.185  0.00  0.00    +0.000 C 
ATOM     24  C   UNL     1      -1.492  11.587  18.764  0.00  0.00    +0.000 C 
ATOM     25  O   UNL     1      -1.402  12.538  19.520  0.00  0.00    +0.000 OA
ENDBRANCH  17  20
ENDBRANCH   3  17
TORSDOF 3
ENDMDL
MODEL 3
REMARK VINA RESULT:      -6.9      5.027      6.751
REMARK  Name = 
REMARK  3 active torsions:
REMARK  status: ('A' for Active; 'I' for Inactive)
REMARK    1  A    between atoms: C_2  and  C_3
REMARK    2  A    between atoms: C_5  and  S_6
REMARK    3  A    between atoms: S_6  and  N_9
REMARK                            x       y       z     vdW  Elec       q    Type
REMARK                         _______ _______ _______ _____ _____    ______ ____
ROOT
ATOM      1  C   UNL     1       5.599   5.060  16.332  0.00  0.00    +0.000 A 
ATOM      2  C   UNL     1       4.417   4.314  16.505  0.00  0.00    +0.000 A 
ATOM      3  C   UNL     1       3.518   4.560  17.573  0.00  0.00    +0.000 A 
ATOM      4  C   UNL     1       3.782   5.595  18.457  0.00  0.00    +0.000 A 
ATOM      5 CL   UNL     1       2.873   5.968  19.873  0.00  0.00    +0.000 Cl
ATOM      6  C   UNL     1       4.859   6.446  18.191  0.00  0.00    +0.000 A 
ATOM      7  C   UNL     1       5.748   6.204  17.132  0.00  0.00    +0.000 A 
ATOM      8 CL   UNL     1       6.962   7.418  16.906  0.00  0.00    +0.000 Cl
ENDROOT
BRANCH   1  10
ATOM      9  O   UNL     1       7.794   4.489  15.726  0.00  0.00    +0.000 OA
ATOM     10  C   UNL     1       6.646   4.674  15.318  0.00  0.00    +0.000 C 
ATOM     11  N   UNL     1       6.339   4.491  13.957  0.00  0.00    +0.000 N 
ATOM     12  C   UNL     1       5.062   4.712  13.283  0.00  0.00    +0.000 C 
ATOM     13  C   UNL     1       4.590   3.472  12.547  0.00  0.00    +0.000 C 
ATOM     14  C   UNL     1       5.646   2.935  11.597  0.00  0.00    +0.000 C 
ATOM     15  C   UNL     1       7.012   2.803  12.270  0.00  0.00    +0.000 C 
ATOM     16  C   UNL     1       7.410   4.065  13.042  0.00  0.00    +0.000 C 
ENDBRANCH   1  10
BRANCH   3  17
ATOM     17  S   UNL     1       2.173   3.393  17.777  0.00  0.00    +0.000 S 
ATOM     18  O   UNL     1       0.974   4.114  17.447  0.00  0.00    +0.000 OA
ATOM     19  O   UNL     1       2.484   2.172  17.063  0.00  0.00    +0.000 OA
BRANCH  17  20
ATOM     20  N   UNL     1       2.184   3.049  19.417  0.00  0.00    +0.000 N 
ATOM     21  C   UNL     1       0.950   3.134  20.206  0.00  0.00    +0.000 C 
ATOM     22  C   UNL     1       1.491   3.058  21.637  0.00  0.00    +0.000 C 
ATOM     23  C   UNL     1       2.774   2.234  21.541  0.00  0.00    +0.000 C 
ATOM     24  C   UNL     1       3.275   2.557  20.153  0.00  0.00    +0.000 C 
ATOM     25  O   UNL     1       4.391   2.318  19.727  0.00  0.00    +0.000 OA
ENDBRANCH  17  20
ENDBRANCH   3  17
TORSDOF 3
ENDMDL
MODEL 4
REMARK VINA RESULT:      -6.9      0.748      1.205
REMARK  Name = 
REMARK  3 active torsions:
REMARK  status: ('A' for Active; 'I' for Inactive)
REMARK    1  A    between atoms: C_2  and  C_3
REMARK    2  A    between atoms: C_5  and  S_6
REMARK    3  A    between atoms: S_6  and  N_9
REMARK                            x       y       z     vdW  Elec       q    Type
REMARK                         _______ _______ _______ _____ _____    ______ ____
ROOT
ATOM      1  C   UNL     1       2.209   6.692  19.027  0.00  0.00    +0.000 A 
ATOM      2  C   UNL     1       2.171   8.043  18.631  0.00  0.00    +0.000 A 
ATOM      3  C   UNL     1       1.588   9.051  19.439  0.00  0.00    +0.000 A 
ATOM      4  C   UNL     1       1.074   8.711  20.681  0.00  0.00    +0.000 A 
ATOM      5 CL   UNL     1       0.228   9.770  21.746  0.00  0.00    +0.000 Cl
ATOM      6  C   UNL     1       1.262   7.409  21.152  0.00  0.00    +0.000 A 
ATOM      7  C   UNL     1       1.842   6.411  20.353  0.00  0.00    +0.000 A 
ATOM      8 CL   UNL     1       2.075   4.888  21.142  0.00  0.00    +0.000 Cl
ENDROOT
BRANCH   1  10
ATOM      9  O   UNL     1       1.774   4.914  17.557  0.00  0.00    +0.000 OA
ATOM     10  C   UNL     1       2.650   5.596  18.090  0.00  0.00    +0.000 C 
ATOM     11  N   UNL     1       4.006   5.369  17.790  0.00  0.00    +0.000 N 
ATOM     12  C   UNL     1       5.178   6.032  18.356  0.00  0.00    +0.000 C 
ATOM     13  C   UNL     1       6.056   6.641  17.278  0.00  0.00    +0.000 C 
ATOM     14  C   UNL     1       6.438   5.629  16.212  0.00  0.00    +0.000 C 
ATOM     15  C   UNL     1       5.226   4.855  15.694  0.00  0.00    +0.000 C 
ATOM     16  C   UNL     1       4.349   4.311  16.827  0.00  0.00    +0.000 C 
ENDBRANCH   1  10
BRANCH   3  17
ATOM     17  S   UNL     1       1.430  10.679  18.706  0.00  0.00    +0.000 S 
ATOM     18  O   UNL     1       1.980  11.597  19.666  0.00  0.00    +0.000 OA
ATOM     19  O   UNL     1       1.969  10.655  17.362  0.00  0.00    +0.000 OA
BRANCH  17  20
ATOM     20  N   UNL     1      -0.226  10.912  18.595  0.00  0.00    +0.000 N 
ATOM     21  C   UNL     1      -0.868  12.043  19.273  0.00  0.00    +0.000 C 
ATOM     22  C   UNL     1      -2.349  11.671  19.162  0.00  0.00    +0.000 C 
ATOM     23  C   UNL     1      -2.464  10.844  17.882  0.00  0.00    +0.000 C 
ATOM     24  C   UNL     1      -1.114  10.172  17.797  0.00  0.00    +0.000 C 
ATOM     25  O   UNL     1      -0.833   9.233  17.074  0.00  0.00    +0.000 OA
ENDBRANCH  17  20
ENDBRANCH   3  17
TORSDOF 3
ENDMDL
MODEL 5
REMARK VINA RESULT:      -6.8      3.213      6.996
REMARK  Name = 
REMARK  3 active torsions:
REMARK  status: ('A' for Active; 'I' for Inactive)
REMARK    1  A    between atoms: C_2  and  C_3
REMARK    2  A    between atoms: C_5  and  S_6
REMARK    3  A    between atoms: S_6  and  N_9
REMARK                            x       y       z     vdW  Elec       q    Type
REMARK                         _______ _______ _______ _____ _____    ______ ____
ROOT
ATOM      1  C   UNL     1       2.424   6.283  19.147  0.00  0.00    +0.000 A 
ATOM      2  C   UNL     1       3.345   6.550  18.117  0.00  0.00    +0.000 A 
ATOM      3  C   UNL     1       4.022   5.516  17.423  0.00  0.00    +0.000 A 
ATOM      4  C   UNL     1       3.743   4.194  17.734  0.00  0.00    +0.000 A 
ATOM      5 CL   UNL     1       4.545   2.814  17.085  0.00  0.00    +0.000 Cl
ATOM      6  C   UNL     1       2.707   3.921  18.633  0.00  0.00    +0.000 A 
ATOM      7  C   UNL     1       2.034   4.945  19.317  0.00  0.00    +0.000 A 
ATOM      8 CL   UNL     1       0.722   4.415  20.315  0.00  0.00    +0.000 Cl
ENDROOT
BRANCH   1  10
ATOM      9  O   UNL     1       1.851   7.200  21.231  0.00  0.00    +0.000 OA
ATOM     10  C   UNL     1       1.852   7.378  20.012  0.00  0.00    +0.000 C 
ATOM     11  N   UNL     1       1.368   8.583  19.472  0.00  0.00    +0.000 N 
ATOM     12  C   UNL     1       1.240   8.954  18.064  0.00  0.00    +0.000 C 
ATOM     13  C   UNL     1       1.970  10.247  17.752  0.00  0.00    +0.000 C 
ATOM     14  C   UNL     1       1.550  11.378  18.675  0.00  0.00    +0.000 C 
ATOM     15  C   UNL     1       1.578  10.961  20.145  0.00  0.00    +0.000 C 
ATOM     16  C   UNL     1       0.874   9.622  20.389  0.00  0.00    +0.000 C 
ENDBRANCH   1  10
BRANCH   3  17
ATOM     17  S   UNL     1       5.315   6.021  16.288  0.00  0.00    +0.000 S 
ATOM     18  O   UNL     1       5.710   4.829  15.588  0.00  0.00    +0.000 OA
ATOM     19  O   UNL     1       4.866   7.170  15.530  0.00  0.00    +0.000 OA
BRANCH  17  20
ATOM     20  N   UNL     1       6.561   6.518  17.292  0.00  0.00    +0.000 N 
ATOM     21  C   UNL     1       6.877   7.943  17.439  0.00  0.00    +0.000 C 
ATOM     22  C   UNL     1       8.227   7.889  18.160  0.00  0.00    +0.000 C 
ATOM     23  C   UNL     1       8.198   6.598  18.977  0.00  0.00    +0.000 C 
ATOM     24  C   UNL     1       7.317   5.696  18.144  0.00  0.00    +0.000 C 
ATOM     25  O   UNL     1       7.206   4.490  18.278  0.00  0.00    +0.000 OA
ENDBRANCH  17  20
ENDBRANCH   3  17
TORSDOF 3
ENDMDL
MODEL 6
REMARK VINA RESULT:      -6.8      2.616      3.670
REMARK  Name = 
REMARK  3 active torsions:
REMARK  status: ('A' for Active; 'I' for Inactive)
REMARK    1  A    between atoms: C_2  and  C_3
REMARK    2  A    between atoms: C_5  and  S_6
REMARK    3  A    between atoms: S_6  and  N_9
REMARK                            x       y       z     vdW  Elec       q    Type
REMARK                         _______ _______ _______ _____ _____    ______ ____
ROOT
ATOM      1  C   UNL     1       3.017   6.885  19.051  0.00  0.00    +0.000 A 
ATOM      2  C   UNL     1       2.031   7.521  19.831  0.00  0.00    +0.000 A 
ATOM      3  C   UNL     1       1.572   8.830  19.546  0.00  0.00    +0.000 A 
ATOM      4  C   UNL     1       2.073   9.499  18.440  0.00  0.00    +0.000 A 
ATOM      5 CL   UNL     1       1.723  11.130  18.004  0.00  0.00    +0.000 Cl
ATOM      6  C   UNL     1       2.920   8.812  17.567  0.00  0.00    +0.000 A 
ATOM      7  C   UNL     1       3.373   7.513  17.847  0.00  0.00    +0.000 A 
ATOM      8 CL   UNL     1       4.339   6.792  16.604  0.00  0.00    +0.000 Cl
ENDROOT
BRANCH   1  10
ATOM      9  O   UNL     1       4.845   5.581  19.738  0.00  0.00    +0.000 OA
ATOM     10  C   UNL     1       3.643   5.577  19.465  0.00  0.00    +0.000 C 
ATOM     11  N   UNL     1       2.894   4.392  19.580  0.00  0.00    +0.000 N 
ATOM     12  C   UNL     1       1.486   4.179  19.254  0.00  0.00    +0.000 C 
ATOM     13  C   UNL     1       0.711   3.624  20.435  0.00  0.00    +0.000 C 
ATOM     14  C   UNL     1       1.356   2.371  21.003  0.00  0.00    +0.000 C 
ATOM     15  C   UNL     1       2.854   2.554  21.245  0.00  0.00    +0.000 C 
ATOM     16  C   UNL     1       3.572   3.169  20.039  0.00  0.00    +0.000 C 
ENDBRANCH   1  10
BRANCH   3  17
ATOM     17  S   UNL     1       0.473   9.578  20.750  0.00  0.00    +0.000 S 
ATOM     18  O   UNL     1      -0.164   8.485  21.432  0.00  0.00    +0.000 OA
ATOM     19  O   UNL     1       1.205  10.562  21.521  0.00  0.00    +0.000 OA
BRANCH  17  20
ATOM     20  N   UNL     1      -0.656  10.389  19.815  0.00  0.00    +0.000 N 
ATOM     21  C   UNL     1      -1.323   9.714  18.697  0.00  0.00    +0.000 C 
ATOM     22  C   UNL     1      -1.986  10.890  17.975  0.00  0.00    +0.000 C 
ATOM     23  C   UNL     1      -2.268  11.926  19.064  0.00  0.00    +0.000 C 
ATOM     24  C   UNL     1      -1.152  11.682  20.052  0.00  0.00    +0.000 C 
ATOM     25  O   UNL     1      -0.830  12.430  20.958  0.00  0.00    +0.000 OA
ENDBRANCH  17  20
ENDBRANCH   3  17
TORSDOF 3
ENDMDL
MODEL 7
REMARK VINA RESULT:      -6.7      1.468      2.423
REMARK  Name = 
REMARK  3 active torsions:
REMARK  status: ('A' for Active; 'I' for Inactive)
REMARK    1  A    between atoms: C_2  and  C_3
REMARK    2  A    between atoms: C_5  and  S_6
REMARK    3  A    between atoms: S_6  and  N_9
REMARK                            x       y       z     vdW  Elec       q    Type
REMARK                         _______ _______ _______ _____ _____    ______ ____
ROOT
ATOM      1  C   UNL     1       2.528   7.113  19.225  0.00  0.00    +0.000 A 
ATOM      2  C   UNL     1       2.348   8.474  18.913  0.00  0.00    +0.000 A 
ATOM      3  C   UNL     1       1.442   9.299  19.625  0.00  0.00    +0.000 A 
ATOM      4  C   UNL     1       0.736   8.767  20.693  0.00  0.00    +0.000 A 
ATOM      5 CL   UNL     1      -0.487   9.577  21.598  0.00  0.00    +0.000 Cl
ATOM      6  C   UNL     1       1.036   7.468  21.116  0.00  0.00    +0.000 A 
ATOM      7  C   UNL     1       1.936   6.653  20.412  0.00  0.00    +0.000 A 
ATOM      8 CL   UNL     1       2.248   5.113  21.140  0.00  0.00    +0.000 Cl
ENDROOT
BRANCH   1  10
ATOM      9  O   UNL     1       4.519   6.491  18.149  0.00  0.00    +0.000 OA
ATOM     10  C   UNL     1       3.341   6.193  18.350  0.00  0.00    +0.000 C 
ATOM     11  N   UNL     1       2.806   5.013  17.803  0.00  0.00    +0.000 N 
ATOM     12  C   UNL     1       1.431   4.523  17.885  0.00  0.00    +0.000 C 
ATOM     13  C   UNL     1       1.365   3.122  18.463  0.00  0.00    +0.000 C 
ATOM     14  C   UNL     1       2.267   2.153  17.717  0.00  0.00    +0.000 C 
ATOM     15  C   UNL     1       3.680   2.708  17.534  0.00  0.00    +0.000 C 
ATOM     16  C   UNL     1       3.681   4.144  17.000  0.00  0.00    +0.000 C 
ENDBRANCH   1  10
BRANCH   3  17
ATOM     17  S   UNL     1       1.172  10.948  18.975  0.00  0.00    +0.000 S 
ATOM     18  O   UNL     1       1.412  11.846  20.070  0.00  0.00    +0.000 OA
ATOM     19  O   UNL     1       1.926  11.109  17.749  0.00  0.00    +0.000 OA
BRANCH  17  20
ATOM     20  N   UNL     1      -0.458  10.965  18.585  0.00  0.00    +0.000 N 
ATOM     21  C   UNL     1      -1.331  12.036  19.077  0.00  0.00    +0.000 C 
ATOM     22  C   UNL     1      -2.720  11.477  18.755  0.00  0.00    +0.000 C 
ATOM     23  C   UNL     1      -2.523  10.586  17.529  0.00  0.00    +0.000 C 
ATOM     24  C   UNL     1      -1.108  10.085  17.704  0.00  0.00    +0.000 C 
ATOM     25  O   UNL     1      -0.603   9.158  17.097  0.00  0.00    +0.000 OA
ENDBRANCH  17  20
ENDBRANCH   3  17
TORSDOF 3
ENDMDL
MODEL 8
REMARK VINA RESULT:      -6.6      5.503      7.016
REMARK  Name = 
REMARK  3 active torsions:
REMARK  status: ('A' for Active; 'I' for Inactive)
REMARK    1  A    between atoms: C_2  and  C_3
REMARK    2  A    between atoms: C_5  and  S_6
REMARK    3  A    between atoms: S_6  and  N_9
REMARK                            x       y       z     vdW  Elec       q    Type
REMARK                         _______ _______ _______ _____ _____    ______ ____
ROOT
ATOM      1  C   UNL     1       5.591   4.656  16.068  0.00  0.00    +0.000 A 
ATOM      2  C   UNL     1       5.198   3.586  16.895  0.00  0.00    +0.000 A 
ATOM      3  C   UNL     1       4.414   3.780  18.060  0.00  0.00    +0.000 A 
ATOM      4  C   UNL     1       3.979   5.057  18.380  0.00  0.00    +0.000 A 
ATOM      5 CL   UNL     1       3.122   5.502  19.807  0.00  0.00    +0.000 Cl
ATOM      6  C   UNL     1       4.219   6.095  17.474  0.00  0.00    +0.000 A 
ATOM      7  C   UNL     1       4.993   5.901  16.319  0.00  0.00    +0.000 A 
ATOM      8 CL   UNL     1       5.101   7.279  15.274  0.00  0.00    +0.000 Cl
ENDROOT
BRANCH   1  10
ATOM      9  O   UNL     1       7.778   4.482  15.234  0.00  0.00    +0.000 OA
ATOM     10  C   UNL     1       6.581   4.477  14.945  0.00  0.00    +0.000 C 
ATOM     11  N   UNL     1       6.174   4.271  13.614  0.00  0.00    +0.000 N 
ATOM     12  C   UNL     1       4.817   4.284  13.073  0.00  0.00    +0.000 C 
ATOM     13  C   UNL     1       4.489   2.996  12.340  0.00  0.00    +0.000 C 
ATOM     14  C   UNL     1       5.519   2.668  11.274  0.00  0.00    +0.000 C 
ATOM     15  C   UNL     1       6.949   2.759  11.808  0.00  0.00    +0.000 C 
ATOM     16  C   UNL     1       7.203   4.054  12.585  0.00  0.00    +0.000 C 
ENDBRANCH   1  10
BRANCH   3  17
ATOM     17  S   UNL     1       4.176   2.352  19.117  0.00  0.00    +0.000 S 
ATOM     18  O   UNL     1       4.072   1.223  18.234  0.00  0.00    +0.000 OA
ATOM     19  O   UNL     1       5.188   2.349  20.153  0.00  0.00    +0.000 OA
BRANCH  17  20
ATOM     20  N   UNL     1       2.692   2.632  19.843  0.00  0.00    +0.000 N 
ATOM     21  C   UNL     1       2.600   2.856  21.290  0.00  0.00    +0.000 C 
ATOM     22  C   UNL     1       1.091   2.742  21.526  0.00  0.00    +0.000 C 
ATOM     23  C   UNL     1       0.442   3.196  20.219  0.00  0.00    +0.000 C 
ATOM     24  C   UNL     1       1.463   2.793  19.182  0.00  0.00    +0.000 C 
ATOM     25  O   UNL     1       1.272   2.738  17.980  0.00  0.00    +0.000 OA
ENDBRANCH  17  20
ENDBRANCH   3  17
TORSDOF 3
ENDMDL
MODEL 9
REMARK VINA RESULT:      -6.5      3.165      7.269
REMARK  Name = 
REMARK  3 active torsions:
REMARK  status: ('A' for Active; 'I' for Inactive)
REMARK    1  A    between atoms: C_2  and  C_3
REMARK    2  A    between atoms: C_5  and  S_6
REMARK    3  A    between atoms: S_6  and  N_9
REMARK                            x       y       z     vdW  Elec       q    Type
REMARK                         _______ _______ _______ _____ _____    ______ ____
ROOT
ATOM      1  C   UNL     1       3.036   7.210  17.910  0.00  0.00    +0.000 A 
ATOM      2  C   UNL     1       2.432   5.961  18.149  0.00  0.00    +0.000 A 
ATOM      3  C   UNL     1       3.038   4.742  17.756  0.00  0.00    +0.000 A 
ATOM      4  C   UNL     1       4.286   4.768  17.154  0.00  0.00    +0.000 A 
ATOM      5 CL   UNL     1       5.122   3.407  16.507  0.00  0.00    +0.000 Cl
ATOM      6  C   UNL     1       4.965   5.987  17.069  0.00  0.00    +0.000 A 
ATOM      7  C   UNL     1       4.366   7.194  17.461  0.00  0.00    +0.000 A 
ATOM      8 CL   UNL     1       5.396   8.584  17.370  0.00  0.00    +0.000 Cl
ENDROOT
BRANCH   1  10
ATOM      9  O   UNL     1       2.168   9.270  17.191  0.00  0.00    +0.000 OA
ATOM     10  C   UNL     1       2.308   8.509  18.150  0.00  0.00    +0.000 C 
ATOM     11  N   UNL     1       1.768   8.844  19.405  0.00  0.00    +0.000 N 
ATOM     12  C   UNL     1       1.877   8.104  20.660  0.00  0.00    +0.000 C 
ATOM     13  C   UNL     1       0.514   7.793  21.252  0.00  0.00    +0.000 C 
ATOM     14  C   UNL     1      -0.341   9.039  21.402  0.00  0.00    +0.000 C 
ATOM     15  C   UNL     1      -0.370   9.875  20.122  0.00  0.00    +0.000 C 
ATOM     16  C   UNL     1       1.029  10.109  19.543  0.00  0.00    +0.000 C 
ENDBRANCH   1  10
BRANCH   3  17
ATOM     17  S   UNL     1       2.051   3.256  17.941  0.00  0.00    +0.000 S 
ATOM     18  O   UNL     1       0.712   3.626  17.574  0.00  0.00    +0.000 OA
ATOM     19  O   UNL     1       2.698   2.162  17.246  0.00  0.00    +0.000 OA
BRANCH  17  20
ATOM     20  N   UNL     1       2.112   2.934  19.584  0.00  0.00    +0.000 N 
ATOM     21  C   UNL     1       0.881   2.878  20.379  0.00  0.00    +0.000 C 
ATOM     22  C   UNL     1       1.434   2.883  21.808  0.00  0.00    +0.000 C 
ATOM     23  C   UNL     1       2.807   2.218  21.712  0.00  0.00    +0.000 C 
ATOM     24  C   UNL     1       3.258   2.584  20.317  0.00  0.00    +0.000 C 
ATOM     25  O   UNL     1       4.393   2.477  19.886  0.00  0.00    +0.000 OA
ENDBRANCH  17  20
ENDBRANCH   3  17
TORSDOF 3
ENDMDL
