MODEL 1
REMARK VINA RESULT:      -9.1      0.000      0.000
REMARK  Name = 
REMARK  10 active torsions:
REMARK  status: ('A' for Active; 'I' for Inactive)
REMARK    1  A    between atoms: C_1  and  C_2
REMARK    2  A    between atoms: C_2  and  C_3
REMARK    3  A    between atoms: C_3  and  C_4
REMARK    4  A    between atoms: C_4  and  C_5
REMARK    5  A    between atoms: C_10  and  C_11
REMARK    6  A    between atoms: C_11  and  O_13
REMARK    7  A    between atoms: N_16  and  C_17
REMARK    8  A    between atoms: C_17  and  C_18
REMARK    9  A    between atoms: C_21  and  C_22
REMARK   10  A    between atoms: C_27  and  C_28
REMARK                            x       y       z     vdW  Elec       q    Type
REMARK                         _______ _______ _______ _____ _____    ______ ____
ROOT
ATOM      1  C   UNL     1       2.686   6.158  19.819  0.00  0.00    +0.000 C 
ENDROOT
BRANCH   1  10
ATOM      2  C   UNL     1       2.569   4.357  17.974  0.00  0.00    +0.000 A 
ATOM      3  N   UNL     1       3.339   3.929  16.992  0.00  0.00    +0.000 NA
ATOM      4  C   UNL     1       4.471   4.667  17.048  0.00  0.00    +0.000 A 
ATOM      5  C   UNL     1       5.628   4.532  16.265  0.00  0.00    +0.000 A 
ATOM      6  C   UNL     1       6.710   5.387  16.512  0.00  0.00    +0.000 A 
ATOM      7  C   UNL     1       6.626   6.374  17.502  0.00  0.00    +0.000 A 
ATOM      8  C   UNL     1       5.470   6.505  18.298  0.00  0.00    +0.000 A 
ATOM      9  C   UNL     1       4.402   5.627  18.048  0.00  0.00    +0.000 A 
ATOM     10  N   UNL     1       3.157   5.431  18.632  0.00  0.00    +0.000 N 
BRANCH   7  11
ATOM     11  C   UNL     1       7.764   7.286  17.795  0.00  0.00    +0.000 C 
ATOM     12  O   UNL     1       8.068   8.216  17.059  0.00  0.00    +0.000 OA
BRANCH  11  13
ATOM     13  O   UNL     1       8.453   7.002  18.923  0.00  0.00    +0.000 OA
ATOM     14  H   UNL     1       9.350   6.648  18.766  0.00  0.00    +0.000 HD
ENDBRANCH  11  13
ENDBRANCH   7  11
BRANCH   2  15
ATOM     15  C   UNL     1       1.281   3.667  18.288  0.00  0.00    +0.000 C 
BRANCH  15  16
ATOM     16  C   UNL     1       1.479   2.513  19.282  0.00  0.00    +0.000 C 
BRANCH  16  18
ATOM     17  C   UNL     1       2.360   2.868  21.621  0.00  0.00    +0.000 C 
ATOM     18  C   UNL     1       1.131   2.900  20.723  0.00  0.00    +0.000 C 
ENDBRANCH  16  18
ENDBRANCH  15  16
ENDBRANCH   2  15
ENDBRANCH   1  10
BRANCH   1  19
ATOM     19  C   UNL     1       1.938   7.420  19.479  0.00  0.00    +0.000 A 
ATOM     20  C   UNL     1       2.040   7.984  18.207  0.00  0.00    +0.000 A 
ATOM     21  C   UNL     1       1.607   9.291  17.971  0.00  0.00    +0.000 A 
ATOM     22  C   UNL     1       1.087  10.084  19.005  0.00  0.00    +0.000 A 
ATOM     23  C   UNL     1       0.772   9.417  20.203  0.00  0.00    +0.000 A 
ATOM     24  C   UNL     1       1.184   8.100  20.439  0.00  0.00    +0.000 A 
BRANCH  22  25
ATOM     25  C   UNL     1       0.934  11.564  18.871  0.00  0.00    +0.000 A 
ATOM     26  C   UNL     1       2.079  12.384  19.021  0.00  0.00    +0.000 A 
ATOM     27  C   UNL     1       2.024  13.777  18.919  0.00  0.00    +0.000 A 
ATOM     28  C   UNL     1       0.813  14.406  18.681  0.00  0.00    +0.000 A 
ATOM     29  C   UNL     1      -0.333  13.636  18.501  0.00  0.00    +0.000 A 
ATOM     30  C   UNL     1      -0.293  12.223  18.563  0.00  0.00    +0.000 A 
BRANCH  30  31
ATOM     31  C   UNL     1      -1.546  11.528  18.248  0.00  0.00    +0.000 A 
ATOM     32  N   UNL     1      -1.673  10.571  17.267  0.00  0.00    +0.000 NA
ATOM     33  N   UNL     1      -2.927  10.142  17.301  0.00  0.00    +0.000 NA
ATOM     34  N   UNL     1      -3.511  10.895  18.234  0.00  0.00    +0.000 N 
ATOM     35  N   UNL     1      -2.719  11.772  18.867  0.00  0.00    +0.000 NA
ATOM     36  H   UNL     1      -4.501  10.805  18.446  0.00  0.00    +0.000 HD
ENDBRANCH  30  31
ENDBRANCH  22  25
ENDBRANCH   1  19
TORSDOF 9
ENDMDL
MODEL 2
REMARK VINA RESULT:      -9.0      1.975      2.823
REMARK  Name = 
REMARK  10 active torsions:
REMARK  status: ('A' for Active; 'I' for Inactive)
REMARK    1  A    between atoms: C_1  and  C_2
REMARK    2  A    between atoms: C_2  and  C_3
REMARK    3  A    between atoms: C_3  and  C_4
REMARK    4  A    between atoms: C_4  and  C_5
REMARK    5  A    between atoms: C_10  and  C_11
REMARK    6  A    between atoms: C_11  and  O_13
REMARK    7  A    between atoms: N_16  and  C_17
REMARK    8  A    between atoms: C_17  and  C_18
REMARK    9  A    between atoms: C_21  and  C_22
REMARK   10  A    between atoms: C_27  and  C_28
REMARK                            x       y       z     vdW  Elec       q    Type
REMARK                         _______ _______ _______ _____ _____    ______ ____
ROOT
ATOM      1  C   UNL     1       2.699   5.699  20.043  0.00  0.00    +0.000 C 
ENDROOT
BRANCH   1  10
ATOM      2  C   UNL     1       2.366   4.021  18.110  0.00  0.00    +0.000 A 
ATOM      3  N   UNL     1       3.043   3.620  17.052  0.00  0.00    +0.000 NA
ATOM      4  C   UNL     1       4.210   4.304  17.067  0.00  0.00    +0.000 A 
ATOM      5  C   UNL     1       5.301   4.167  16.194  0.00  0.00    +0.000 A 
ATOM      6  C   UNL     1       6.438   4.957  16.410  0.00  0.00    +0.000 A 
ATOM      7  C   UNL     1       6.471   5.885  17.459  0.00  0.00    +0.000 A 
ATOM      8  C   UNL     1       5.382   6.016  18.343  0.00  0.00    +0.000 A 
ATOM      9  C   UNL     1       4.258   5.203  18.122  0.00  0.00    +0.000 A 
ATOM     10  N   UNL     1       3.050   5.026  18.784  0.00  0.00    +0.000 N 
BRANCH   7  11
ATOM     11  C   UNL     1       7.670   6.726  17.720  0.00  0.00    +0.000 C 
ATOM     12  O   UNL     1       8.243   6.736  18.801  0.00  0.00    +0.000 OA
BRANCH  11  13
ATOM     13  O   UNL     1       8.069   7.494  16.683  0.00  0.00    +0.000 OA
ATOM     14  H   UNL     1       7.695   7.229  15.820  0.00  0.00    +0.000 HD
ENDBRANCH  11  13
ENDBRANCH   7  11
BRANCH   2  15
ATOM     15  C   UNL     1       1.072   3.370  18.478  0.00  0.00    +0.000 C 
BRANCH  15  16
ATOM     16  C   UNL     1       1.268   2.253  19.514  0.00  0.00    +0.000 C 
BRANCH  16  18
ATOM     17  C   UNL     1       2.508   2.724  21.662  0.00  0.00    +0.000 C 
ATOM     18  C   UNL     1       1.157   2.752  20.958  0.00  0.00    +0.000 C 
ENDBRANCH  16  18
ENDBRANCH  15  16
ENDBRANCH   2  15
ENDBRANCH   1  10
BRANCH   1  19
ATOM     19  C   UNL     1       2.187   7.101  19.839  0.00  0.00    +0.000 A 
ATOM     20  C   UNL     1       1.518   7.768  20.866  0.00  0.00    +0.000 A 
ATOM     21  C   UNL     1       0.784   8.926  20.602  0.00  0.00    +0.000 A 
ATOM     22  C   UNL     1       0.671   9.436  19.299  0.00  0.00    +0.000 A 
ATOM     23  C   UNL     1       1.544   8.892  18.340  0.00  0.00    +0.000 A 
ATOM     24  C   UNL     1       2.300   7.743  18.603  0.00  0.00    +0.000 A 
BRANCH  22  25
ATOM     25  C   UNL     1      -0.360  10.453  18.931  0.00  0.00    +0.000 A 
ATOM     26  C   UNL     1      -1.598  10.009  18.406  0.00  0.00    +0.000 A 
ATOM     27  C   UNL     1      -2.614  10.892  18.028  0.00  0.00    +0.000 A 
ATOM     28  C   UNL     1      -2.421  12.259  18.145  0.00  0.00    +0.000 A 
ATOM     29  C   UNL     1      -1.229  12.736  18.681  0.00  0.00    +0.000 A 
ATOM     30  C   UNL     1      -0.203  11.860  19.104  0.00  0.00    +0.000 A 
BRANCH  30  31
ATOM     31  C   UNL     1       0.955  12.487  19.750  0.00  0.00    +0.000 A 
ATOM     32  N   UNL     1       1.119  12.587  21.113  0.00  0.00    +0.000 NA
ATOM     33  N   UNL     1       2.291  13.169  21.323  0.00  0.00    +0.000 NA
ATOM     34  N   UNL     1       2.744  13.457  20.102  0.00  0.00    +0.000 N 
ATOM     35  N   UNL     1       1.975  13.060  19.078  0.00  0.00    +0.000 NA
ATOM     36  H   UNL     1       3.622  13.949  19.963  0.00  0.00    +0.000 HD
ENDBRANCH  30  31
ENDBRANCH  22  25
ENDBRANCH   1  19
TORSDOF 9
ENDMDL
MODEL 3
REMARK VINA RESULT:      -8.8      2.876      8.276
REMARK  Name = 
REMARK  10 active torsions:
REMARK  status: ('A' for Active; 'I' for Inactive)
REMARK    1  A    between atoms: C_1  and  C_2
REMARK    2  A    between atoms: C_2  and  C_3
REMARK    3  A    between atoms: C_3  and  C_4
REMARK    4  A    between atoms: C_4  and  C_5
REMARK    5  A    between atoms: C_10  and  C_11
REMARK    6  A    between atoms: C_11  and  O_13
REMARK    7  A    between atoms: N_16  and  C_17
REMARK    8  A    between atoms: C_17  and  C_18
REMARK    9  A    between atoms: C_21  and  C_22
REMARK   10  A    between atoms: C_27  and  C_28
REMARK                            x       y       z     vdW  Elec       q    Type
REMARK                         _______ _______ _______ _____ _____    ______ ____
ROOT
ATOM      1  C   UNL     1      -0.262   9.696  20.281  0.00  0.00    +0.000 C 
ENDROOT
BRANCH   1  10
ATOM      2  C   UNL     1      -1.443  11.063  18.438  0.00  0.00    +0.000 A 
ATOM      3  N   UNL     1      -1.390  12.293  17.963  0.00  0.00    +0.000 NA
ATOM      4  C   UNL     1      -0.430  12.931  18.671  0.00  0.00    +0.000 A 
ATOM      5  C   UNL     1       0.055  14.235  18.484  0.00  0.00    +0.000 A 
ATOM      6  C   UNL     1       1.087  14.693  19.314  0.00  0.00    +0.000 A 
ATOM      7  C   UNL     1       1.602  13.875  20.328  0.00  0.00    +0.000 A 
ATOM      8  C   UNL     1       1.124  12.562  20.511  0.00  0.00    +0.000 A 
ATOM      9  C   UNL     1       0.102  12.113  19.658  0.00  0.00    +0.000 A 
ATOM     10  N   UNL     1      -0.574  10.909  19.511  0.00  0.00    +0.000 N 
BRANCH   7  11
ATOM     11  C   UNL     1       2.706  14.331  21.215  0.00  0.00    +0.000 C 
ATOM     12  O   UNL     1       3.882  14.270  20.883  0.00  0.00    +0.000 OA
BRANCH  11  13
ATOM     13  O   UNL     1       2.318  14.798  22.421  0.00  0.00    +0.000 OA
ATOM     14  H   UNL     1       1.768  14.174  22.935  0.00  0.00    +0.000 HD
ENDBRANCH  11  13
ENDBRANCH   7  11
BRANCH   2  15
ATOM     15  C   UNL     1      -2.314  10.034  17.792  0.00  0.00    +0.000 C 
BRANCH  15  16
ATOM     16  C   UNL     1      -3.693  10.602  17.424  0.00  0.00    +0.000 C 
BRANCH  16  18
ATOM     17  C   UNL     1      -2.954  10.032  15.078  0.00  0.00    +0.000 C 
ATOM     18  C   UNL     1      -3.820  10.945  15.937  0.00  0.00    +0.000 C 
ENDBRANCH  16  18
ENDBRANCH  15  16
ENDBRANCH   2  15
ENDBRANCH   1  10
BRANCH   1  19
ATOM     19  C   UNL     1       0.948   8.963  19.761  0.00  0.00    +0.000 A 
ATOM     20  C   UNL     1       1.398   9.173  18.457  0.00  0.00    +0.000 A 
ATOM     21  C   UNL     1       2.312   8.295  17.871  0.00  0.00    +0.000 A 
ATOM     22  C   UNL     1       2.782   7.165  18.557  0.00  0.00    +0.000 A 
ATOM     23  C   UNL     1       2.505   7.115  19.936  0.00  0.00    +0.000 A 
ATOM     24  C   UNL     1       1.605   8.004  20.536  0.00  0.00    +0.000 A 
BRANCH  22  25
ATOM     25  C   UNL     1       3.479   6.044  17.860  0.00  0.00    +0.000 A 
ATOM     26  C   UNL     1       4.480   6.352  16.906  0.00  0.00    +0.000 A 
ATOM     27  C   UNL     1       5.176   5.365  16.202  0.00  0.00    +0.000 A 
ATOM     28  C   UNL     1       4.883   4.027  16.414  0.00  0.00    +0.000 A 
ATOM     29  C   UNL     1       3.925   3.680  17.362  0.00  0.00    +0.000 A 
ATOM     30  C   UNL     1       3.235   4.661  18.112  0.00  0.00    +0.000 A 
BRANCH  30  31
ATOM     31  C   UNL     1       2.332   4.160  19.153  0.00  0.00    +0.000 A 
ATOM     32  N   UNL     1       2.734   3.814  20.424  0.00  0.00    +0.000 NA
ATOM     33  N   UNL     1       1.648   3.449  21.090  0.00  0.00    +0.000 NA
ATOM     34  N   UNL     1       0.666   3.517  20.190  0.00  0.00    +0.000 N 
ATOM     35  N   UNL     1       1.012   3.954  18.971  0.00  0.00    +0.000 NA
ATOM     36  H   UNL     1      -0.287   3.250  20.422  0.00  0.00    +0.000 HD
ENDBRANCH  30  31
ENDBRANCH  22  25
ENDBRANCH   1  19
TORSDOF 9
ENDMDL
MODEL 4
REMARK VINA RESULT:      -8.7      2.049      2.862
REMARK  Name = 
REMARK  10 active torsions:
REMARK  status: ('A' for Active; 'I' for Inactive)
REMARK    1  A    between atoms: C_1  and  C_2
REMARK    2  A    between atoms: C_2  and  C_3
REMARK    3  A    between atoms: C_3  and  C_4
REMARK    4  A    between atoms: C_4  and  C_5
REMARK    5  A    between atoms: C_10  and  C_11
REMARK    6  A    between atoms: C_11  and  O_13
REMARK    7  A    between atoms: N_16  and  C_17
REMARK    8  A    between atoms: C_17  and  C_18
REMARK    9  A    between atoms: C_21  and  C_22
REMARK   10  A    between atoms: C_27  and  C_28
REMARK                            x       y       z     vdW  Elec       q    Type
REMARK                         _______ _______ _______ _____ _____    ______ ____
ROOT
ATOM      1  C   UNL     1       2.931   5.705  19.633  0.00  0.00    +0.000 C 
ENDROOT
BRANCH   1  10
ATOM      2  C   UNL     1       3.017   4.119  17.598  0.00  0.00    +0.000 A 
ATOM      3  N   UNL     1       3.836   3.884  16.591  0.00  0.00    +0.000 NA
ATOM      4  C   UNL     1       4.886   4.723  16.751  0.00  0.00    +0.000 A 
ATOM      5  C   UNL     1       6.057   4.794  15.982  0.00  0.00    +0.000 A 
ATOM      6  C   UNL     1       7.043   5.722  16.344  0.00  0.00    +0.000 A 
ATOM      7  C   UNL     1       6.849   6.578  17.436  0.00  0.00    +0.000 A 
ATOM      8  C   UNL     1       5.679   6.501  18.217  0.00  0.00    +0.000 A 
ATOM      9  C   UNL     1       4.709   5.553  17.849  0.00  0.00    +0.000 A 
ATOM     10  N   UNL     1       3.486   5.167  18.382  0.00  0.00    +0.000 N 
BRANCH   7  11
ATOM     11  C   UNL     1       7.885   7.562  17.851  0.00  0.00    +0.000 C 
ATOM     12  O   UNL     1       8.114   8.582  17.214  0.00  0.00    +0.000 OA
BRANCH  11  13
ATOM     13  O   UNL     1       8.568   7.239  18.971  0.00  0.00    +0.000 OA
ATOM     14  H   UNL     1       8.151   6.535  19.506  0.00  0.00    +0.000 HD
ENDBRANCH  11  13
ENDBRANCH   7  11
BRANCH   2  15
ATOM     15  C   UNL     1       1.805   3.272  17.808  0.00  0.00    +0.000 C 
BRANCH  15  16
ATOM     16  C   UNL     1       2.067   2.136  18.808  0.00  0.00    +0.000 C 
BRANCH  16  18
ATOM     17  C   UNL     1       4.313   2.060  19.959  0.00  0.00    +0.000 C 
ATOM     18  C   UNL     1       3.504   1.609  18.749  0.00  0.00    +0.000 C 
ENDBRANCH  16  18
ENDBRANCH  15  16
ENDBRANCH   2  15
ENDBRANCH   1  10
BRANCH   1  19
ATOM     19  C   UNL     1       2.369   7.094  19.479  0.00  0.00    +0.000 A 
ATOM     20  C   UNL     1       1.779   7.744  20.563  0.00  0.00    +0.000 A 
ATOM     21  C   UNL     1       0.996   8.885  20.369  0.00  0.00    +0.000 A 
ATOM     22  C   UNL     1       0.754   9.392  19.083  0.00  0.00    +0.000 A 
ATOM     23  C   UNL     1       1.551   8.870  18.047  0.00  0.00    +0.000 A 
ATOM     24  C   UNL     1       2.355   7.739  18.240  0.00  0.00    +0.000 A 
BRANCH  22  25
ATOM     25  C   UNL     1      -0.329  10.383  18.810  0.00  0.00    +0.000 A 
ATOM     26  C   UNL     1      -1.573   9.916  18.320  0.00  0.00    +0.000 A 
ATOM     27  C   UNL     1      -2.638  10.775  18.031  0.00  0.00    +0.000 A 
ATOM     28  C   UNL     1      -2.491  12.141  18.206  0.00  0.00    +0.000 A 
ATOM     29  C   UNL     1      -1.294  12.640  18.711  0.00  0.00    +0.000 A 
ATOM     30  C   UNL     1      -0.217  11.786  19.045  0.00  0.00    +0.000 A 
BRANCH  30  31
ATOM     31  C   UNL     1       0.945  12.427  19.669  0.00  0.00    +0.000 A 
ATOM     32  N   UNL     1       1.139  12.519  21.029  0.00  0.00    +0.000 NA
ATOM     33  N   UNL     1       2.306  13.119  21.216  0.00  0.00    +0.000 NA
ATOM     34  N   UNL     1       2.726  13.423  19.987  0.00  0.00    +0.000 N 
ATOM     35  N   UNL     1       1.939  13.022  18.978  0.00  0.00    +0.000 NA
ATOM     36  H   UNL     1       3.592  13.931  19.832  0.00  0.00    +0.000 HD
ENDBRANCH  30  31
ENDBRANCH  22  25
ENDBRANCH   1  19
TORSDOF 9
ENDMDL
MODEL 5
REMARK VINA RESULT:      -8.7      2.884      8.728
REMARK  Name = 
REMARK  10 active torsions:
REMARK  status: ('A' for Active; 'I' for Inactive)
REMARK    1  A    between atoms: C_1  and  C_2
REMARK    2  A    between atoms: C_2  and  C_3
REMARK    3  A    between atoms: C_3  and  C_4
REMARK    4  A    between atoms: C_4  and  C_5
REMARK    5  A    between atoms: C_10  and  C_11
REMARK    6  A    between atoms: C_11  and  O_13
REMARK    7  A    between atoms: N_16  and  C_17
REMARK    8  A    between atoms: C_17  and  C_18
REMARK    9  A    between atoms: C_21  and  C_22
REMARK   10  A    between atoms: C_27  and  C_28
REMARK                            x       y       z     vdW  Elec       q    Type
REMARK                         _______ _______ _______ _____ _____    ______ ____
ROOT
ATOM      1  C   UNL     1       1.347  10.084  17.737  0.00  0.00    +0.000 C 
ENDROOT
BRANCH   1  10
ATOM      2  C   UNL     1      -1.057  10.653  18.484  0.00  0.00    +0.000 A 
ATOM      3  N   UNL     1      -1.636  11.503  19.310  0.00  0.00    +0.000 NA
ATOM      4  C   UNL     1      -0.642  12.243  19.852  0.00  0.00    +0.000 A 
ATOM      5  C   UNL     1      -0.758  13.334  20.727  0.00  0.00    +0.000 A 
ATOM      6  C   UNL     1       0.410  13.986  21.145  0.00  0.00    +0.000 A 
ATOM      7  C   UNL     1       1.667  13.538  20.721  0.00  0.00    +0.000 A 
ATOM      8  C   UNL     1       1.786  12.450  19.834  0.00  0.00    +0.000 A 
ATOM      9  C   UNL     1       0.604  11.820  19.410  0.00  0.00    +0.000 A 
ATOM     10  N   UNL     1       0.326  10.776  18.537  0.00  0.00    +0.000 N 
BRANCH   7  11
ATOM     11  C   UNL     1       2.922  14.220  21.138  0.00  0.00    +0.000 C 
ATOM     12  O   UNL     1       3.879  14.354  20.387  0.00  0.00    +0.000 OA
BRANCH  11  13
ATOM     13  O   UNL     1       2.937  14.664  22.414  0.00  0.00    +0.000 OA
ATOM     14  H   UNL     1       3.771  14.485  22.891  0.00  0.00    +0.000 HD
ENDBRANCH  11  13
ENDBRANCH   7  11
BRANCH   2  15
ATOM     15  C   UNL     1      -1.878   9.761  17.610  0.00  0.00    +0.000 C 
BRANCH  15  16
ATOM     16  C   UNL     1      -3.322  10.266  17.473  0.00  0.00    +0.000 C 
BRANCH  16  18
ATOM     17  C   UNL     1      -2.886  10.250  14.986  0.00  0.00    +0.000 C 
ATOM     18  C   UNL     1      -3.586  10.964  16.135  0.00  0.00    +0.000 C 
ENDBRANCH  16  18
ENDBRANCH  15  16
ENDBRANCH   2  15
ENDBRANCH   1  10
BRANCH   1  19
ATOM     19  C   UNL     1       1.911   8.868  18.425  0.00  0.00    +0.000 A 
ATOM     20  C   UNL     1       2.661   7.933  17.711  0.00  0.00    +0.000 A 
ATOM     21  C   UNL     1       2.928   6.673  18.252  0.00  0.00    +0.000 A 
ATOM     22  C   UNL     1       2.428   6.298  19.508  0.00  0.00    +0.000 A 
ATOM     23  C   UNL     1       1.892   7.332  20.299  0.00  0.00    +0.000 A 
ATOM     24  C   UNL     1       1.641   8.604  19.771  0.00  0.00    +0.000 A 
BRANCH  22  25
ATOM     25  C   UNL     1       2.404   4.875  19.962  0.00  0.00    +0.000 A 
ATOM     26  C   UNL     1       1.217   4.364  20.540  0.00  0.00    +0.000 A 
ATOM     27  C   UNL     1       1.110   3.047  20.998  0.00  0.00    +0.000 A 
ATOM     28  C   UNL     1       2.198   2.195  20.910  0.00  0.00    +0.000 A 
ATOM     29  C   UNL     1       3.376   2.649  20.324  0.00  0.00    +0.000 A 
ATOM     30  C   UNL     1       3.494   3.965  19.821  0.00  0.00    +0.000 A 
BRANCH  30  31
ATOM     31  C   UNL     1       4.749   4.283  19.131  0.00  0.00    +0.000 A 
ATOM     32  N   UNL     1       5.797   4.964  19.709  0.00  0.00    +0.000 NA
ATOM     33  N   UNL     1       6.765   5.026  18.806  0.00  0.00    +0.000 NA
ATOM     34  N   UNL     1       6.245   4.456  17.719  0.00  0.00    +0.000 N 
ATOM     35  N   UNL     1       5.003   3.967  17.845  0.00  0.00    +0.000 NA
ATOM     36  H   UNL     1       6.766   4.400  16.848  0.00  0.00    +0.000 HD
ENDBRANCH  30  31
ENDBRANCH  22  25
ENDBRANCH   1  19
TORSDOF 9
ENDMDL
MODEL 6
REMARK VINA RESULT:      -8.6      1.906      2.695
REMARK  Name = 
REMARK  10 active torsions:
REMARK  status: ('A' for Active; 'I' for Inactive)
REMARK    1  A    between atoms: C_1  and  C_2
REMARK    2  A    between atoms: C_2  and  C_3
REMARK    3  A    between atoms: C_3  and  C_4
REMARK    4  A    between atoms: C_4  and  C_5
REMARK    5  A    between atoms: C_10  and  C_11
REMARK    6  A    between atoms: C_11  and  O_13
REMARK    7  A    between atoms: N_16  and  C_17
REMARK    8  A    between atoms: C_17  and  C_18
REMARK    9  A    between atoms: C_21  and  C_22
REMARK   10  A    between atoms: C_27  and  C_28
REMARK                            x       y       z     vdW  Elec       q    Type
REMARK                         _______ _______ _______ _____ _____    ______ ____
ROOT
ATOM      1  C   UNL     1       2.866   5.735  19.761  0.00  0.00    +0.000 C 
ENDROOT
BRANCH   1  10
ATOM      2  C   UNL     1       2.886   4.045  17.809  0.00  0.00    +0.000 A 
ATOM      3  N   UNL     1       3.687   3.737  16.808  0.00  0.00    +0.000 NA
ATOM      4  C   UNL     1       4.760   4.554  16.914  0.00  0.00    +0.000 A 
ATOM      5  C   UNL     1       5.924   4.554  16.129  0.00  0.00    +0.000 A 
ATOM      6  C   UNL     1       6.939   5.472  16.433  0.00  0.00    +0.000 A 
ATOM      7  C   UNL     1       6.780   6.388  17.481  0.00  0.00    +0.000 A 
ATOM      8  C   UNL     1       5.617   6.382  18.277  0.00  0.00    +0.000 A 
ATOM      9  C   UNL     1       4.618   5.443  17.969  0.00  0.00    +0.000 A 
ATOM     10  N   UNL     1       3.391   5.119  18.534  0.00  0.00    +0.000 N 
BRANCH   7  11
ATOM     11  C   UNL     1       7.846   7.363  17.834  0.00  0.00    +0.000 C 
ATOM     12  O   UNL     1       8.104   8.335  17.136  0.00  0.00    +0.000 OA
BRANCH  11  13
ATOM     13  O   UNL     1       8.522   7.089  18.971  0.00  0.00    +0.000 OA
ATOM     14  H   UNL     1       8.587   6.136  19.178  0.00  0.00    +0.000 HD
ENDBRANCH  11  13
ENDBRANCH   7  11
BRANCH   2  15
ATOM     15  C   UNL     1       1.654   3.242  18.075  0.00  0.00    +0.000 C 
BRANCH  15  16
ATOM     16  C   UNL     1       1.096   3.500  19.482  0.00  0.00    +0.000 C 
BRANCH  16  18
ATOM     17  C   UNL     1       2.000   2.933  21.771  0.00  0.00    +0.000 C 
ATOM     18  C   UNL     1       1.430   2.379  20.471  0.00  0.00    +0.000 C 
ENDBRANCH  16  18
ENDBRANCH  15  16
ENDBRANCH   2  15
ENDBRANCH   1  10
BRANCH   1  19
ATOM     19  C   UNL     1       2.315   7.119  19.536  0.00  0.00    +0.000 A 
ATOM     20  C   UNL     1       1.731   7.828  20.585  0.00  0.00    +0.000 A 
ATOM     21  C   UNL     1       0.957   8.964  20.333  0.00  0.00    +0.000 A 
ATOM     22  C   UNL     1       0.720   9.407  19.023  0.00  0.00    +0.000 A 
ATOM     23  C   UNL     1       1.512   8.826  18.016  0.00  0.00    +0.000 A 
ATOM     24  C   UNL     1       2.307   7.700  18.265  0.00  0.00    +0.000 A 
BRANCH  22  25
ATOM     25  C   UNL     1      -0.355  10.392  18.700  0.00  0.00    +0.000 A 
ATOM     26  C   UNL     1      -1.632   9.909  18.325  0.00  0.00    +0.000 A 
ATOM     27  C   UNL     1      -2.693  10.760  17.999  0.00  0.00    +0.000 A 
ATOM     28  C   UNL     1      -2.508  12.133  18.018  0.00  0.00    +0.000 A 
ATOM     29  C   UNL     1      -1.276  12.650  18.407  0.00  0.00    +0.000 A 
ATOM     30  C   UNL     1      -0.201  11.808  18.777  0.00  0.00    +0.000 A 
BRANCH  30  31
ATOM     31  C   UNL     1       1.005  12.481  19.270  0.00  0.00    +0.000 A 
ATOM     32  N   UNL     1       2.007  12.962  18.458  0.00  0.00    +0.000 NA
ATOM     33  N   UNL     1       2.905  13.537  19.247  0.00  0.00    +0.000 NA
ATOM     34  N   UNL     1       2.452  13.318  20.482  0.00  0.00    +0.000 N 
ATOM     35  N   UNL     1       1.279  12.676  20.576  0.00  0.00    +0.000 NA
ATOM     36  H   UNL     1       2.972  13.623  21.300  0.00  0.00    +0.000 HD
ENDBRANCH  30  31
ENDBRANCH  22  25
ENDBRANCH   1  19
TORSDOF 9
ENDMDL
MODEL 7
REMARK VINA RESULT:      -8.6      2.858      4.782
REMARK  Name = 
REMARK  10 active torsions:
REMARK  status: ('A' for Active; 'I' for Inactive)
REMARK    1  A    between atoms: C_1  and  C_2
REMARK    2  A    between atoms: C_2  and  C_3
REMARK    3  A    between atoms: C_3  and  C_4
REMARK    4  A    between atoms: C_4  and  C_5
REMARK    5  A    between atoms: C_10  and  C_11
REMARK    6  A    between atoms: C_11  and  O_13
REMARK    7  A    between atoms: N_16  and  C_17
REMARK    8  A    between atoms: C_17  and  C_18
REMARK    9  A    between atoms: C_21  and  C_22
REMARK   10  A    between atoms: C_27  and  C_28
REMARK                            x       y       z     vdW  Elec       q    Type
REMARK                         _______ _______ _______ _____ _____    ______ ____
ROOT
ATOM      1  C   UNL     1       2.912   7.455  17.209  0.00  0.00    +0.000 C 
ENDROOT
BRANCH   1  10
ATOM      2  C   UNL     1       5.229   6.479  17.789  0.00  0.00    +0.000 A 
ATOM      3  N   UNL     1       5.703   5.381  18.346  0.00  0.00    +0.000 NA
ATOM      4  C   UNL     1       4.629   4.614  18.646  0.00  0.00    +0.000 A 
ATOM      5  C   UNL     1       4.619   3.315  19.177  0.00  0.00    +0.000 A 
ATOM      6  C   UNL     1       3.385   2.682  19.381  0.00  0.00    +0.000 A 
ATOM      7  C   UNL     1       2.187   3.346  19.088  0.00  0.00    +0.000 A 
ATOM      8  C   UNL     1       2.195   4.646  18.544  0.00  0.00    +0.000 A 
ATOM      9  C   UNL     1       3.441   5.257  18.329  0.00  0.00    +0.000 A 
ATOM     10  N   UNL     1       3.839   6.474  17.791  0.00  0.00    +0.000 N 
BRANCH   7  11
ATOM     11  C   UNL     1       0.865   2.693  19.282  0.00  0.00    +0.000 C 
ATOM     12  O   UNL     1       0.297   2.081  18.387  0.00  0.00    +0.000 OA
BRANCH  11  13
ATOM     13  O   UNL     1       0.326   2.841  20.512  0.00  0.00    +0.000 OA
ATOM     14  H   UNL     1      -0.363   3.532  20.567  0.00  0.00    +0.000 HD
ENDBRANCH  11  13
ENDBRANCH   7  11
BRANCH   2  15
ATOM     15  C   UNL     1       6.155   7.500  17.212  0.00  0.00    +0.000 C 
BRANCH  15  16
ATOM     16  C   UNL     1       7.628   7.132  17.442  0.00  0.00    +0.000 C 
BRANCH  16  18
ATOM     17  C   UNL     1       8.113   9.567  17.899  0.00  0.00    +0.000 C 
ATOM     18  C   UNL     1       8.359   8.131  18.344  0.00  0.00    +0.000 C 
ENDBRANCH  16  18
ENDBRANCH  15  16
ENDBRANCH   2  15
ENDBRANCH   1  10
BRANCH   1  19
ATOM     19  C   UNL     1       2.388   8.443  18.219  0.00  0.00    +0.000 A 
ATOM     20  C   UNL     1       1.983   8.015  19.484  0.00  0.00    +0.000 A 
ATOM     21  C   UNL     1       1.226   8.851  20.308  0.00  0.00    +0.000 A 
ATOM     22  C   UNL     1       0.825  10.126  19.881  0.00  0.00    +0.000 A 
ATOM     23  C   UNL     1       1.446  10.618  18.719  0.00  0.00    +0.000 A 
ATOM     24  C   UNL     1       2.224   9.792  17.898  0.00  0.00    +0.000 A 
BRANCH  22  25
ATOM     25  C   UNL     1      -0.247  10.897  20.580  0.00  0.00    +0.000 A 
ATOM     26  C   UNL     1      -0.066  11.234  21.943  0.00  0.00    +0.000 A 
ATOM     27  C   UNL     1      -1.021  11.947  22.675  0.00  0.00    +0.000 A 
ATOM     28  C   UNL     1      -2.207  12.334  22.071  0.00  0.00    +0.000 A 
ATOM     29  C   UNL     1      -2.413  12.047  20.725  0.00  0.00    +0.000 A 
ATOM     30  C   UNL     1      -1.444  11.360  19.957  0.00  0.00    +0.000 A 
BRANCH  30  31
ATOM     31  C   UNL     1      -1.738  11.217  18.527  0.00  0.00    +0.000 A 
ATOM     32  N   UNL     1      -2.150  10.043  17.937  0.00  0.00    +0.000 NA
ATOM     33  N   UNL     1      -2.356  10.304  16.654  0.00  0.00    +0.000 NA
ATOM     34  N   UNL     1      -1.997  11.580  16.511  0.00  0.00    +0.000 N 
ATOM     35  N   UNL     1      -1.609  12.213  17.627  0.00  0.00    +0.000 NA
ATOM     36  H   UNL     1      -2.018  12.040  15.605  0.00  0.00    +0.000 HD
ENDBRANCH  30  31
ENDBRANCH  22  25
ENDBRANCH   1  19
TORSDOF 9
ENDMDL
MODEL 8
REMARK VINA RESULT:      -8.6      0.966      1.205
REMARK  Name = 
REMARK  10 active torsions:
REMARK  status: ('A' for Active; 'I' for Inactive)
REMARK    1  A    between atoms: C_1  and  C_2
REMARK    2  A    between atoms: C_2  and  C_3
REMARK    3  A    between atoms: C_3  and  C_4
REMARK    4  A    between atoms: C_4  and  C_5
REMARK    5  A    between atoms: C_10  and  C_11
REMARK    6  A    between atoms: C_11  and  O_13
REMARK    7  A    between atoms: N_16  and  C_17
REMARK    8  A    between atoms: C_17  and  C_18
REMARK    9  A    between atoms: C_21  and  C_22
REMARK   10  A    between atoms: C_27  and  C_28
REMARK                            x       y       z     vdW  Elec       q    Type
REMARK                         _______ _______ _______ _____ _____    ______ ____
ROOT
ATOM      1  C   UNL     1       3.124   6.494  19.735  0.00  0.00    +0.000 C 
ENDROOT
BRANCH   1  10
ATOM      2  C   UNL     1       2.051   4.371  18.733  0.00  0.00    +0.000 A 
ATOM      3  N   UNL     1       2.315   3.525  17.756  0.00  0.00    +0.000 NA
ATOM      4  C   UNL     1       3.474   3.941  17.196  0.00  0.00    +0.000 A 
ATOM      5  C   UNL     1       4.209   3.321  16.173  0.00  0.00    +0.000 A 
ATOM      6  C   UNL     1       5.413   3.908  15.761  0.00  0.00    +0.000 A 
ATOM      7  C   UNL     1       5.858   5.103  16.339  0.00  0.00    +0.000 A 
ATOM      8  C   UNL     1       5.128   5.722  17.374  0.00  0.00    +0.000 A 
ATOM      9  C   UNL     1       3.933   5.110  17.787  0.00  0.00    +0.000 A 
ATOM     10  N   UNL     1       2.994   5.392  18.771  0.00  0.00    +0.000 N 
BRANCH   7  11
ATOM     11  C   UNL     1       7.138   5.740  15.930  0.00  0.00    +0.000 C 
ATOM     12  O   UNL     1       7.740   5.412  14.916  0.00  0.00    +0.000 OA
BRANCH  11  13
ATOM     13  O   UNL     1       7.600   6.693  16.769  0.00  0.00    +0.000 OA
ATOM     14  H   UNL     1       8.108   6.347  17.529  0.00  0.00    +0.000 HD
ENDBRANCH  11  13
ENDBRANCH   7  11
BRANCH   2  15
ATOM     15  C   UNL     1       0.900   4.134  19.655  0.00  0.00    +0.000 C 
BRANCH  15  16
ATOM     16  C   UNL     1       0.868   2.689  20.172  0.00  0.00    +0.000 C 
BRANCH  16  18
ATOM     17  C   UNL     1       2.993   2.547  21.528  0.00  0.00    +0.000 C 
ATOM     18  C   UNL     1       1.471   2.542  21.573  0.00  0.00    +0.000 C 
ENDBRANCH  16  18
ENDBRANCH  15  16
ENDBRANCH   2  15
ENDBRANCH   1  10
BRANCH   1  19
ATOM     19  C   UNL     1       2.233   7.666  19.415  0.00  0.00    +0.000 A 
ATOM     20  C   UNL     1       2.269   8.259  18.153  0.00  0.00    +0.000 A 
ATOM     21  C   UNL     1       1.686   9.510  17.938  0.00  0.00    +0.000 A 
ATOM     22  C   UNL     1       1.078  10.220  18.984  0.00  0.00    +0.000 A 
ATOM     23  C   UNL     1       0.843   9.501  20.171  0.00  0.00    +0.000 A 
ATOM     24  C   UNL     1       1.406   8.237  20.386  0.00  0.00    +0.000 A 
BRANCH  22  25
ATOM     25  C   UNL     1       0.753  11.674  18.875  0.00  0.00    +0.000 A 
ATOM     26  C   UNL     1       1.783  12.620  19.092  0.00  0.00    +0.000 A 
ATOM     27  C   UNL     1       1.565  13.999  19.017  0.00  0.00    +0.000 A 
ATOM     28  C   UNL     1       0.298  14.485  18.739  0.00  0.00    +0.000 A 
ATOM     29  C   UNL     1      -0.737  13.588  18.492  0.00  0.00    +0.000 A 
ATOM     30  C   UNL     1      -0.531  12.189  18.526  0.00  0.00    +0.000 A 
BRANCH  30  31
ATOM     31  C   UNL     1      -1.676  11.358  18.142  0.00  0.00    +0.000 A 
ATOM     32  N   UNL     1      -1.623  10.360  17.195  0.00  0.00    +0.000 NA
ATOM     33  N   UNL     1      -2.826   9.805  17.147  0.00  0.00    +0.000 NA
ATOM     34  N   UNL     1      -3.560  10.525  17.996  0.00  0.00    +0.000 N 
ATOM     35  N   UNL     1      -2.916  11.500  18.654  0.00  0.00    +0.000 NA
ATOM     36  H   UNL     1      -4.550  10.340  18.132  0.00  0.00    +0.000 HD
ENDBRANCH  30  31
ENDBRANCH  22  25
ENDBRANCH   1  19
TORSDOF 9
ENDMDL
MODEL 9
REMARK VINA RESULT:      -8.5      2.673      8.132
REMARK  Name = 
REMARK  10 active torsions:
REMARK  status: ('A' for Active; 'I' for Inactive)
REMARK    1  A    between atoms: C_1  and  C_2
REMARK    2  A    between atoms: C_2  and  C_3
REMARK    3  A    between atoms: C_3  and  C_4
REMARK    4  A    between atoms: C_4  and  C_5
REMARK    5  A    between atoms: C_10  and  C_11
REMARK    6  A    between atoms: C_11  and  O_13
REMARK    7  A    between atoms: N_16  and  C_17
REMARK    8  A    between atoms: C_17  and  C_18
REMARK    9  A    between atoms: C_21  and  C_22
REMARK   10  A    between atoms: C_27  and  C_28
REMARK                            x       y       z     vdW  Elec       q    Type
REMARK                         _______ _______ _______ _____ _____    ______ ____
ROOT
ATOM      1  C   UNL     1       0.798  10.093  20.690  0.00  0.00    +0.000 C 
ENDROOT
BRANCH   1  10
ATOM      2  C   UNL     1      -0.746  11.378  19.070  0.00  0.00    +0.000 A 
ATOM      3  N   UNL     1      -0.783  12.574  18.515  0.00  0.00    +0.000 NA
ATOM      4  C   UNL     1       0.320  13.227  18.948  0.00  0.00    +0.000 A 
ATOM      5  C   UNL     1       0.771  14.502  18.572  0.00  0.00    +0.000 A 
ATOM      6  C   UNL     1       1.968  14.981  19.120  0.00  0.00    +0.000 A 
ATOM      7  C   UNL     1       2.685  14.212  20.046  0.00  0.00    +0.000 A 
ATOM      8  C   UNL     1       2.241  12.927  20.417  0.00  0.00    +0.000 A 
ATOM      9  C   UNL     1       1.048  12.457  19.843  0.00  0.00    +0.000 A 
ATOM     10  N   UNL     1       0.339  11.265  19.931  0.00  0.00    +0.000 N 
BRANCH   7  11
ATOM     11  C   UNL     1       3.966  14.689  20.633  0.00  0.00    +0.000 C 
ATOM     12  O   UNL     1       4.450  14.194  21.642  0.00  0.00    +0.000 OA
BRANCH  11  13
ATOM     13  O   UNL     1       4.546  15.721  19.983  0.00  0.00    +0.000 OA
ATOM     14  H   UNL     1       3.915  16.379  19.631  0.00  0.00    +0.000 HD
ENDBRANCH  11  13
ENDBRANCH   7  11
BRANCH   2  15
ATOM     15  C   UNL     1      -1.754  10.338  18.703  0.00  0.00    +0.000 C 
BRANCH  15  16
ATOM     16  C   UNL     1      -1.690   9.980  17.212  0.00  0.00    +0.000 C 
BRANCH  16  18
ATOM     17  C   UNL     1      -2.970  10.212  15.047  0.00  0.00    +0.000 C 
ATOM     18  C   UNL     1      -3.069   9.952  16.545  0.00  0.00    +0.000 C 
ENDBRANCH  16  18
ENDBRANCH  15  16
ENDBRANCH   2  15
ENDBRANCH   1  10
BRANCH   1  19
ATOM     19  C   UNL     1       1.303   8.980  19.809  0.00  0.00    +0.000 A 
ATOM     20  C   UNL     1       1.612   7.732  20.351  0.00  0.00    +0.000 A 
ATOM     21  C   UNL     1       2.354   6.803  19.618  0.00  0.00    +0.000 A 
ATOM     22  C   UNL     1       2.837   7.104  18.335  0.00  0.00    +0.000 A 
ATOM     23  C   UNL     1       2.309   8.258  17.727  0.00  0.00    +0.000 A 
ATOM     24  C   UNL     1       1.546   9.184  18.448  0.00  0.00    +0.000 A 
BRANCH  22  25
ATOM     25  C   UNL     1       3.897   6.288  17.673  0.00  0.00    +0.000 A 
ATOM     26  C   UNL     1       5.067   6.937  17.208  0.00  0.00    +0.000 A 
ATOM     27  C   UNL     1       6.105   6.250  16.570  0.00  0.00    +0.000 A 
ATOM     28  C   UNL     1       6.002   4.885  16.357  0.00  0.00    +0.000 A 
ATOM     29  C   UNL     1       4.882   4.204  16.823  0.00  0.00    +0.000 A 
ATOM     30  C   UNL     1       3.837   4.872  17.503  0.00  0.00    +0.000 A 
BRANCH  30  31
ATOM     31  C   UNL     1       2.768   4.023  18.036  0.00  0.00    +0.000 A 
ATOM     32  N   UNL     1       1.520   3.903  17.466  0.00  0.00    +0.000 NA
ATOM     33  N   UNL     1       0.843   3.025  18.193  0.00  0.00    +0.000 NA
ATOM     34  N   UNL     1       1.667   2.713  19.193  0.00  0.00    +0.000 N 
ATOM     35  N   UNL     1       2.879   3.287  19.161  0.00  0.00    +0.000 NA
ATOM     36  H   UNL     1       1.387   2.078  19.935  0.00  0.00    +0.000 HD
ENDBRANCH  30  31
ENDBRANCH  22  25
ENDBRANCH   1  19
TORSDOF 9
ENDMDL
