MODEL 1
REMARK VINA RESULT:      -7.9      0.000      0.000
REMARK  Name = 
REMARK  9 active torsions:
REMARK  status: ('A' for Active; 'I' for Inactive)
REMARK    1  A    between atoms: N_2  and  C_3
REMARK    2  A    between atoms: C_6  and  N_7
REMARK    3  A    between atoms: N_7  and  C_8
REMARK    4  A    between atoms: C_8  and  C_9
REMARK    5  A    between atoms: C_8  and  C_21
REMARK    6  A    between atoms: C_12  and  C_13
REMARK    7  A    between atoms: C_21  and  C_22
REMARK    8  A    between atoms: C_21  and  O_23
REMARK    9  A    between atoms: C_24  and  C_25
REMARK                            x       y       z     vdW  Elec       q    Type
REMARK                         _______ _______ _______ _____ _____    ______ ____
ROOT
ATOM      1  C   UNL     1       4.239   4.272  19.024  0.00  0.00    +0.000 C 
ENDROOT
BRANCH   1   2
ATOM      2  C   UNL     1       5.436   4.461  18.120  0.00  0.00    +0.000 A 
ATOM      3  N   UNL     1       6.711   4.468  18.455  0.00  0.00    +0.000 NA
ATOM      4  N   UNL     1       7.430   4.535  17.283  0.00  0.00    +0.000 NA
ATOM      5  C   UNL     1       6.553   4.553  16.300  0.00  0.00    +0.000 A 
ATOM      6  O   UNL     1       5.252   4.535  16.756  0.00  0.00    +0.000 OA
BRANCH   5   7
ATOM      7  C   UNL     1       6.781   4.555  14.856  0.00  0.00    +0.000 A 
ATOM      8  C   UNL     1       6.037   3.688  14.032  0.00  0.00    +0.000 A 
ATOM      9  C   UNL     1       6.251   3.648  12.651  0.00  0.00    +0.000 A 
ATOM     10  C   UNL     1       7.207   4.479  12.085  0.00  0.00    +0.000 A 
ATOM     11  F   UNL     1       7.428   4.432  10.764  0.00  0.00    +0.000 F 
ATOM     12  C   UNL     1       7.941   5.360  12.870  0.00  0.00    +0.000 A 
ATOM     13  C   UNL     1       7.725   5.401  14.253  0.00  0.00    +0.000 A 
ENDBRANCH   5   7
ENDBRANCH   1   2
BRANCH   1  14
ATOM     14  N   UNL     1       2.936   4.787  18.497  0.00  0.00    +0.000 N 
ATOM     15  H   UNL     1       2.189   4.134  18.721  0.00  0.00    +0.000 HD
BRANCH  14  19
ATOM     16  C   UNL     1       1.863   8.859  18.953  0.00  0.00    +0.000 A 
ATOM     17  C   UNL     1       2.441   8.413  17.776  0.00  0.00    +0.000 A 
ATOM     18  C   UNL     1       2.799   7.070  17.658  0.00  0.00    +0.000 A 
ATOM     19  C   UNL     1       2.598   6.139  18.697  0.00  0.00    +0.000 A 
ATOM     20  C   UNL     1       1.944   6.596  19.877  0.00  0.00    +0.000 A 
ATOM     21  C   UNL     1       1.600   5.676  21.027  0.00  0.00    +0.000 C 
ATOM     22  C   UNL     1       1.621   7.977  20.008  0.00  0.00    +0.000 A 
ATOM     23 CL   UNL     1       0.937   8.595  21.482  0.00  0.00    +0.000 Cl
BRANCH  16  25
ATOM     24  C   UNL     1       1.252  11.341  19.126  0.00  0.00    +0.000 C 
ATOM     25  N   UNL     1       1.514  10.205  19.034  0.00  0.00    +0.000 NA
ENDBRANCH  16  25
ENDBRANCH  14  19
ENDBRANCH   1  14
BRANCH   1  26
ATOM     26  C   UNL     1       4.042   2.775  19.442  0.00  0.00    +0.000 C 
ATOM     27  C   UNL     1       2.918   2.520  20.443  0.00  0.00    +0.000 C 
BRANCH  26  28
ATOM     28  O   UNL     1       5.258   2.186  19.929  0.00  0.00    +0.000 OA
ATOM     29  H   UNL     1       5.397   2.497  20.844  0.00  0.00    +0.000 HD
ENDBRANCH  26  28
ENDBRANCH   1  26
TORSDOF 7
ENDMDL
MODEL 2
REMARK VINA RESULT:      -7.8      1.153      1.730
REMARK  Name = 
REMARK  9 active torsions:
REMARK  status: ('A' for Active; 'I' for Inactive)
REMARK    1  A    between atoms: N_2  and  C_3
REMARK    2  A    between atoms: C_6  and  N_7
REMARK    3  A    between atoms: N_7  and  C_8
REMARK    4  A    between atoms: C_8  and  C_9
REMARK    5  A    between atoms: C_8  and  C_21
REMARK    6  A    between atoms: C_12  and  C_13
REMARK    7  A    between atoms: C_21  and  C_22
REMARK    8  A    between atoms: C_21  and  O_23
REMARK    9  A    between atoms: C_24  and  C_25
REMARK                            x       y       z     vdW  Elec       q    Type
REMARK                         _______ _______ _______ _____ _____    ______ ____
ROOT
ATOM      1  C   UNL     1       3.899   4.302  19.607  0.00  0.00    +0.000 C 
ENDROOT
BRANCH   1   2
ATOM      2  C   UNL     1       5.116   4.442  18.720  0.00  0.00    +0.000 A 
ATOM      3  N   UNL     1       6.385   4.395  19.074  0.00  0.00    +0.000 NA
ATOM      4  N   UNL     1       7.122   4.435  17.913  0.00  0.00    +0.000 NA
ATOM      5  C   UNL     1       6.261   4.492  16.917  0.00  0.00    +0.000 A 
ATOM      6  O   UNL     1       4.955   4.527  17.354  0.00  0.00    +0.000 OA
BRANCH   5   7
ATOM      7  C   UNL     1       6.510   4.487  15.477  0.00  0.00    +0.000 A 
ATOM      8  C   UNL     1       5.749   3.646  14.641  0.00  0.00    +0.000 A 
ATOM      9  C   UNL     1       5.982   3.600  13.263  0.00  0.00    +0.000 A 
ATOM     10  C   UNL     1       6.973   4.398  12.711  0.00  0.00    +0.000 A 
ATOM     11  F   UNL     1       7.211   4.345  11.394  0.00  0.00    +0.000 F 
ATOM     12  C   UNL     1       7.724   5.254  13.508  0.00  0.00    +0.000 A 
ATOM     13  C   UNL     1       7.490   5.301  14.888  0.00  0.00    +0.000 A 
ENDBRANCH   5   7
ENDBRANCH   1   2
BRANCH   1  14
ATOM     14  N   UNL     1       2.614   4.821  19.039  0.00  0.00    +0.000 N 
ATOM     15  H   UNL     1       1.895   4.104  19.097  0.00  0.00    +0.000 HD
BRANCH  14  19
ATOM     16  C   UNL     1       1.341   8.671  20.264  0.00  0.00    +0.000 A 
ATOM     17  C   UNL     1       1.118   7.567  21.072  0.00  0.00    +0.000 A 
ATOM     18  C   UNL     1       1.534   6.309  20.637  0.00  0.00    +0.000 A 
ATOM     19  C   UNL     1       2.174   6.110  19.398  0.00  0.00    +0.000 A 
ATOM     20  C   UNL     1       2.456   7.260  18.606  0.00  0.00    +0.000 A 
ATOM     21  C   UNL     1       3.209   7.185  17.297  0.00  0.00    +0.000 C 
ATOM     22  C   UNL     1       1.990   8.535  19.035  0.00  0.00    +0.000 A 
ATOM     23 CL   UNL     1       2.204   9.942  18.037  0.00  0.00    +0.000 Cl
BRANCH  16  25
ATOM     24  C   UNL     1       0.530  10.952  21.100  0.00  0.00    +0.000 C 
ATOM     25  N   UNL     1       0.917   9.912  20.731  0.00  0.00    +0.000 NA
ENDBRANCH  16  25
ENDBRANCH  14  19
ENDBRANCH   1  14
BRANCH   1  26
ATOM     26  C   UNL     1       3.669   2.822  20.068  0.00  0.00    +0.000 C 
ATOM     27  C   UNL     1       2.599   2.633  21.141  0.00  0.00    +0.000 C 
BRANCH  26  28
ATOM     28  O   UNL     1       4.888   2.194  20.494  0.00  0.00    +0.000 OA
ATOM     29  H   UNL     1       5.630   2.772  20.236  0.00  0.00    +0.000 HD
ENDBRANCH  26  28
ENDBRANCH   1  26
TORSDOF 7
ENDMDL
MODEL 3
REMARK VINA RESULT:      -7.8      4.093      5.937
REMARK  Name = 
REMARK  9 active torsions:
REMARK  status: ('A' for Active; 'I' for Inactive)
REMARK    1  A    between atoms: N_2  and  C_3
REMARK    2  A    between atoms: C_6  and  N_7
REMARK    3  A    between atoms: N_7  and  C_8
REMARK    4  A    between atoms: C_8  and  C_9
REMARK    5  A    between atoms: C_8  and  C_21
REMARK    6  A    between atoms: C_12  and  C_13
REMARK    7  A    between atoms: C_21  and  C_22
REMARK    8  A    between atoms: C_21  and  O_23
REMARK    9  A    between atoms: C_24  and  C_25
REMARK                            x       y       z     vdW  Elec       q    Type
REMARK                         _______ _______ _______ _____ _____    ______ ____
ROOT
ATOM      1  C   UNL     1       6.047   4.873  16.218  0.00  0.00    +0.000 C 
ENDROOT
BRANCH   1   2
ATOM      2  C   UNL     1       6.817   5.686  17.234  0.00  0.00    +0.000 A 
ATOM      3  N   UNL     1       7.530   5.246  18.251  0.00  0.00    +0.000 NA
ATOM      4  N   UNL     1       8.150   6.342  18.806  0.00  0.00    +0.000 NA
ATOM      5  C   UNL     1       7.789   7.387  18.088  0.00  0.00    +0.000 A 
ATOM      6  O   UNL     1       6.913   7.052  17.078  0.00  0.00    +0.000 OA
BRANCH   5   7
ATOM      7  C   UNL     1       8.211   8.781  18.207  0.00  0.00    +0.000 A 
ATOM      8  C   UNL     1       7.658   9.751  17.348  0.00  0.00    +0.000 A 
ATOM      9  C   UNL     1       8.061  11.089  17.419  0.00  0.00    +0.000 A 
ATOM     10  C   UNL     1       9.014  11.465  18.354  0.00  0.00    +0.000 A 
ATOM     11  F   UNL     1       9.416  12.741  18.415  0.00  0.00    +0.000 F 
ATOM     12  C   UNL     1       9.560  10.533  19.230  0.00  0.00    +0.000 A 
ATOM     13  C   UNL     1       9.156   9.195  19.159  0.00  0.00    +0.000 A 
ENDBRANCH   5   7
ENDBRANCH   1   2
BRANCH   1  14
ATOM     14  N   UNL     1       4.556   4.999  16.275  0.00  0.00    +0.000 N 
ATOM     15  H   UNL     1       4.149   4.696  15.394  0.00  0.00    +0.000 HD
BRANCH  14  19
ATOM     16  C   UNL     1       2.614   3.521  19.737  0.00  0.00    +0.000 A 
ATOM     17  C   UNL     1       3.275   2.656  18.880  0.00  0.00    +0.000 A 
ATOM     18  C   UNL     1       3.893   3.168  17.739  0.00  0.00    +0.000 A 
ATOM     19  C   UNL     1       3.870   4.539  17.416  0.00  0.00    +0.000 A 
ATOM     20  C   UNL     1       3.244   5.425  18.338  0.00  0.00    +0.000 A 
ATOM     21  C   UNL     1       3.225   6.925  18.144  0.00  0.00    +0.000 C 
ATOM     22  C   UNL     1       2.577   4.892  19.478  0.00  0.00    +0.000 A 
ATOM     23 CL   UNL     1       1.695   5.929  20.559  0.00  0.00    +0.000 Cl
BRANCH  16  25
ATOM     24  C   UNL     1       1.529   2.543  21.842  0.00  0.00    +0.000 C 
ATOM     25  N   UNL     1       2.013   2.977  20.869  0.00  0.00    +0.000 NA
ENDBRANCH  16  25
ENDBRANCH  14  19
ENDBRANCH   1  14
BRANCH   1  26
ATOM     26  C   UNL     1       6.508   5.170  14.750  0.00  0.00    +0.000 C 
ATOM     27  C   UNL     1       6.271   4.039  13.752  0.00  0.00    +0.000 C 
BRANCH  26  28
ATOM     28  O   UNL     1       7.883   5.580  14.688  0.00  0.00    +0.000 OA
ATOM     29  H   UNL     1       7.932   6.384  14.137  0.00  0.00    +0.000 HD
ENDBRANCH  26  28
ENDBRANCH   1  26
TORSDOF 7
ENDMDL
MODEL 4
REMARK VINA RESULT:      -7.6      4.040      5.289
REMARK  Name = 
REMARK  9 active torsions:
REMARK  status: ('A' for Active; 'I' for Inactive)
REMARK    1  A    between atoms: N_2  and  C_3
REMARK    2  A    between atoms: C_6  and  N_7
REMARK    3  A    between atoms: N_7  and  C_8
REMARK    4  A    between atoms: C_8  and  C_9
REMARK    5  A    between atoms: C_8  and  C_21
REMARK    6  A    between atoms: C_12  and  C_13
REMARK    7  A    between atoms: C_21  and  C_22
REMARK    8  A    between atoms: C_21  and  O_23
REMARK    9  A    between atoms: C_24  and  C_25
REMARK                            x       y       z     vdW  Elec       q    Type
REMARK                         _______ _______ _______ _____ _____    ______ ____
ROOT
ATOM      1  C   UNL     1       6.416   4.457  16.517  0.00  0.00    +0.000 C 
ENDROOT
BRANCH   1   2
ATOM      2  C   UNL     1       7.068   5.375  17.527  0.00  0.00    +0.000 A 
ATOM      3  N   UNL     1       7.698   5.042  18.636  0.00  0.00    +0.000 NA
ATOM      4  N   UNL     1       8.235   6.200  19.150  0.00  0.00    +0.000 NA
ATOM      5  C   UNL     1       7.913   7.171  18.320  0.00  0.00    +0.000 A 
ATOM      6  O   UNL     1       7.142   6.727  17.267  0.00  0.00    +0.000 OA
BRANCH   5   7
ATOM      7  C   UNL     1       8.285   8.584  18.359  0.00  0.00    +0.000 A 
ATOM      8  C   UNL     1       7.735   9.475  17.415  0.00  0.00    +0.000 A 
ATOM      9  C   UNL     1       8.092  10.827  17.411  0.00  0.00    +0.000 A 
ATOM     10  C   UNL     1       8.995  11.298  18.353  0.00  0.00    +0.000 A 
ATOM     11  F   UNL     1       9.353  12.589  18.342  0.00  0.00    +0.000 F 
ATOM     12  C   UNL     1       9.536  10.446  19.310  0.00  0.00    +0.000 A 
ATOM     13  C   UNL     1       9.177   9.093  19.315  0.00  0.00    +0.000 A 
ENDBRANCH   5   7
ENDBRANCH   1   2
BRANCH   1  14
ATOM     14  N   UNL     1       4.983   4.113  16.779  0.00  0.00    +0.000 N 
ATOM     15  H   UNL     1       4.889   3.111  16.928  0.00  0.00    +0.000 HD
BRANCH  14  19
ATOM     16  C   UNL     1       2.662   6.545  19.355  0.00  0.00    +0.000 A 
ATOM     17  C   UNL     1       3.144   7.050  18.159  0.00  0.00    +0.000 A 
ATOM     18  C   UNL     1       3.919   6.232  17.337  0.00  0.00    +0.000 A 
ATOM     19  C   UNL     1       4.238   4.902  17.676  0.00  0.00    +0.000 A 
ATOM     20  C   UNL     1       3.682   4.375  18.877  0.00  0.00    +0.000 A 
ATOM     21  C   UNL     1       3.884   2.939  19.307  0.00  0.00    +0.000 C 
ATOM     22  C   UNL     1       2.929   5.228  19.733  0.00  0.00    +0.000 A 
ATOM     23 CL   UNL     1       2.340   4.656  21.265  0.00  0.00    +0.000 Cl
BRANCH  16  25
ATOM     24  C   UNL     1       1.269   8.102  20.838  0.00  0.00    +0.000 C 
ATOM     25  N   UNL     1       1.888   7.388  20.149  0.00  0.00    +0.000 NA
ENDBRANCH  16  25
ENDBRANCH  14  19
ENDBRANCH   1  14
BRANCH   1  26
ATOM     26  C   UNL     1       6.529   5.009  15.055  0.00  0.00    +0.000 C 
ATOM     27  C   UNL     1       6.043   4.061  13.962  0.00  0.00    +0.000 C 
BRANCH  26  28
ATOM     28  O   UNL     1       7.859   5.453  14.746  0.00  0.00    +0.000 OA
ATOM     29  H   UNL     1       8.095   5.105  13.866  0.00  0.00    +0.000 HD
ENDBRANCH  26  28
ENDBRANCH   1  26
TORSDOF 7
ENDMDL
MODEL 5
REMARK VINA RESULT:      -7.4      4.553      8.551
REMARK  Name = 
REMARK  9 active torsions:
REMARK  status: ('A' for Active; 'I' for Inactive)
REMARK    1  A    between atoms: N_2  and  C_3
REMARK    2  A    between atoms: C_6  and  N_7
REMARK    3  A    between atoms: N_7  and  C_8
REMARK    4  A    between atoms: C_8  and  C_9
REMARK    5  A    between atoms: C_8  and  C_21
REMARK    6  A    between atoms: C_12  and  C_13
REMARK    7  A    between atoms: C_21  and  C_22
REMARK    8  A    between atoms: C_21  and  O_23
REMARK    9  A    between atoms: C_24  and  C_25
REMARK                            x       y       z     vdW  Elec       q    Type
REMARK                         _______ _______ _______ _____ _____    ______ ____
ROOT
ATOM      1  C   UNL     1       2.238   4.970  19.713  0.00  0.00    +0.000 C 
ENDROOT
BRANCH   1   2
ATOM      2  C   UNL     1       2.075   6.473  19.763  0.00  0.00    +0.000 A 
ATOM      3  N   UNL     1       2.473   7.361  18.875  0.00  0.00    +0.000 NA
ATOM      4  N   UNL     1       1.985   8.580  19.285  0.00  0.00    +0.000 NA
ATOM      5  C   UNL     1       1.307   8.365  20.394  0.00  0.00    +0.000 A 
ATOM      6  O   UNL     1       1.340   7.042  20.781  0.00  0.00    +0.000 OA
BRANCH   5   7
ATOM      7  C   UNL     1       0.535   9.304  21.204  0.00  0.00    +0.000 A 
ATOM      8  C   UNL     1       0.142  10.540  20.652  0.00  0.00    +0.000 A 
ATOM      9  C   UNL     1      -0.575  11.471  21.411  0.00  0.00    +0.000 A 
ATOM     10  C   UNL     1      -0.908  11.170  22.723  0.00  0.00    +0.000 A 
ATOM     11  F   UNL     1      -1.579  12.066  23.460  0.00  0.00    +0.000 F 
ATOM     12  C   UNL     1      -0.552   9.950  23.287  0.00  0.00    +0.000 A 
ATOM     13  C   UNL     1       0.163   9.017  22.527  0.00  0.00    +0.000 A 
ENDBRANCH   5   7
ENDBRANCH   1   2
BRANCH   1  14
ATOM     14  N   UNL     1       3.647   4.467  19.674  0.00  0.00    +0.000 N 
ATOM     15  H   UNL     1       3.747   3.667  20.295  0.00  0.00    +0.000 HD
BRANCH  14  19
ATOM     16  C   UNL     1       5.453   4.073  15.863  0.00  0.00    +0.000 A 
ATOM     17  C   UNL     1       4.124   3.730  16.049  0.00  0.00    +0.000 A 
ATOM     18  C   UNL     1       3.558   3.855  17.318  0.00  0.00    +0.000 A 
ATOM     19  C   UNL     1       4.290   4.316  18.430  0.00  0.00    +0.000 A 
ATOM     20  C   UNL     1       5.637   4.727  18.212  0.00  0.00    +0.000 A 
ATOM     21  C   UNL     1       6.498   5.315  19.308  0.00  0.00    +0.000 C 
ATOM     22  C   UNL     1       6.220   4.555  16.925  0.00  0.00    +0.000 A 
ATOM     23 CL   UNL     1       7.896   4.927  16.651  0.00  0.00    +0.000 Cl
BRANCH  16  25
ATOM     24  C   UNL     1       6.417   3.791  13.506  0.00  0.00    +0.000 C 
ATOM     25  N   UNL     1       5.983   3.940  14.582  0.00  0.00    +0.000 NA
ENDBRANCH  16  25
ENDBRANCH  14  19
ENDBRANCH   1  14
BRANCH   1  26
ATOM     26  C   UNL     1       1.494   4.254  20.891  0.00  0.00    +0.000 C 
ATOM     27  C   UNL     1       2.350   3.297  21.717  0.00  0.00    +0.000 C 
BRANCH  26  28
ATOM     28  O   UNL     1       0.310   3.572  20.448  0.00  0.00    +0.000 OA
ATOM     29  H   UNL     1       0.566   2.960  19.733  0.00  0.00    +0.000 HD
ENDBRANCH  26  28
ENDBRANCH   1  26
TORSDOF 7
ENDMDL
MODEL 6
REMARK VINA RESULT:      -7.4      4.490      8.431
REMARK  Name = 
REMARK  9 active torsions:
REMARK  status: ('A' for Active; 'I' for Inactive)
REMARK    1  A    between atoms: N_2  and  C_3
REMARK    2  A    between atoms: C_6  and  N_7
REMARK    3  A    between atoms: N_7  and  C_8
REMARK    4  A    between atoms: C_8  and  C_9
REMARK    5  A    between atoms: C_8  and  C_21
REMARK    6  A    between atoms: C_12  and  C_13
REMARK    7  A    between atoms: C_21  and  C_22
REMARK    8  A    between atoms: C_21  and  O_23
REMARK    9  A    between atoms: C_24  and  C_25
REMARK                            x       y       z     vdW  Elec       q    Type
REMARK                         _______ _______ _______ _____ _____    ______ ____
ROOT
ATOM      1  C   UNL     1       3.058   5.359  19.364  0.00  0.00    +0.000 C 
ENDROOT
BRANCH   1   2
ATOM      2  C   UNL     1       2.536   6.779  19.341  0.00  0.00    +0.000 A 
ATOM      3  N   UNL     1       2.504   7.613  18.322  0.00  0.00    +0.000 NA
ATOM      4  N   UNL     1       1.821   8.730  18.744  0.00  0.00    +0.000 NA
ATOM      5  C   UNL     1       1.466   8.509  19.994  0.00  0.00    +0.000 A 
ATOM      6  O   UNL     1       1.911   7.290  20.458  0.00  0.00    +0.000 OA
BRANCH   5   7
ATOM      7  C   UNL     1       0.669   9.343  20.891  0.00  0.00    +0.000 A 
ATOM      8  C   UNL     1       0.522   8.971  22.242  0.00  0.00    +0.000 A 
ATOM      9  C   UNL     1      -0.256   9.734  23.118  0.00  0.00    +0.000 A 
ATOM     10  C   UNL     1      -0.888  10.877  22.650  0.00  0.00    +0.000 A 
ATOM     11  F   UNL     1      -1.648  11.602  23.481  0.00  0.00    +0.000 F 
ATOM     12  C   UNL     1      -0.743  11.281  21.328  0.00  0.00    +0.000 A 
ATOM     13  C   UNL     1       0.037  10.518  20.451  0.00  0.00    +0.000 A 
ENDBRANCH   5   7
ENDBRANCH   1   2
BRANCH   1  14
ATOM     14  N   UNL     1       4.547   5.211  19.343  0.00  0.00    +0.000 N 
ATOM     15  H   UNL     1       4.827   4.432  19.934  0.00  0.00    +0.000 HD
BRANCH  14  19
ATOM     16  C   UNL     1       6.729   5.391  15.716  0.00  0.00    +0.000 A 
ATOM     17  C   UNL     1       7.148   6.110  16.824  0.00  0.00    +0.000 A 
ATOM     18  C   UNL     1       6.402   6.044  18.001  0.00  0.00    +0.000 A 
ATOM     19  C   UNL     1       5.227   5.274  18.111  0.00  0.00    +0.000 A 
ATOM     20  C   UNL     1       4.844   4.489  16.987  0.00  0.00    +0.000 A 
ATOM     21  C   UNL     1       3.651   3.560  17.009  0.00  0.00    +0.000 C 
ATOM     22  C   UNL     1       5.584   4.593  15.775  0.00  0.00    +0.000 A 
ATOM     23 CL   UNL     1       5.074   3.748  14.345  0.00  0.00    +0.000 Cl
BRANCH  16  25
ATOM     24  C   UNL     1       8.135   5.511  13.578  0.00  0.00    +0.000 C 
ATOM     25  N   UNL     1       7.500   5.475  14.560  0.00  0.00    +0.000 NA
ENDBRANCH  16  25
ENDBRANCH  14  19
ENDBRANCH   1  14
BRANCH   1  26
ATOM     26  C   UNL     1       2.501   4.543  20.581  0.00  0.00    +0.000 C 
ATOM     27  C   UNL     1       2.957   3.088  20.652  0.00  0.00    +0.000 C 
BRANCH  26  28
ATOM     28  O   UNL     1       1.068   4.599  20.658  0.00  0.00    +0.000 OA
ATOM     29  H   UNL     1       0.762   3.808  21.140  0.00  0.00    +0.000 HD
ENDBRANCH  26  28
ENDBRANCH   1  26
TORSDOF 7
ENDMDL
MODEL 7
REMARK VINA RESULT:      -7.4      1.389      2.134
REMARK  Name = 
REMARK  9 active torsions:
REMARK  status: ('A' for Active; 'I' for Inactive)
REMARK    1  A    between atoms: N_2  and  C_3
REMARK    2  A    between atoms: C_6  and  N_7
REMARK    3  A    between atoms: N_7  and  C_8
REMARK    4  A    between atoms: C_8  and  C_9
REMARK    5  A    between atoms: C_8  and  C_21
REMARK    6  A    between atoms: C_12  and  C_13
REMARK    7  A    between atoms: C_21  and  C_22
REMARK    8  A    between atoms: C_21  and  O_23
REMARK    9  A    between atoms: C_24  and  C_25
REMARK                            x       y       z     vdW  Elec       q    Type
REMARK                         _______ _______ _______ _____ _____    ______ ____
ROOT
ATOM      1  C   UNL     1       3.744   4.638  19.692  0.00  0.00    +0.000 C 
ENDROOT
BRANCH   1   2
ATOM      2  C   UNL     1       4.981   4.664  18.822  0.00  0.00    +0.000 A 
ATOM      3  N   UNL     1       6.239   4.557  19.199  0.00  0.00    +0.000 NA
ATOM      4  N   UNL     1       6.995   4.500  18.051  0.00  0.00    +0.000 NA
ATOM      5  C   UNL     1       6.154   4.564  17.038  0.00  0.00    +0.000 A 
ATOM      6  O   UNL     1       4.846   4.698  17.451  0.00  0.00    +0.000 OA
BRANCH   5   7
ATOM      7  C   UNL     1       6.424   4.480  15.605  0.00  0.00    +0.000 A 
ATOM      8  C   UNL     1       7.498   5.209  15.054  0.00  0.00    +0.000 A 
ATOM      9  C   UNL     1       7.764   5.169  13.682  0.00  0.00    +0.000 A 
ATOM     10  C   UNL     1       6.964   4.397  12.853  0.00  0.00    +0.000 A 
ATOM     11  F   UNL     1       7.205   4.370  11.535  0.00  0.00    +0.000 F 
ATOM     12  C   UNL     1       5.912   3.650  13.371  0.00  0.00    +0.000 A 
ATOM     13  C   UNL     1       5.646   3.688  14.745  0.00  0.00    +0.000 A 
ENDBRANCH   5   7
ENDBRANCH   1   2
BRANCH   1  14
ATOM     14  N   UNL     1       2.499   5.194  19.074  0.00  0.00    +0.000 N 
ATOM     15  H   UNL     1       1.769   4.486  19.070  0.00  0.00    +0.000 HD
BRANCH  14  19
ATOM     16  C   UNL     1       1.231   9.028  20.351  0.00  0.00    +0.000 A 
ATOM     17  C   UNL     1       1.070   7.925  21.174  0.00  0.00    +0.000 A 
ATOM     18  C   UNL     1       1.483   6.672  20.722  0.00  0.00    +0.000 A 
ATOM     19  C   UNL     1       2.058   6.477  19.451  0.00  0.00    +0.000 A 
ATOM     20  C   UNL     1       2.277   7.627  18.640  0.00  0.00    +0.000 A 
ATOM     21  C   UNL     1       2.959   7.558  17.293  0.00  0.00    +0.000 C 
ATOM     22  C   UNL     1       1.814   8.897  19.089  0.00  0.00    +0.000 A 
ATOM     23 CL   UNL     1       1.950  10.303  18.075  0.00  0.00    +0.000 Cl
BRANCH  16  25
ATOM     24  C   UNL     1       0.482  11.297  21.274  0.00  0.00    +0.000 C 
ATOM     25  N   UNL     1       0.812  10.264  20.836  0.00  0.00    +0.000 NA
ENDBRANCH  16  25
ENDBRANCH  14  19
ENDBRANCH   1  14
BRANCH   1  26
ATOM     26  C   UNL     1       3.427   3.199  20.226  0.00  0.00    +0.000 C 
ATOM     27  C   UNL     1       2.872   2.227  19.188  0.00  0.00    +0.000 C 
BRANCH  26  28
ATOM     28  O   UNL     1       2.557   3.227  21.368  0.00  0.00    +0.000 OA
ATOM     29  H   UNL     1       2.020   2.412  21.357  0.00  0.00    +0.000 HD
ENDBRANCH  26  28
ENDBRANCH   1  26
TORSDOF 7
ENDMDL
MODEL 8
REMARK VINA RESULT:      -7.3      2.107      3.018
REMARK  Name = 
REMARK  9 active torsions:
REMARK  status: ('A' for Active; 'I' for Inactive)
REMARK    1  A    between atoms: N_2  and  C_3
REMARK    2  A    between atoms: C_6  and  N_7
REMARK    3  A    between atoms: N_7  and  C_8
REMARK    4  A    between atoms: C_8  and  C_9
REMARK    5  A    between atoms: C_8  and  C_21
REMARK    6  A    between atoms: C_12  and  C_13
REMARK    7  A    between atoms: C_21  and  C_22
REMARK    8  A    between atoms: C_21  and  O_23
REMARK    9  A    between atoms: C_24  and  C_25
REMARK                            x       y       z     vdW  Elec       q    Type
REMARK                         _______ _______ _______ _____ _____    ______ ____
ROOT
ATOM      1  C   UNL     1       2.982   6.090  19.661  0.00  0.00    +0.000 C 
ENDROOT
BRANCH   1   2
ATOM      2  C   UNL     1       4.203   5.507  18.986  0.00  0.00    +0.000 A 
ATOM      3  N   UNL     1       5.160   4.782  19.530  0.00  0.00    +0.000 NA
ATOM      4  N   UNL     1       5.978   4.369  18.503  0.00  0.00    +0.000 NA
ATOM      5  C   UNL     1       5.467   4.856  17.390  0.00  0.00    +0.000 A 
ATOM      6  O   UNL     1       4.342   5.620  17.620  0.00  0.00    +0.000 OA
BRANCH   5   7
ATOM      7  C   UNL     1       5.906   4.666  16.010  0.00  0.00    +0.000 A 
ATOM      8  C   UNL     1       7.146   5.192  15.595  0.00  0.00    +0.000 A 
ATOM      9  C   UNL     1       7.581   5.050  14.273  0.00  0.00    +0.000 A 
ATOM     10  C   UNL     1       6.783   4.375  13.361  0.00  0.00    +0.000 A 
ATOM     11  F   UNL     1       7.188   4.251  12.090  0.00  0.00    +0.000 F 
ATOM     12  C   UNL     1       5.566   3.827  13.748  0.00  0.00    +0.000 A 
ATOM     13  C   UNL     1       5.131   3.968  15.071  0.00  0.00    +0.000 A 
ENDBRANCH   5   7
ENDBRANCH   1   2
BRANCH   1  14
ATOM     14  N   UNL     1       2.423   7.331  19.039  0.00  0.00    +0.000 N 
ATOM     15  H   UNL     1       2.040   7.118  18.121  0.00  0.00    +0.000 HD
BRANCH  14  19
ATOM     16  C   UNL     1       0.106   9.897  21.488  0.00  0.00    +0.000 A 
ATOM     17  C   UNL     1       0.729   8.783  22.029  0.00  0.00    +0.000 A 
ATOM     18  C   UNL     1       1.474   7.947  21.197  0.00  0.00    +0.000 A 
ATOM     19  C   UNL     1       1.617   8.186  19.816  0.00  0.00    +0.000 A 
ATOM     20  C   UNL     1       1.026   9.368  19.284  0.00  0.00    +0.000 A 
ATOM     21  C   UNL     1       1.178   9.777  17.836  0.00  0.00    +0.000 C 
ATOM     22  C   UNL     1       0.232  10.194  20.130  0.00  0.00    +0.000 A 
ATOM     23 CL   UNL     1      -0.608  11.576  19.491  0.00  0.00    +0.000 Cl
BRANCH  16  25
ATOM     24  C   UNL     1      -1.226  11.428  23.051  0.00  0.00    +0.000 C 
ATOM     25  N   UNL     1      -0.624  10.712  22.349  0.00  0.00    +0.000 NA
ENDBRANCH  16  25
ENDBRANCH  14  19
ENDBRANCH   1  14
BRANCH   1  26
ATOM     26  C   UNL     1       1.823   5.043  19.795  0.00  0.00    +0.000 C 
ATOM     27  C   UNL     1       1.884   4.160  21.038  0.00  0.00    +0.000 C 
BRANCH  26  28
ATOM     28  O   UNL     1       1.704   4.217  18.627  0.00  0.00    +0.000 OA
ATOM     29  H   UNL     1       1.361   4.771  17.900  0.00  0.00    +0.000 HD
ENDBRANCH  26  28
ENDBRANCH   1  26
TORSDOF 7
ENDMDL
MODEL 9
REMARK VINA RESULT:      -7.2      1.715      2.357
REMARK  Name = 
REMARK  9 active torsions:
REMARK  status: ('A' for Active; 'I' for Inactive)
REMARK    1  A    between atoms: N_2  and  C_3
REMARK    2  A    between atoms: C_6  and  N_7
REMARK    3  A    between atoms: N_7  and  C_8
REMARK    4  A    between atoms: C_8  and  C_9
REMARK    5  A    between atoms: C_8  and  C_21
REMARK    6  A    between atoms: C_12  and  C_13
REMARK    7  A    between atoms: C_21  and  C_22
REMARK    8  A    between atoms: C_21  and  O_23
REMARK    9  A    between atoms: C_24  and  C_25
REMARK                            x       y       z     vdW  Elec       q    Type
REMARK                         _______ _______ _______ _____ _____    ______ ____
ROOT
ATOM      1  C   UNL     1       5.484   6.067  17.744  0.00  0.00    +0.000 C 
ENDROOT
BRANCH   1   2
ATOM      2  C   UNL     1       6.166   5.795  16.423  0.00  0.00    +0.000 A 
ATOM      3  N   UNL     1       7.362   6.189  16.033  0.00  0.00    +0.000 NA
ATOM      4  N   UNL     1       7.602   5.589  14.818  0.00  0.00    +0.000 NA
ATOM      5  C   UNL     1       6.544   4.854  14.541  0.00  0.00    +0.000 A 
ATOM      6  O   UNL     1       5.568   4.955  15.509  0.00  0.00    +0.000 OA
BRANCH   5   7
ATOM      7  C   UNL     1       6.306   3.964  13.407  0.00  0.00    +0.000 A 
ATOM      8  C   UNL     1       7.401   3.453  12.682  0.00  0.00    +0.000 A 
ATOM      9  C   UNL     1       7.204   2.620  11.575  0.00  0.00    +0.000 A 
ATOM     10  C   UNL     1       5.913   2.289  11.191  0.00  0.00    +0.000 A 
ATOM     11  F   UNL     1       5.719   1.506  10.122  0.00  0.00    +0.000 F 
ATOM     12  C   UNL     1       4.815   2.761  11.902  0.00  0.00    +0.000 A 
ATOM     13  C   UNL     1       5.012   3.593  13.010  0.00  0.00    +0.000 A 
ENDBRANCH   5   7
ENDBRANCH   1   2
BRANCH   1  14
ATOM     14  N   UNL     1       3.997   5.894  17.759  0.00  0.00    +0.000 N 
ATOM     15  H   UNL     1       3.759   4.976  18.126  0.00  0.00    +0.000 HD
BRANCH  14  19
ATOM     16  C   UNL     1       1.500   9.051  19.077  0.00  0.00    +0.000 A 
ATOM     17  C   UNL     1       2.155   9.136  17.859  0.00  0.00    +0.000 A 
ATOM     18  C   UNL     1       2.983   8.088  17.456  0.00  0.00    +0.000 A 
ATOM     19  C   UNL     1       3.187   6.938  18.245  0.00  0.00    +0.000 A 
ATOM     20  C   UNL     1       2.458   6.835  19.464  0.00  0.00    +0.000 A 
ATOM     21  C   UNL     1       2.529   5.615  20.356  0.00  0.00    +0.000 C 
ATOM     22  C   UNL     1       1.648   7.926  19.890  0.00  0.00    +0.000 A 
ATOM     23 CL   UNL     1       0.843   7.888  21.430  0.00  0.00    +0.000 Cl
BRANCH  16  25
ATOM     24  C   UNL     1      -0.033  11.000  19.722  0.00  0.00    +0.000 C 
ATOM     25  N   UNL     1       0.677  10.112  19.446  0.00  0.00    +0.000 NA
ENDBRANCH  16  25
ENDBRANCH  14  19
ENDBRANCH   1  14
BRANCH   1  26
ATOM     26  C   UNL     1       6.089   5.213  18.910  0.00  0.00    +0.000 C 
ATOM     27  C   UNL     1       7.463   5.663  19.402  0.00  0.00    +0.000 C 
BRANCH  26  28
ATOM     28  O   UNL     1       6.130   3.814  18.590  0.00  0.00    +0.000 OA
ATOM     29  H   UNL     1       6.974   3.635  18.134  0.00  0.00    +0.000 HD
ENDBRANCH  26  28
ENDBRANCH   1  26
TORSDOF 7
ENDMDL
