MODEL 1
REMARK VINA RESULT:      -7.6      0.000      0.000
REMARK  Name = 
REMARK  8 active torsions:
REMARK  status: ('A' for Active; 'I' for Inactive)
REMARK    1  A    between atoms: C_1  and  O_2
REMARK    2  A    between atoms: O_2  and  C_3
REMARK    3  A    between atoms: C_8  and  O_9
REMARK    4  A    between atoms: C_15  and  O_16
REMARK    5  A    between atoms: O_16  and  C_17
REMARK    6  A    between atoms: C_18  and  O_19
REMARK    7  A    between atoms: N_23  and  C_24
REMARK    8  A    between atoms: C_24  and  C_25
REMARK                            x       y       z     vdW  Elec       q    Type
REMARK                         _______ _______ _______ _____ _____    ______ ____
ROOT
ATOM      1  C   UNL     1       5.623   4.513  15.704  0.00  0.00    +0.000 A 
ATOM      2  C   UNL     1       4.832   4.287  16.851  0.00  0.00    +0.000 A 
ATOM      3  C   UNL     1       4.129   5.307  17.529  0.00  0.00    +0.000 A 
ATOM      4  C   UNL     1       4.250   6.589  16.966  0.00  0.00    +0.000 A 
ATOM      5  C   UNL     1       5.043   6.833  15.824  0.00  0.00    +0.000 A 
ATOM      6  C   UNL     1       5.716   5.800  15.190  0.00  0.00    +0.000 A 
ATOM      7  C   UNL     1       3.392   7.731  17.427  0.00  0.00    +0.000 C 
ATOM      8  C   UNL     1       2.816   7.642  18.843  0.00  0.00    +0.000 C 
ATOM      9  C   UNL     1       2.632   6.215  19.358  0.00  0.00    +0.000 A 
ATOM     10  C   UNL     1       1.841   6.061  20.530  0.00  0.00    +0.000 A 
ATOM     11  C   UNL     1       1.664   4.804  21.117  0.00  0.00    +0.000 A 
ATOM     12  C   UNL     1       2.271   3.695  20.553  0.00  0.00    +0.000 A 
ATOM     13  C   UNL     1       3.057   3.850  19.390  0.00  0.00    +0.000 A 
ATOM     14  C   UNL     1       3.276   5.098  18.752  0.00  0.00    +0.000 A 
ATOM     15  C   UNL     1       1.108   7.229  21.151  0.00  0.00    +0.000 C 
ATOM     16  C   UNL     1       1.321   8.577  20.455  0.00  0.00    +0.000 C 
ATOM     17  N   UNL     1       1.545   8.404  19.012  0.00  0.00    +0.000 NA
ENDROOT
BRANCH   1  19
ATOM     18  C   UNL     1       6.174   3.284  13.754  0.00  0.00    +0.000 C 
ATOM     19  O   UNL     1       6.184   3.379  15.173  0.00  0.00    +0.000 OA
ENDBRANCH   1  19
BRANCH   6  20
ATOM     20  O   UNL     1       6.410   6.075  14.047  0.00  0.00    +0.000 OA
ATOM     21  H   UNL     1       5.885   6.677  13.495  0.00  0.00    +0.000 HD
ENDBRANCH   6  20
BRANCH  12  22
ATOM     22  O   UNL     1       2.172   2.408  21.032  0.00  0.00    +0.000 OA
ATOM     23  C   UNL     1       1.271   2.198  22.116  0.00  0.00    +0.000 C 
ENDBRANCH  12  22
BRANCH  13  24
ATOM     24  O   UNL     1       3.616   2.684  18.911  0.00  0.00    +0.000 OA
ATOM     25  H   UNL     1       2.871   2.164  18.553  0.00  0.00    +0.000 HD
ENDBRANCH  13  24
BRANCH  17  26
ATOM     26  C   UNL     1       1.453   9.677  18.285  0.00  0.00    +0.000 C 
BRANCH  26  27
ATOM     27  C   UNL     1       0.038  10.218  18.216  0.00  0.00    +0.000 A 
ATOM     28  C   UNL     1      -0.311  11.378  18.922  0.00  0.00    +0.000 A 
ATOM     29  C   UNL     1      -1.627  11.848  18.902  0.00  0.00    +0.000 A 
ATOM     30  C   UNL     1      -2.596  11.166  18.169  0.00  0.00    +0.000 A 
ATOM     31 BR   UNL     1      -4.381  11.788  18.176  0.00  0.00    +0.000 Br
ATOM     32  C   UNL     1      -2.262  10.028  17.445  0.00  0.00    +0.000 A 
ATOM     33  C   UNL     1      -0.948   9.554  17.464  0.00  0.00    +0.000 A 
ENDBRANCH  26  27
ENDBRANCH  17  26
TORSDOF 6
ENDMDL
MODEL 2
REMARK VINA RESULT:      -7.4      6.319     10.765
REMARK  Name = 
REMARK  8 active torsions:
REMARK  status: ('A' for Active; 'I' for Inactive)
REMARK    1  A    between atoms: C_1  and  O_2
REMARK    2  A    between atoms: O_2  and  C_3
REMARK    3  A    between atoms: C_8  and  O_9
REMARK    4  A    between atoms: C_15  and  O_16
REMARK    5  A    between atoms: O_16  and  C_17
REMARK    6  A    between atoms: C_18  and  O_19
REMARK    7  A    between atoms: N_23  and  C_24
REMARK    8  A    between atoms: C_24  and  C_25
REMARK                            x       y       z     vdW  Elec       q    Type
REMARK                         _______ _______ _______ _____ _____    ______ ____
ROOT
ATOM      1  C   UNL     1      -2.655  14.718  24.085  0.00  0.00    +0.000 A 
ATOM      2  C   UNL     1      -3.371  14.081  23.049  0.00  0.00    +0.000 A 
ATOM      3  C   UNL     1      -2.760  13.522  21.905  0.00  0.00    +0.000 A 
ATOM      4  C   UNL     1      -1.358  13.622  21.871  0.00  0.00    +0.000 A 
ATOM      5  C   UNL     1      -0.628  14.263  22.894  0.00  0.00    +0.000 A 
ATOM      6  C   UNL     1      -1.271  14.798  24.000  0.00  0.00    +0.000 A 
ATOM      7  C   UNL     1      -0.545  12.887  20.846  0.00  0.00    +0.000 C 
ATOM      8  C   UNL     1      -1.250  12.504  19.541  0.00  0.00    +0.000 C 
ATOM      9  C   UNL     1      -2.762  12.329  19.673  0.00  0.00    +0.000 A 
ATOM     10  C   UNL     1      -3.425  11.698  18.583  0.00  0.00    +0.000 A 
ATOM     11  C   UNL     1      -4.815  11.547  18.577  0.00  0.00    +0.000 A 
ATOM     12  C   UNL     1      -5.558  12.022  19.644  0.00  0.00    +0.000 A 
ATOM     13  C   UNL     1      -4.899  12.649  20.725  0.00  0.00    +0.000 A 
ATOM     14  C   UNL     1      -3.494  12.835  20.785  0.00  0.00    +0.000 A 
ATOM     15  C   UNL     1      -2.655  11.108  17.421  0.00  0.00    +0.000 C 
ATOM     16  C   UNL     1      -1.135  11.284  17.490  0.00  0.00    +0.000 C 
ATOM     17  N   UNL     1      -0.661  11.303  18.882  0.00  0.00    +0.000 NA
ENDROOT
BRANCH   1  19
ATOM     18  C   UNL     1      -3.977  16.460  25.000  0.00  0.00    +0.000 C 
ATOM     19  O   UNL     1      -3.435  15.151  25.127  0.00  0.00    +0.000 OA
ENDBRANCH   1  19
BRANCH   6  20
ATOM     20  O   UNL     1      -0.514  15.341  24.998  0.00  0.00    +0.000 OA
ATOM     21  H   UNL     1      -0.936  16.159  25.307  0.00  0.00    +0.000 HD
ENDBRANCH   6  20
BRANCH  12  22
ATOM     22  O   UNL     1      -6.927  11.932  19.759  0.00  0.00    +0.000 OA
ATOM     23  C   UNL     1      -7.697  12.680  18.822  0.00  0.00    +0.000 C 
ENDBRANCH  12  22
BRANCH  13  24
ATOM     24  O   UNL     1      -5.731  13.085  21.734  0.00  0.00    +0.000 OA
ATOM     25  H   UNL     1      -5.188  13.072  22.545  0.00  0.00    +0.000 HD
ENDBRANCH  13  24
BRANCH  17  26
ATOM     26  C   UNL     1       0.799  11.170  18.967  0.00  0.00    +0.000 C 
BRANCH  26  27
ATOM     27  C   UNL     1       1.252   9.735  19.158  0.00  0.00    +0.000 A 
ATOM     28  C   UNL     1       1.059   9.090  20.388  0.00  0.00    +0.000 A 
ATOM     29  C   UNL     1       1.523   7.788  20.582  0.00  0.00    +0.000 A 
ATOM     30  C   UNL     1       2.172   7.120  19.545  0.00  0.00    +0.000 A 
ATOM     31 BR   UNL     1       2.828   5.370  19.828  0.00  0.00    +0.000 Br
ATOM     32  C   UNL     1       2.351   7.736  18.312  0.00  0.00    +0.000 A 
ATOM     33  C   UNL     1       1.890   9.039  18.116  0.00  0.00    +0.000 A 
ENDBRANCH  26  27
ENDBRANCH  17  26
TORSDOF 6
ENDMDL
MODEL 3
REMARK VINA RESULT:      -7.3      6.250     11.080
REMARK  Name = 
REMARK  8 active torsions:
REMARK  status: ('A' for Active; 'I' for Inactive)
REMARK    1  A    between atoms: C_1  and  O_2
REMARK    2  A    between atoms: O_2  and  C_3
REMARK    3  A    between atoms: C_8  and  O_9
REMARK    4  A    between atoms: C_15  and  O_16
REMARK    5  A    between atoms: O_16  and  C_17
REMARK    6  A    between atoms: C_18  and  O_19
REMARK    7  A    between atoms: N_23  and  C_24
REMARK    8  A    between atoms: C_24  and  C_25
REMARK                            x       y       z     vdW  Elec       q    Type
REMARK                         _______ _______ _______ _____ _____    ______ ____
ROOT
ATOM      1  C   UNL     1      -5.240  13.214  23.867  0.00  0.00    +0.000 A 
ATOM      2  C   UNL     1      -5.370  12.921  22.492  0.00  0.00    +0.000 A 
ATOM      3  C   UNL     1      -4.276  12.627  21.649  0.00  0.00    +0.000 A 
ATOM      4  C   UNL     1      -3.020  12.621  22.283  0.00  0.00    +0.000 A 
ATOM      5  C   UNL     1      -2.874  12.920  23.654  0.00  0.00    +0.000 A 
ATOM      6  C   UNL     1      -3.977  13.203  24.444  0.00  0.00    +0.000 A 
ATOM      7  C   UNL     1      -1.794  12.110  21.586  0.00  0.00    +0.000 C 
ATOM      8  C   UNL     1      -1.803  12.131  20.054  0.00  0.00    +0.000 C 
ATOM      9  C   UNL     1      -3.197  12.047  19.433  0.00  0.00    +0.000 A 
ATOM     10  C   UNL     1      -3.254  11.770  18.039  0.00  0.00    +0.000 A 
ATOM     11  C   UNL     1      -4.478  11.735  17.364  0.00  0.00    +0.000 A 
ATOM     12  C   UNL     1      -5.650  11.979  18.059  0.00  0.00    +0.000 A 
ATOM     13  C   UNL     1      -5.591  12.255  19.443  0.00  0.00    +0.000 A 
ATOM     14  C   UNL     1      -4.380  12.308  20.181  0.00  0.00    +0.000 A 
ATOM     15  C   UNL     1      -2.010  11.437  17.245  0.00  0.00    +0.000 C 
ATOM     16  C   UNL     1      -0.701  11.470  18.040  0.00  0.00    +0.000 C 
ATOM     17  N   UNL     1      -0.919  11.095  19.445  0.00  0.00    +0.000 NA
ENDROOT
BRANCH   1  19
ATOM     18  C   UNL     1      -7.594  13.428  23.694  0.00  0.00    +0.000 C 
ATOM     19  O   UNL     1      -6.431  13.426  24.513  0.00  0.00    +0.000 OA
ENDBRANCH   1  19
BRANCH   6  20
ATOM     20  O   UNL     1      -3.789  13.412  25.779  0.00  0.00    +0.000 OA
ATOM     21  H   UNL     1      -4.568  13.094  26.263  0.00  0.00    +0.000 HD
ENDBRANCH   6  20
BRANCH  12  22
ATOM     22  O   UNL     1      -6.912  11.971  17.512  0.00  0.00    +0.000 OA
ATOM     23  C   UNL     1      -7.328  13.160  16.847  0.00  0.00    +0.000 C 
ENDBRANCH  12  22
BRANCH  13  24
ATOM     24  O   UNL     1      -6.813  12.483  20.039  0.00  0.00    +0.000 OA
ATOM     25  H   UNL     1      -6.877  13.452  20.142  0.00  0.00    +0.000 HD
ENDBRANCH  13  24
BRANCH  17  26
ATOM     26  C   UNL     1       0.344  10.830  20.145  0.00  0.00    +0.000 C 
BRANCH  26  27
ATOM     27  C   UNL     1       1.058   9.595  19.630  0.00  0.00    +0.000 A 
ATOM     28  C   UNL     1       1.268   8.496  20.475  0.00  0.00    +0.000 A 
ATOM     29  C   UNL     1       1.971   7.379  20.019  0.00  0.00    +0.000 A 
ATOM     30  C   UNL     1       2.459   7.351  18.713  0.00  0.00    +0.000 A 
ATOM     31 BR   UNL     1       3.441   5.851  18.115  0.00  0.00    +0.000 Br
ATOM     32  C   UNL     1       2.240   8.423  17.856  0.00  0.00    +0.000 A 
ATOM     33  C   UNL     1       1.539   9.542  18.310  0.00  0.00    +0.000 A 
ENDBRANCH  26  27
ENDBRANCH  17  26
TORSDOF 6
ENDMDL
MODEL 4
REMARK VINA RESULT:      -7.2      5.529      8.375
REMARK  Name = 
REMARK  8 active torsions:
REMARK  status: ('A' for Active; 'I' for Inactive)
REMARK    1  A    between atoms: C_1  and  O_2
REMARK    2  A    between atoms: O_2  and  C_3
REMARK    3  A    between atoms: C_8  and  O_9
REMARK    4  A    between atoms: C_15  and  O_16
REMARK    5  A    between atoms: O_16  and  C_17
REMARK    6  A    between atoms: C_18  and  O_19
REMARK    7  A    between atoms: N_23  and  C_24
REMARK    8  A    between atoms: C_24  and  C_25
REMARK                            x       y       z     vdW  Elec       q    Type
REMARK                         _______ _______ _______ _____ _____    ______ ____
ROOT
ATOM      1  C   UNL     1       3.103  15.743  18.751  0.00  0.00    +0.000 A 
ATOM      2  C   UNL     1       2.721  14.386  18.675  0.00  0.00    +0.000 A 
ATOM      3  C   UNL     1       1.922  13.744  19.646  0.00  0.00    +0.000 A 
ATOM      4  C   UNL     1       1.500  14.564  20.708  0.00  0.00    +0.000 A 
ATOM      5  C   UNL     1       1.881  15.920  20.802  0.00  0.00    +0.000 A 
ATOM      6  C   UNL     1       2.668  16.509  19.825  0.00  0.00    +0.000 A 
ATOM      7  C   UNL     1       0.469  14.100  21.694  0.00  0.00    +0.000 C 
ATOM      8  C   UNL     1       0.306  12.587  21.873  0.00  0.00    +0.000 C 
ATOM      9  C   UNL     1       0.702  11.765  20.647  0.00  0.00    +0.000 A 
ATOM     10  C   UNL     1       0.303  10.399  20.645  0.00  0.00    +0.000 A 
ATOM     11  C   UNL     1       0.670   9.545  19.600  0.00  0.00    +0.000 A 
ATOM     12  C   UNL     1       1.436  10.033  18.555  0.00  0.00    +0.000 A 
ATOM     13  C   UNL     1       1.832  11.389  18.560  0.00  0.00    +0.000 A 
ATOM     14  C   UNL     1       1.495  12.302  19.593  0.00  0.00    +0.000 A 
ATOM     15  C   UNL     1      -0.584   9.830  21.730  0.00  0.00    +0.000 C 
ATOM     16  C   UNL     1      -0.972  10.815  22.837  0.00  0.00    +0.000 C 
ATOM     17  N   UNL     1      -1.059  12.190  22.324  0.00  0.00    +0.000 NA
ENDROOT
BRANCH   1  19
ATOM     18  C   UNL     1       5.163  15.663  17.581  0.00  0.00    +0.000 C 
ATOM     19  O   UNL     1       3.843  16.181  17.682  0.00  0.00    +0.000 OA
ENDBRANCH   1  19
BRANCH   6  20
ATOM     20  O   UNL     1       2.947  17.841  19.924  0.00  0.00    +0.000 OA
ATOM     21  H   UNL     1       2.988  18.088  20.862  0.00  0.00    +0.000 HD
ENDBRANCH   6  20
BRANCH  12  22
ATOM     22  O   UNL     1       1.858   9.298  17.471  0.00  0.00    +0.000 OA
ATOM     23  C   UNL     1       2.666   8.158  17.748  0.00  0.00    +0.000 C 
ENDBRANCH  12  22
BRANCH  13  24
ATOM     24  O   UNL     1       2.592  11.772  17.475  0.00  0.00    +0.000 OA
ATOM     25  H   UNL     1       3.496  11.457  17.665  0.00  0.00    +0.000 HD
ENDBRANCH  13  24
BRANCH  17  26
ATOM     26  C   UNL     1      -1.711  13.094  23.280  0.00  0.00    +0.000 C 
BRANCH  26  27
ATOM     27  C   UNL     1      -3.223  12.975  23.269  0.00  0.00    +0.000 A 
ATOM     28  C   UNL     1      -3.947  13.274  22.106  0.00  0.00    +0.000 A 
ATOM     29  C   UNL     1      -5.343  13.216  22.108  0.00  0.00    +0.000 A 
ATOM     30  C   UNL     1      -6.020  12.850  23.270  0.00  0.00    +0.000 A 
ATOM     31 BR   UNL     1      -7.910  12.810  23.275  0.00  0.00    +0.000 Br
ATOM     32  C   UNL     1      -5.317  12.529  24.425  0.00  0.00    +0.000 A 
ATOM     33  C   UNL     1      -3.922  12.588  24.426  0.00  0.00    +0.000 A 
ENDBRANCH  26  27
ENDBRANCH  17  26
TORSDOF 6
ENDMDL
MODEL 5
REMARK VINA RESULT:      -7.2      5.871     10.529
REMARK  Name = 
REMARK  8 active torsions:
REMARK  status: ('A' for Active; 'I' for Inactive)
REMARK    1  A    between atoms: C_1  and  O_2
REMARK    2  A    between atoms: O_2  and  C_3
REMARK    3  A    between atoms: C_8  and  O_9
REMARK    4  A    between atoms: C_15  and  O_16
REMARK    5  A    between atoms: O_16  and  C_17
REMARK    6  A    between atoms: C_18  and  O_19
REMARK    7  A    between atoms: N_23  and  C_24
REMARK    8  A    between atoms: C_24  and  C_25
REMARK                            x       y       z     vdW  Elec       q    Type
REMARK                         _______ _______ _______ _____ _____    ______ ____
ROOT
ATOM      1  C   UNL     1      -3.404  14.322  23.319  0.00  0.00    +0.000 A 
ATOM      2  C   UNL     1      -3.792  13.675  22.126  0.00  0.00    +0.000 A 
ATOM      3  C   UNL     1      -2.906  12.936  21.313  0.00  0.00    +0.000 A 
ATOM      4  C   UNL     1      -1.584  12.863  21.787  0.00  0.00    +0.000 A 
ATOM      5  C   UNL     1      -1.178  13.510  22.973  0.00  0.00    +0.000 A 
ATOM      6  C   UNL     1      -2.083  14.226  23.740  0.00  0.00    +0.000 A 
ATOM      7  C   UNL     1      -0.580  11.937  21.166  0.00  0.00    +0.000 C 
ATOM      8  C   UNL     1      -0.825  11.513  19.714  0.00  0.00    +0.000 C 
ATOM      9  C   UNL     1      -2.295  11.535  19.295  0.00  0.00    +0.000 A 
ATOM     10  C   UNL     1      -2.614  10.883  18.071  0.00  0.00    +0.000 A 
ATOM     11  C   UNL     1      -3.918  10.901  17.567  0.00  0.00    +0.000 A 
ATOM     12  C   UNL     1      -4.912  11.566  18.265  0.00  0.00    +0.000 A 
ATOM     13  C   UNL     1      -4.593  12.213  19.478  0.00  0.00    +0.000 A 
ATOM     14  C   UNL     1      -3.289  12.234  20.038  0.00  0.00    +0.000 A 
ATOM     15  C   UNL     1      -1.580  10.092  17.301  0.00  0.00    +0.000 C 
ATOM     16  C   UNL     1      -0.174  10.090  17.910  0.00  0.00    +0.000 C 
ATOM     17  N   UNL     1      -0.226  10.190  19.376  0.00  0.00    +0.000 NA
ENDROOT
BRANCH   1  19
ATOM     18  C   UNL     1      -5.738  14.696  23.486  0.00  0.00    +0.000 C 
ATOM     19  O   UNL     1      -4.429  14.947  23.982  0.00  0.00    +0.000 OA
ENDBRANCH   1  19
BRANCH   6  20
ATOM     20  O   UNL     1      -1.657  14.771  24.917  0.00  0.00    +0.000 OA
ATOM     21  H   UNL     1      -2.391  14.767  25.553  0.00  0.00    +0.000 HD
ENDBRANCH   6  20
BRANCH  12  22
ATOM     22  O   UNL     1      -6.229  11.653  17.877  0.00  0.00    +0.000 OA
ATOM     23  C   UNL     1      -6.584  12.769  17.066  0.00  0.00    +0.000 C 
ENDBRANCH  12  22
BRANCH  13  24
ATOM     24  O   UNL     1      -5.653  12.845  20.092  0.00  0.00    +0.000 OA
ATOM     25  H   UNL     1      -5.587  13.783  19.829  0.00  0.00    +0.000 HD
ENDBRANCH  13  24
BRANCH  17  26
ATOM     26  C   UNL     1       1.072   9.892  19.994  0.00  0.00    +0.000 C 
BRANCH  26  27
ATOM     27  C   UNL     1       1.529   8.466  19.750  0.00  0.00    +0.000 A 
ATOM     28  C   UNL     1       1.324   7.481  20.726  0.00  0.00    +0.000 A 
ATOM     29  C   UNL     1       1.791   6.180  20.526  0.00  0.00    +0.000 A 
ATOM     30  C   UNL     1       2.456   5.855  19.345  0.00  0.00    +0.000 A 
ATOM     31 BR   UNL     1       3.117   4.102  19.097  0.00  0.00    +0.000 Br
ATOM     32  C   UNL     1       2.647   6.814  18.357  0.00  0.00    +0.000 A 
ATOM     33  C   UNL     1       2.183   8.116  18.556  0.00  0.00    +0.000 A 
ENDBRANCH  26  27
ENDBRANCH  17  26
TORSDOF 6
ENDMDL
MODEL 6
REMARK VINA RESULT:      -7.1      5.524      8.578
REMARK  Name = 
REMARK  8 active torsions:
REMARK  status: ('A' for Active; 'I' for Inactive)
REMARK    1  A    between atoms: C_1  and  O_2
REMARK    2  A    between atoms: O_2  and  C_3
REMARK    3  A    between atoms: C_8  and  O_9
REMARK    4  A    between atoms: C_15  and  O_16
REMARK    5  A    between atoms: O_16  and  C_17
REMARK    6  A    between atoms: C_18  and  O_19
REMARK    7  A    between atoms: N_23  and  C_24
REMARK    8  A    between atoms: C_24  and  C_25
REMARK                            x       y       z     vdW  Elec       q    Type
REMARK                         _______ _______ _______ _____ _____    ______ ____
ROOT
ATOM      1  C   UNL     1       2.734  16.117  18.670  0.00  0.00    +0.000 A 
ATOM      2  C   UNL     1       2.459  14.734  18.610  0.00  0.00    +0.000 A 
ATOM      3  C   UNL     1       1.724  14.040  19.596  0.00  0.00    +0.000 A 
ATOM      4  C   UNL     1       1.251  14.834  20.656  0.00  0.00    +0.000 A 
ATOM      5  C   UNL     1       1.525  16.216  20.734  0.00  0.00    +0.000 A 
ATOM      6  C   UNL     1       2.252  16.857  19.742  0.00  0.00    +0.000 A 
ATOM      7  C   UNL     1       0.271  14.299  21.658  0.00  0.00    +0.000 C 
ATOM      8  C   UNL     1       0.230  12.780  21.852  0.00  0.00    +0.000 C 
ATOM      9  C   UNL     1       0.676  11.980  20.629  0.00  0.00    +0.000 A 
ATOM     10  C   UNL     1       0.387  10.587  20.643  0.00  0.00    +0.000 A 
ATOM     11  C   UNL     1       0.808   9.755  19.601  0.00  0.00    +0.000 A 
ATOM     12  C   UNL     1       1.522  10.292  18.544  0.00  0.00    +0.000 A 
ATOM     13  C   UNL     1       1.809  11.675  18.532  0.00  0.00    +0.000 A 
ATOM     14  C   UNL     1       1.412  12.567  19.561  0.00  0.00    +0.000 A 
ATOM     15  C   UNL     1      -0.441   9.960  21.744  0.00  0.00    +0.000 C 
ATOM     16  C   UNL     1      -0.893  10.922  22.847  0.00  0.00    +0.000 C 
ATOM     17  N   UNL     1      -1.094  12.281  22.323  0.00  0.00    +0.000 NA
ENDROOT
BRANCH   1  19
ATOM     18  C   UNL     1       2.647  17.255  16.593  0.00  0.00    +0.000 C 
ATOM     19  O   UNL     1       3.424  16.602  17.588  0.00  0.00    +0.000 OA
ENDBRANCH   1  19
BRANCH   6  20
ATOM     20  O   UNL     1       2.425  18.208  19.827  0.00  0.00    +0.000 OA
ATOM     21  H   UNL     1       2.499  18.575  18.932  0.00  0.00    +0.000 HD
ENDBRANCH   6  20
BRANCH  12  22
ATOM     22  O   UNL     1       1.988   9.582  17.461  0.00  0.00    +0.000 OA
ATOM     23  C   UNL     1       2.526   8.290  17.728  0.00  0.00    +0.000 C 
ENDBRANCH  12  22
BRANCH  13  24
ATOM     24  O   UNL     1       2.524  12.106  17.435  0.00  0.00    +0.000 OA
ATOM     25  H   UNL     1       3.459  11.913  17.639  0.00  0.00    +0.000 HD
ENDBRANCH  13  24
BRANCH  17  26
ATOM     26  C   UNL     1      -1.805  13.140  23.279  0.00  0.00    +0.000 C 
BRANCH  26  27
ATOM     27  C   UNL     1      -3.224  13.456  22.847  0.00  0.00    +0.000 A 
ATOM     28  C   UNL     1      -3.970  14.429  23.527  0.00  0.00    +0.000 A 
ATOM     29  C   UNL     1      -5.294  14.685  23.165  0.00  0.00    +0.000 A 
ATOM     30  C   UNL     1      -5.876  13.977  22.115  0.00  0.00    +0.000 A 
ATOM     31 BR   UNL     1      -7.680  14.304  21.654  0.00  0.00    +0.000 Br
ATOM     32  C   UNL     1      -5.143  13.026  21.415  0.00  0.00    +0.000 A 
ATOM     33  C   UNL     1      -3.820  12.766  21.776  0.00  0.00    +0.000 A 
ENDBRANCH  26  27
ENDBRANCH  17  26
TORSDOF 6
ENDMDL
MODEL 7
REMARK VINA RESULT:      -7.1      0.978      1.452
REMARK  Name = 
REMARK  8 active torsions:
REMARK  status: ('A' for Active; 'I' for Inactive)
REMARK    1  A    between atoms: C_1  and  O_2
REMARK    2  A    between atoms: O_2  and  C_3
REMARK    3  A    between atoms: C_8  and  O_9
REMARK    4  A    between atoms: C_15  and  O_16
REMARK    5  A    between atoms: O_16  and  C_17
REMARK    6  A    between atoms: C_18  and  O_19
REMARK    7  A    between atoms: N_23  and  C_24
REMARK    8  A    between atoms: C_24  and  C_25
REMARK                            x       y       z     vdW  Elec       q    Type
REMARK                         _______ _______ _______ _____ _____    ______ ____
ROOT
ATOM      1  C   UNL     1       5.578   4.393  15.550  0.00  0.00    +0.000 A 
ATOM      2  C   UNL     1       4.712   4.176  16.642  0.00  0.00    +0.000 A 
ATOM      3  C   UNL     1       4.076   5.217  17.354  0.00  0.00    +0.000 A 
ATOM      4  C   UNL     1       4.348   6.513  16.882  0.00  0.00    +0.000 A 
ATOM      5  C   UNL     1       5.218   6.747  15.797  0.00  0.00    +0.000 A 
ATOM      6  C   UNL     1       5.821   5.693  15.127  0.00  0.00    +0.000 A 
ATOM      7  C   UNL     1       3.581   7.704  17.379  0.00  0.00    +0.000 C 
ATOM      8  C   UNL     1       2.927   7.586  18.759  0.00  0.00    +0.000 C 
ATOM      9  C   UNL     1       2.581   6.155  19.169  0.00  0.00    +0.000 A 
ATOM     10  C   UNL     1       1.720   6.008  20.292  0.00  0.00    +0.000 A 
ATOM     11  C   UNL     1       1.393   4.741  20.786  0.00  0.00    +0.000 A 
ATOM     12  C   UNL     1       1.919   3.614  20.178  0.00  0.00    +0.000 A 
ATOM     13  C   UNL     1       2.775   3.762  19.064  0.00  0.00    +0.000 A 
ATOM     14  C   UNL     1       3.145   5.019  18.521  0.00  0.00    +0.000 A 
ATOM     15  C   UNL     1       1.071   7.203  20.955  0.00  0.00    +0.000 C 
ATOM     16  C   UNL     1       1.448   8.563  20.360  0.00  0.00    +0.000 C 
ATOM     17  N   UNL     1       1.728   8.458  18.920  0.00  0.00    +0.000 NA
ENDROOT
BRANCH   1  19
ATOM     18  C   UNL     1       6.047   3.212  13.549  0.00  0.00    +0.000 C 
ATOM     19  O   UNL     1       6.055   3.244  14.971  0.00  0.00    +0.000 OA
ENDBRANCH   1  19
BRANCH   6  20
ATOM     20  O   UNL     1       6.595   5.968  14.037  0.00  0.00    +0.000 OA
ATOM     21  H   UNL     1       6.834   6.909  14.046  0.00  0.00    +0.000 HD
ENDBRANCH   6  20
BRANCH  12  22
ATOM     22  O   UNL     1       1.673   2.317  20.566  0.00  0.00    +0.000 OA
ATOM     23  C   UNL     1       1.640   2.065  21.968  0.00  0.00    +0.000 C 
ENDBRANCH  12  22
BRANCH  13  24
ATOM     24  O   UNL     1       3.243   2.578  18.535  0.00  0.00    +0.000 OA
ATOM     25  H   UNL     1       4.217   2.648  18.559  0.00  0.00    +0.000 HD
ENDBRANCH  13  24
BRANCH  17  26
ATOM     26  C   UNL     1       1.796   9.776  18.276  0.00  0.00    +0.000 C 
BRANCH  26  27
ATOM     27  C   UNL     1       0.828  10.778  18.875  0.00  0.00    +0.000 A 
ATOM     28  C   UNL     1      -0.550  10.653  18.649  0.00  0.00    +0.000 A 
ATOM     29  C   UNL     1      -1.438  11.604  19.156  0.00  0.00    +0.000 A 
ATOM     30  C   UNL     1      -0.954  12.679  19.900  0.00  0.00    +0.000 A 
ATOM     31 BR   UNL     1      -2.159  13.981  20.552  0.00  0.00    +0.000 Br
ATOM     32  C   UNL     1       0.407  12.806  20.153  0.00  0.00    +0.000 A 
ATOM     33  C   UNL     1       1.298  11.857  19.645  0.00  0.00    +0.000 A 
ENDBRANCH  26  27
ENDBRANCH  17  26
TORSDOF 6
ENDMDL
MODEL 8
REMARK VINA RESULT:      -7.0      6.054     10.690
REMARK  Name = 
REMARK  8 active torsions:
REMARK  status: ('A' for Active; 'I' for Inactive)
REMARK    1  A    between atoms: C_1  and  O_2
REMARK    2  A    between atoms: O_2  and  C_3
REMARK    3  A    between atoms: C_8  and  O_9
REMARK    4  A    between atoms: C_15  and  O_16
REMARK    5  A    between atoms: O_16  and  C_17
REMARK    6  A    between atoms: C_18  and  O_19
REMARK    7  A    between atoms: N_23  and  C_24
REMARK    8  A    between atoms: C_24  and  C_25
REMARK                            x       y       z     vdW  Elec       q    Type
REMARK                         _______ _______ _______ _____ _____    ______ ____
ROOT
ATOM      1  C   UNL     1      -3.246  14.697  23.722  0.00  0.00    +0.000 A 
ATOM      2  C   UNL     1      -3.663  14.068  22.529  0.00  0.00    +0.000 A 
ATOM      3  C   UNL     1      -2.811  13.286  21.718  0.00  0.00    +0.000 A 
ATOM      4  C   UNL     1      -1.495  13.150  22.195  0.00  0.00    +0.000 A 
ATOM      5  C   UNL     1      -1.061  13.780  23.381  0.00  0.00    +0.000 A 
ATOM      6  C   UNL     1      -1.933  14.539  24.146  0.00  0.00    +0.000 A 
ATOM      7  C   UNL     1      -0.535  12.176  21.578  0.00  0.00    +0.000 C 
ATOM      8  C   UNL     1      -0.798  11.763  20.126  0.00  0.00    +0.000 C 
ATOM      9  C   UNL     1      -2.264  11.854  19.704  0.00  0.00    +0.000 A 
ATOM     10  C   UNL     1      -2.611  11.217  18.480  0.00  0.00    +0.000 A 
ATOM     11  C   UNL     1      -3.912  11.295  17.973  0.00  0.00    +0.000 A 
ATOM     12  C   UNL     1      -4.874  12.008  18.668  0.00  0.00    +0.000 A 
ATOM     13  C   UNL     1      -4.527  12.641  19.882  0.00  0.00    +0.000 A 
ATOM     14  C   UNL     1      -3.225  12.601  20.444  0.00  0.00    +0.000 A 
ATOM     15  C   UNL     1      -1.614  10.376  17.713  0.00  0.00    +0.000 C 
ATOM     16  C   UNL     1      -0.212  10.308  18.325  0.00  0.00    +0.000 C 
ATOM     17  N   UNL     1      -0.262  10.413  19.791  0.00  0.00    +0.000 NA
ENDROOT
BRANCH   1  19
ATOM     18  C   UNL     1      -4.228  16.787  24.252  0.00  0.00    +0.000 C 
ATOM     19  O   UNL     1      -4.242  15.371  24.382  0.00  0.00    +0.000 OA
ENDBRANCH   1  19
BRANCH   6  20
ATOM     20  O   UNL     1      -1.483  15.065  25.322  0.00  0.00    +0.000 OA
ATOM     21  H   UNL     1      -2.172  14.963  25.999  0.00  0.00    +0.000 HD
ENDBRANCH   6  20
BRANCH  12  22
ATOM     22  O   UNL     1      -6.186  12.157  18.278  0.00  0.00    +0.000 OA
ATOM     23  C   UNL     1      -7.029  11.018  18.421  0.00  0.00    +0.000 C 
ENDBRANCH  12  22
BRANCH  13  24
ATOM     24  O   UNL     1      -5.558  13.324  20.493  0.00  0.00    +0.000 OA
ATOM     25  H   UNL     1      -6.343  13.167  19.934  0.00  0.00    +0.000 HD
ENDBRANCH  13  24
BRANCH  17  26
ATOM     26  C   UNL     1       1.020  10.054  20.412  0.00  0.00    +0.000 C 
BRANCH  26  27
ATOM     27  C   UNL     1       1.507   8.675  20.007  0.00  0.00    +0.000 A 
ATOM     28  C   UNL     1       2.102   8.475  18.754  0.00  0.00    +0.000 A 
ATOM     29  C   UNL     1       2.504   7.197  18.358  0.00  0.00    +0.000 A 
ATOM     30  C   UNL     1       2.321   6.115  19.218  0.00  0.00    +0.000 A 
ATOM     31 BR   UNL     1       2.834   4.383  18.661  0.00  0.00    +0.000 Br
ATOM     32  C   UNL     1       1.754   6.300  20.473  0.00  0.00    +0.000 A 
ATOM     33  C   UNL     1       1.350   7.576  20.870  0.00  0.00    +0.000 A 
ENDBRANCH  26  27
ENDBRANCH  17  26
TORSDOF 6
ENDMDL
MODEL 9
REMARK VINA RESULT:      -7.0      5.225      8.799
REMARK  Name = 
REMARK  8 active torsions:
REMARK  status: ('A' for Active; 'I' for Inactive)
REMARK    1  A    between atoms: C_1  and  O_2
REMARK    2  A    between atoms: O_2  and  C_3
REMARK    3  A    between atoms: C_8  and  O_9
REMARK    4  A    between atoms: C_15  and  O_16
REMARK    5  A    between atoms: O_16  and  C_17
REMARK    6  A    between atoms: C_18  and  O_19
REMARK    7  A    between atoms: N_23  and  C_24
REMARK    8  A    between atoms: C_24  and  C_25
REMARK                            x       y       z     vdW  Elec       q    Type
REMARK                         _______ _______ _______ _____ _____    ______ ____
ROOT
ATOM      1  C   UNL     1      -4.205  11.505  16.819  0.00  0.00    +0.000 A 
ATOM      2  C   UNL     1      -3.557  11.598  18.070  0.00  0.00    +0.000 A 
ATOM      3  C   UNL     1      -2.395  10.870  18.405  0.00  0.00    +0.000 A 
ATOM      4  C   UNL     1      -1.896  10.043  17.382  0.00  0.00    +0.000 A 
ATOM      5  C   UNL     1      -2.536   9.933  16.130  0.00  0.00    +0.000 A 
ATOM      6  C   UNL     1      -3.677  10.667  15.845  0.00  0.00    +0.000 A 
ATOM      7  C   UNL     1      -0.554   9.382  17.495  0.00  0.00    +0.000 C 
ATOM      8  C   UNL     1      -0.004   9.156  18.907  0.00  0.00    +0.000 C 
ATOM      9  C   UNL     1      -0.524  10.145  19.949  0.00  0.00    +0.000 A 
ATOM     10  C   UNL     1       0.161  10.172  21.195  0.00  0.00    +0.000 A 
ATOM     11  C   UNL     1      -0.275  10.997  22.237  0.00  0.00    +0.000 A 
ATOM     12  C   UNL     1      -1.392  11.795  22.056  0.00  0.00    +0.000 A 
ATOM     13  C   UNL     1      -2.072  11.766  20.818  0.00  0.00    +0.000 A 
ATOM     14  C   UNL     1      -1.680  10.948  19.727  0.00  0.00    +0.000 A 
ATOM     15  C   UNL     1       1.420   9.366  21.425  0.00  0.00    +0.000 C 
ATOM     16  C   UNL     1       1.863   8.498  20.244  0.00  0.00    +0.000 C 
ATOM     17  N   UNL     1       1.485   9.108  18.960  0.00  0.00    +0.000 NA
ENDROOT
BRANCH   1  19
ATOM     18  C   UNL     1      -6.201  12.351  17.778  0.00  0.00    +0.000 C 
ATOM     19  O   UNL     1      -5.292  12.331  16.684  0.00  0.00    +0.000 OA
ENDBRANCH   1  19
BRANCH   6  20
ATOM     20  O   UNL     1      -4.215  10.582  14.594  0.00  0.00    +0.000 OA
ATOM     21  H   UNL     1      -4.863   9.859  14.576  0.00  0.00    +0.000 HD
ENDBRANCH   6  20
BRANCH  12  22
ATOM     22  O   UNL     1      -1.917  12.648  22.999  0.00  0.00    +0.000 OA
ATOM     23  C   UNL     1      -1.167  13.825  23.283  0.00  0.00    +0.000 C 
ENDBRANCH  12  22
BRANCH  13  24
ATOM     24  O   UNL     1      -3.169  12.596  20.743  0.00  0.00    +0.000 OA
ATOM     25  H   UNL     1      -2.822  13.464  20.459  0.00  0.00    +0.000 HD
ENDBRANCH  13  24
BRANCH  17  26
ATOM     26  C   UNL     1       2.152   8.457  17.825  0.00  0.00    +0.000 C 
BRANCH  26  27
ATOM     27  C   UNL     1       2.633   7.054  18.146  0.00  0.00    +0.000 A 
ATOM     28  C   UNL     1       1.719   5.994  18.223  0.00  0.00    +0.000 A 
ATOM     29  C   UNL     1       2.152   4.712  18.571  0.00  0.00    +0.000 A 
ATOM     30  C   UNL     1       3.502   4.483  18.833  0.00  0.00    +0.000 A 
ATOM     31 BR   UNL     1       4.074   2.754  19.338  0.00  0.00    +0.000 Br
ATOM     32  C   UNL     1       4.424   5.518  18.739  0.00  0.00    +0.000 A 
ATOM     33  C   UNL     1       3.993   6.801  18.394  0.00  0.00    +0.000 A 
ENDBRANCH  26  27
ENDBRANCH  17  26
TORSDOF 6
ENDMDL
