MODEL 1
REMARK VINA RESULT:      -7.4      0.000      0.000
REMARK  Name = 
REMARK  4 active torsions:
REMARK  status: ('A' for Active; 'I' for Inactive)
REMARK    1  A    between atoms: C_1  and  S_2
REMARK    2  A    between atoms: S_2  and  C_4
REMARK    3  A    between atoms: CA_8  and  C_9
REMARK    4  A    between atoms: C_9  and  OXT_11
REMARK                            x       y       z     vdW  Elec       q    Type
REMARK                         _______ _______ _______ _____ _____    ______ ____
ROOT
ATOM      1  C   UNL     1       6.438   4.919  18.325  0.00  0.00    +0.000 A 
ATOM      2  C   UNL     1       5.462   4.655  19.214  0.00  0.00    +0.000 A 
ATOM      3  C   UNL     1       4.208   4.149  18.795  0.00  0.00    +0.000 A 
ATOM      4  N   UNL     1       3.144   3.833  19.507  0.00  0.00    +0.000 NA
ATOM      5  CA  UNL     1       2.222   3.348  18.594  0.00  0.00    +0.000 A 
ATOM      6  C   UNL     1       2.739   3.389  17.317  0.00  0.00    +0.000 A 
ATOM      7  N   UNL     1       4.005   3.903  17.445  0.00  0.00    +0.000 N 
ATOM      8  C   UNL     1       4.973   4.159  16.446  0.00  0.00    +0.000 A 
ATOM      9  C   UNL     1       4.715   3.890  15.096  0.00  0.00    +0.000 A 
ATOM     10  C   UNL     1       5.701   4.151  14.147  0.00  0.00    +0.000 A 
ATOM     11  C   UNL     1       6.925   4.682  14.542  0.00  0.00    +0.000 A 
ATOM     12  C   UNL     1       7.180   4.950  15.893  0.00  0.00    +0.000 A 
ATOM     13  C   UNL     1       6.211   4.690  16.874  0.00  0.00    +0.000 A 
ENDROOT
BRANCH   1  15
ATOM     14  C   UNL     1       7.903   7.202  18.406  0.00  0.00    +0.000 C 
ATOM     15  S   UNL     1       8.027   5.479  18.945  0.00  0.00    +0.000 S 
ATOM     16  O   UNL     1       7.936   5.487  20.514  0.00  0.00    +0.000 OA
ENDBRANCH   1  15
BRANCH   5  17
ATOM     17  C   UNL     1       0.911   2.871  19.012  0.00  0.00    +0.000 C 
ATOM     18  O   UNL     1       0.226   2.076  18.385  0.00  0.00    +0.000 OA
BRANCH  17  19
ATOM     19  OXT UNL     1       0.528   3.415  20.197  0.00  0.00    +0.000 OA
ATOM     20  HXT UNL     1       0.955   4.301  20.261  0.00  0.00    +0.000 HD
ENDBRANCH  17  19
ENDBRANCH   5  17
TORSDOF 3
ENDMDL
MODEL 2
REMARK VINA RESULT:      -7.4      3.507      5.719
REMARK  Name = 
REMARK  4 active torsions:
REMARK  status: ('A' for Active; 'I' for Inactive)
REMARK    1  A    between atoms: C_1  and  S_2
REMARK    2  A    between atoms: S_2  and  C_4
REMARK    3  A    between atoms: CA_8  and  C_9
REMARK    4  A    between atoms: C_9  and  OXT_11
REMARK                            x       y       z     vdW  Elec       q    Type
REMARK                         _______ _______ _______ _____ _____    ______ ____
ROOT
ATOM      1  C   UNL     1       3.394   4.244  19.139  0.00  0.00    +0.000 A 
ATOM      2  C   UNL     1       4.215   3.577  18.307  0.00  0.00    +0.000 A 
ATOM      3  C   UNL     1       4.786   4.212  17.178  0.00  0.00    +0.000 A 
ATOM      4  N   UNL     1       5.602   3.730  16.260  0.00  0.00    +0.000 NA
ATOM      5  CA  UNL     1       5.877   4.796  15.418  0.00  0.00    +0.000 A 
ATOM      6  C   UNL     1       5.203   5.925  15.832  0.00  0.00    +0.000 A 
ATOM      7  N   UNL     1       4.505   5.552  16.952  0.00  0.00    +0.000 N 
ATOM      8  C   UNL     1       3.648   6.322  17.772  0.00  0.00    +0.000 A 
ATOM      9  C   UNL     1       3.400   7.673  17.499  0.00  0.00    +0.000 A 
ATOM     10  C   UNL     1       2.554   8.396  18.337  0.00  0.00    +0.000 A 
ATOM     11  C   UNL     1       1.959   7.774  19.431  0.00  0.00    +0.000 A 
ATOM     12  C   UNL     1       2.209   6.423  19.701  0.00  0.00    +0.000 A 
ATOM     13  C   UNL     1       3.062   5.670  18.880  0.00  0.00    +0.000 A 
ENDROOT
BRANCH   1  15
ATOM     14  C   UNL     1       1.331   2.621  19.827  0.00  0.00    +0.000 C 
ATOM     15  S   UNL     1       2.779   3.391  20.594  0.00  0.00    +0.000 S 
ATOM     16  O   UNL     1       3.791   2.233  20.915  0.00  0.00    +0.000 OA
ENDBRANCH   1  15
BRANCH   5  17
ATOM     17  C   UNL     1       6.775   4.657  14.279  0.00  0.00    +0.000 C 
ATOM     18  O   UNL     1       7.693   5.420  14.019  0.00  0.00    +0.000 OA
BRANCH  17  19
ATOM     19  OXT UNL     1       6.473   3.567  13.526  0.00  0.00    +0.000 OA
ATOM     20  HXT UNL     1       6.952   2.801  13.919  0.00  0.00    +0.000 HD
ENDBRANCH  17  19
ENDBRANCH   5  17
TORSDOF 3
ENDMDL
MODEL 3
REMARK VINA RESULT:      -7.0      3.753      4.888
REMARK  Name = 
REMARK  4 active torsions:
REMARK  status: ('A' for Active; 'I' for Inactive)
REMARK    1  A    between atoms: C_1  and  S_2
REMARK    2  A    between atoms: S_2  and  C_4
REMARK    3  A    between atoms: CA_8  and  C_9
REMARK    4  A    between atoms: C_9  and  OXT_11
REMARK                            x       y       z     vdW  Elec       q    Type
REMARK                         _______ _______ _______ _____ _____    ______ ____
ROOT
ATOM      1  C   UNL     1       5.023   5.138  16.687  0.00  0.00    +0.000 A 
ATOM      2  C   UNL     1       4.891   6.478  16.681  0.00  0.00    +0.000 A 
ATOM      3  C   UNL     1       3.759   7.104  17.257  0.00  0.00    +0.000 A 
ATOM      4  N   UNL     1       3.457   8.384  17.347  0.00  0.00    +0.000 NA
ATOM      5  CA  UNL     1       2.260   8.430  18.044  0.00  0.00    +0.000 A 
ATOM      6  C   UNL     1       1.837   7.157  18.360  0.00  0.00    +0.000 A 
ATOM      7  N   UNL     1       2.791   6.311  17.856  0.00  0.00    +0.000 N 
ATOM      8  C   UNL     1       2.849   4.898  17.899  0.00  0.00    +0.000 A 
ATOM      9  C   UNL     1       1.843   4.147  18.519  0.00  0.00    +0.000 A 
ATOM     10  C   UNL     1       1.946   2.758  18.543  0.00  0.00    +0.000 A 
ATOM     11  C   UNL     1       3.036   2.129  17.950  0.00  0.00    +0.000 A 
ATOM     12  C   UNL     1       4.039   2.883  17.331  0.00  0.00    +0.000 A 
ATOM     13  C   UNL     1       3.970   4.284  17.296  0.00  0.00    +0.000 A 
ENDROOT
BRANCH   1  15
ATOM     14  C   UNL     1       5.908   4.093  14.343  0.00  0.00    +0.000 C 
ATOM     15  S   UNL     1       6.527   4.428  16.011  0.00  0.00    +0.000 S 
ATOM     16  O   UNL     1       7.573   5.593  15.880  0.00  0.00    +0.000 OA
ENDBRANCH   1  15
BRANCH   5  17
ATOM     17  C   UNL     1       1.611   9.694  18.364  0.00  0.00    +0.000 C 
ATOM     18  O   UNL     1       0.859   9.871  19.311  0.00  0.00    +0.000 OA
BRANCH  17  19
ATOM     19  OXT UNL     1       1.941  10.671  17.479  0.00  0.00    +0.000 OA
ATOM     20  HXT UNL     1       1.099  11.088  17.179  0.00  0.00    +0.000 HD
ENDBRANCH  17  19
ENDBRANCH   5  17
TORSDOF 3
ENDMDL
MODEL 4
REMARK VINA RESULT:      -6.9      3.832      4.705
REMARK  Name = 
REMARK  4 active torsions:
REMARK  status: ('A' for Active; 'I' for Inactive)
REMARK    1  A    between atoms: C_1  and  S_2
REMARK    2  A    between atoms: S_2  and  C_4
REMARK    3  A    between atoms: CA_8  and  C_9
REMARK    4  A    between atoms: C_9  and  OXT_11
REMARK                            x       y       z     vdW  Elec       q    Type
REMARK                         _______ _______ _______ _____ _____    ______ ____
ROOT
ATOM      1  C   UNL     1       3.686   4.341  19.186  0.00  0.00    +0.000 A 
ATOM      2  C   UNL     1       2.845   5.184  19.815  0.00  0.00    +0.000 A 
ATOM      3  C   UNL     1       2.610   6.488  19.318  0.00  0.00    +0.000 A 
ATOM      4  N   UNL     1       1.832   7.444  19.788  0.00  0.00    +0.000 NA
ATOM      5  CA  UNL     1       1.949   8.489  18.886  0.00  0.00    +0.000 A 
ATOM      6  C   UNL     1       2.820   8.156  17.872  0.00  0.00    +0.000 A 
ATOM      7  N   UNL     1       3.245   6.882  18.148  0.00  0.00    +0.000 N 
ATOM      8  C   UNL     1       4.147   6.061  17.431  0.00  0.00    +0.000 A 
ATOM      9  C   UNL     1       4.758   6.509  16.254  0.00  0.00    +0.000 A 
ATOM     10  C   UNL     1       5.635   5.665  15.577  0.00  0.00    +0.000 A 
ATOM     11  C   UNL     1       5.902   4.392  16.074  0.00  0.00    +0.000 A 
ATOM     12  C   UNL     1       5.289   3.948  17.252  0.00  0.00    +0.000 A 
ATOM     13  C   UNL     1       4.395   4.772  17.953  0.00  0.00    +0.000 A 
ENDROOT
BRANCH   1  15
ATOM     14  C   UNL     1       2.705   2.829  21.216  0.00  0.00    +0.000 C 
ATOM     15  S   UNL     1       3.865   2.676  19.834  0.00  0.00    +0.000 S 
ATOM     16  O   UNL     1       3.205   1.700  18.795  0.00  0.00    +0.000 OA
ENDBRANCH   1  15
BRANCH   5  17
ATOM     17  C   UNL     1       1.209   9.732  19.057  0.00  0.00    +0.000 C 
ATOM     18  O   UNL     1       0.939  10.239  20.136  0.00  0.00    +0.000 OA
BRANCH  17  19
ATOM     19  OXT UNL     1       0.847  10.275  17.865  0.00  0.00    +0.000 OA
ATOM     20  HXT UNL     1       1.674  10.569  17.417  0.00  0.00    +0.000 HD
ENDBRANCH  17  19
ENDBRANCH   5  17
TORSDOF 3
ENDMDL
MODEL 5
REMARK VINA RESULT:      -6.8      3.906      5.115
REMARK  Name = 
REMARK  4 active torsions:
REMARK  status: ('A' for Active; 'I' for Inactive)
REMARK    1  A    between atoms: C_1  and  S_2
REMARK    2  A    between atoms: S_2  and  C_4
REMARK    3  A    between atoms: CA_8  and  C_9
REMARK    4  A    between atoms: C_9  and  OXT_11
REMARK                            x       y       z     vdW  Elec       q    Type
REMARK                         _______ _______ _______ _____ _____    ______ ____
ROOT
ATOM      1  C   UNL     1       5.017   5.467  17.277  0.00  0.00    +0.000 A 
ATOM      2  C   UNL     1       4.630   6.709  16.929  0.00  0.00    +0.000 A 
ATOM      3  C   UNL     1       3.557   7.353  17.592  0.00  0.00    +0.000 A 
ATOM      4  N   UNL     1       3.040   8.551  17.396  0.00  0.00    +0.000 NA
ATOM      5  CA  UNL     1       2.044   8.681  18.351  0.00  0.00    +0.000 A 
ATOM      6  C   UNL     1       1.958   7.538  19.117  0.00  0.00    +0.000 A 
ATOM      7  N   UNL     1       2.920   6.690  18.631  0.00  0.00    +0.000 N 
ATOM      8  C   UNL     1       3.259   5.383  19.053  0.00  0.00    +0.000 A 
ATOM      9  C   UNL     1       2.583   4.762  20.110  0.00  0.00    +0.000 A 
ATOM     10  C   UNL     1       2.956   3.476  20.497  0.00  0.00    +0.000 A 
ATOM     11  C   UNL     1       3.985   2.819  19.830  0.00  0.00    +0.000 A 
ATOM     12  C   UNL     1       4.659   3.443  18.774  0.00  0.00    +0.000 A 
ATOM     13  C   UNL     1       4.313   4.740  18.365  0.00  0.00    +0.000 A 
ENDROOT
BRANCH   1  15
ATOM     14  C   UNL     1       5.615   4.312  14.895  0.00  0.00    +0.000 C 
ATOM     15  S   UNL     1       6.439   4.755  16.444  0.00  0.00    +0.000 S 
ATOM     16  O   UNL     1       7.422   5.934  16.113  0.00  0.00    +0.000 OA
ENDBRANCH   1  15
BRANCH   5  17
ATOM     17  C   UNL     1       1.252   9.897  18.467  0.00  0.00    +0.000 C 
ATOM     18  O   UNL     1       0.215   9.995  19.107  0.00  0.00    +0.000 OA
BRANCH  17  19
ATOM     19  OXT UNL     1       1.801  10.928  17.773  0.00  0.00    +0.000 OA
ATOM     20  HXT UNL     1       1.820  10.662  16.824  0.00  0.00    +0.000 HD
ENDBRANCH  17  19
ENDBRANCH   5  17
TORSDOF 3
ENDMDL
MODEL 6
REMARK VINA RESULT:      -6.7      4.102      5.456
REMARK  Name = 
REMARK  4 active torsions:
REMARK  status: ('A' for Active; 'I' for Inactive)
REMARK    1  A    between atoms: C_1  and  S_2
REMARK    2  A    between atoms: S_2  and  C_4
REMARK    3  A    between atoms: CA_8  and  C_9
REMARK    4  A    between atoms: C_9  and  OXT_11
REMARK                            x       y       z     vdW  Elec       q    Type
REMARK                         _______ _______ _______ _____ _____    ______ ____
ROOT
ATOM      1  C   UNL     1       4.472   5.291  17.873  0.00  0.00    +0.000 A 
ATOM      2  C   UNL     1       4.278   6.519  17.356  0.00  0.00    +0.000 A 
ATOM      3  C   UNL     1       3.282   7.381  17.876  0.00  0.00    +0.000 A 
ATOM      4  N   UNL     1       2.948   8.603  17.508  0.00  0.00    +0.000 NA
ATOM      5  CA  UNL     1       1.944   8.987  18.383  0.00  0.00    +0.000 A 
ATOM      6  C   UNL     1       1.668   7.974  19.275  0.00  0.00    +0.000 A 
ATOM      7  N   UNL     1       2.518   6.948  18.950  0.00  0.00    +0.000 N 
ATOM      8  C   UNL     1       2.653   5.672  19.545  0.00  0.00    +0.000 A 
ATOM      9  C   UNL     1       1.856   5.288  20.630  0.00  0.00    +0.000 A 
ATOM     10  C   UNL     1       2.027   4.024  21.189  0.00  0.00    +0.000 A 
ATOM     11  C   UNL     1       2.979   3.153  20.666  0.00  0.00    +0.000 A 
ATOM     12  C   UNL     1       3.774   3.541  19.581  0.00  0.00    +0.000 A 
ATOM     13  C   UNL     1       3.631   4.810  19.000  0.00  0.00    +0.000 A 
ENDROOT
BRANCH   1  15
ATOM     14  C   UNL     1       6.214   5.337  15.791  0.00  0.00    +0.000 C 
ATOM     15  S   UNL     1       5.811   4.292  17.214  0.00  0.00    +0.000 S 
ATOM     16  O   UNL     1       7.014   4.408  18.217  0.00  0.00    +0.000 OA
ENDBRANCH   1  15
BRANCH   5  17
ATOM     17  C   UNL     1       1.327  10.304  18.305  0.00  0.00    +0.000 C 
ATOM     18  O   UNL     1       0.191  10.563  18.673  0.00  0.00    +0.000 OA
BRANCH  17  19
ATOM     19  OXT UNL     1       2.169  11.227  17.771  0.00  0.00    +0.000 OA
ATOM     20  HXT UNL     1       2.861  11.414  18.446  0.00  0.00    +0.000 HD
ENDBRANCH  17  19
ENDBRANCH   5  17
TORSDOF 3
ENDMDL
MODEL 7
REMARK VINA RESULT:      -6.7      3.377      5.899
REMARK  Name = 
REMARK  4 active torsions:
REMARK  status: ('A' for Active; 'I' for Inactive)
REMARK    1  A    between atoms: C_1  and  S_2
REMARK    2  A    between atoms: S_2  and  C_4
REMARK    3  A    between atoms: CA_8  and  C_9
REMARK    4  A    between atoms: C_9  and  OXT_11
REMARK                            x       y       z     vdW  Elec       q    Type
REMARK                         _______ _______ _______ _____ _____    ______ ____
ROOT
ATOM      1  C   UNL     1       2.950   3.482  18.534  0.00  0.00    +0.000 A 
ATOM      2  C   UNL     1       3.789   2.949  17.625  0.00  0.00    +0.000 A 
ATOM      3  C   UNL     1       4.542   3.772  16.754  0.00  0.00    +0.000 A 
ATOM      4  N   UNL     1       5.403   3.440  15.811  0.00  0.00    +0.000 NA
ATOM      5  CA  UNL     1       5.875   4.641  15.305  0.00  0.00    +0.000 A 
ATOM      6  C   UNL     1       5.275   5.703  15.946  0.00  0.00    +0.000 A 
ATOM      7  N   UNL     1       4.422   5.150  16.867  0.00  0.00    +0.000 N 
ATOM      8  C   UNL     1       3.560   5.789  17.788  0.00  0.00    +0.000 A 
ATOM      9  C   UNL     1       3.481   7.186  17.861  0.00  0.00    +0.000 A 
ATOM     10  C   UNL     1       2.623   7.773  18.789  0.00  0.00    +0.000 A 
ATOM     11  C   UNL     1       1.851   6.974  19.627  0.00  0.00    +0.000 A 
ATOM     12  C   UNL     1       1.933   5.579  19.552  0.00  0.00    +0.000 A 
ATOM     13  C   UNL     1       2.793   4.957  18.633  0.00  0.00    +0.000 A 
ENDROOT
BRANCH   1  15
ATOM     14  C   UNL     1       2.972   2.838  21.170  0.00  0.00    +0.000 C 
ATOM     15  S   UNL     1       2.095   2.372  19.657  0.00  0.00    +0.000 S 
ATOM     16  O   UNL     1       0.624   2.904  19.804  0.00  0.00    +0.000 OA
ENDBRANCH   1  15
BRANCH   5  17
ATOM     17  C   UNL     1       6.875   4.683  14.247  0.00  0.00    +0.000 C 
ATOM     18  O   UNL     1       7.782   5.499  14.178  0.00  0.00    +0.000 OA
BRANCH  17  19
ATOM     19  OXT UNL     1       6.685   3.697  13.331  0.00  0.00    +0.000 OA
ATOM     20  HXT UNL     1       5.804   3.296  13.514  0.00  0.00    +0.000 HD
ENDBRANCH  17  19
ENDBRANCH   5  17
TORSDOF 3
ENDMDL
MODEL 8
REMARK VINA RESULT:      -6.7      3.429      5.984
REMARK  Name = 
REMARK  4 active torsions:
REMARK  status: ('A' for Active; 'I' for Inactive)
REMARK    1  A    between atoms: C_1  and  S_2
REMARK    2  A    between atoms: S_2  and  C_4
REMARK    3  A    between atoms: CA_8  and  C_9
REMARK    4  A    between atoms: C_9  and  OXT_11
REMARK                            x       y       z     vdW  Elec       q    Type
REMARK                         _______ _______ _______ _____ _____    ______ ____
ROOT
ATOM      1  C   UNL     1       2.381   6.771  19.237  0.00  0.00    +0.000 A 
ATOM      2  C   UNL     1       3.418   7.143  18.463  0.00  0.00    +0.000 A 
ATOM      3  C   UNL     1       4.388   6.202  18.039  0.00  0.00    +0.000 A 
ATOM      4  N   UNL     1       5.459   6.374  17.289  0.00  0.00    +0.000 NA
ATOM      5  CA  UNL     1       6.019   5.113  17.156  0.00  0.00    +0.000 A 
ATOM      6  C   UNL     1       5.278   4.180  17.849  0.00  0.00    +0.000 A 
ATOM      7  N   UNL     1       4.240   4.875  18.415  0.00  0.00    +0.000 N 
ATOM      8  C   UNL     1       3.185   4.404  19.232  0.00  0.00    +0.000 A 
ATOM      9  C   UNL     1       3.083   3.051  19.579  0.00  0.00    +0.000 A 
ATOM     10  C   UNL     1       2.024   2.630  20.380  0.00  0.00    +0.000 A 
ATOM     11  C   UNL     1       1.083   3.550  20.833  0.00  0.00    +0.000 A 
ATOM     12  C   UNL     1       1.188   4.902  20.483  0.00  0.00    +0.000 A 
ATOM     13  C   UNL     1       2.239   5.357  19.672  0.00  0.00    +0.000 A 
ENDROOT
BRANCH   1  15
ATOM     14  C   UNL     1       1.646   8.260  21.384  0.00  0.00    +0.000 C 
ATOM     15  S   UNL     1       1.150   8.007  19.662  0.00  0.00    +0.000 S 
ATOM     16  O   UNL     1       1.523   9.320  18.885  0.00  0.00    +0.000 OA
ENDBRANCH   1  15
BRANCH   5  17
ATOM     17  C   UNL     1       7.222   4.892  16.365  0.00  0.00    +0.000 C 
ATOM     18  O   UNL     1       7.414   5.347  15.248  0.00  0.00    +0.000 OA
BRANCH  17  19
ATOM     19  OXT UNL     1       8.121   4.111  17.019  0.00  0.00    +0.000 OA
ATOM     20  HXT UNL     1       8.680   3.675  16.333  0.00  0.00    +0.000 HD
ENDBRANCH  17  19
ENDBRANCH   5  17
TORSDOF 3
ENDMDL
MODEL 9
REMARK VINA RESULT:      -6.6      4.044      5.476
REMARK  Name = 
REMARK  4 active torsions:
REMARK  status: ('A' for Active; 'I' for Inactive)
REMARK    1  A    between atoms: C_1  and  S_2
REMARK    2  A    between atoms: S_2  and  C_4
REMARK    3  A    between atoms: CA_8  and  C_9
REMARK    4  A    between atoms: C_9  and  OXT_11
REMARK                            x       y       z     vdW  Elec       q    Type
REMARK                         _______ _______ _______ _____ _____    ______ ____
ROOT
ATOM      1  C   UNL     1       3.780   5.415  17.970  0.00  0.00    +0.000 A 
ATOM      2  C   UNL     1       3.405   6.706  17.893  0.00  0.00    +0.000 A 
ATOM      3  C   UNL     1       2.578   7.287  18.885  0.00  0.00    +0.000 A 
ATOM      4  N   UNL     1       2.112   8.517  18.981  0.00  0.00    +0.000 NA
ATOM      5  CA  UNL     1       1.398   8.547  20.168  0.00  0.00    +0.000 A 
ATOM      6  C   UNL     1       1.427   7.313  20.779  0.00  0.00    +0.000 A 
ATOM      7  N   UNL     1       2.176   6.508  19.960  0.00  0.00    +0.000 N 
ATOM      8  C   UNL     1       2.520   5.144  20.112  0.00  0.00    +0.000 A 
ATOM      9  C   UNL     1       2.088   4.405  21.220  0.00  0.00    +0.000 A 
ATOM     10  C   UNL     1       2.456   3.066  21.333  0.00  0.00    +0.000 A 
ATOM     11  C   UNL     1       3.239   2.473  20.347  0.00  0.00    +0.000 A 
ATOM     12  C   UNL     1       3.669   3.215  19.240  0.00  0.00    +0.000 A 
ATOM     13  C   UNL     1       3.322   4.568  19.102  0.00  0.00    +0.000 A 
ENDROOT
BRANCH   1  15
ATOM     14  C   UNL     1       5.152   6.324  15.811  0.00  0.00    +0.000 C 
ATOM     15  S   UNL     1       4.897   4.778  16.717  0.00  0.00    +0.000 S 
ATOM     16  O   UNL     1       6.255   4.443  17.433  0.00  0.00    +0.000 OA
ENDBRANCH   1  15
BRANCH   5  17
ATOM     17  C   UNL     1       0.744   9.762  20.635  0.00  0.00    +0.000 C 
ATOM     18  O   UNL     1       1.041  10.364  21.656  0.00  0.00    +0.000 OA
BRANCH  17  19
ATOM     19  OXT UNL     1      -0.248  10.158  19.796  0.00  0.00    +0.000 OA
ATOM     20  HXT UNL     1       0.078  10.022  18.876  0.00  0.00    +0.000 HD
ENDBRANCH  17  19
ENDBRANCH   5  17
TORSDOF 3
ENDMDL
