MODEL 1
REMARK VINA RESULT:      -6.5      0.000      0.000
REMARK  Name = 
REMARK  9 active torsions:
REMARK  status: ('A' for Active; 'I' for Inactive)
REMARK    1  A    between atoms: C_1  and  C_2
REMARK    2  A    between atoms: C_2  and  C_3
REMARK    3  A    between atoms: C_3  and  N_4
REMARK    4  A    between atoms: N_4  and  C_5
REMARK    5  A    between atoms: C_5  and  C_6
REMARK    6  A    between atoms: C_6  and  C_7
REMARK    7  A    between atoms: C_8  and  C_10
REMARK    8  A    between atoms: C_10  and  C_11
REMARK    9  A    between atoms: C_12  and  C_13
REMARK                            x       y       z     vdW  Elec       q    Type
REMARK                         _______ _______ _______ _____ _____    ______ ____
ROOT
ATOM      1  C   UNL     1       2.945   7.093  17.992  0.00  0.00    +0.000 A 
ATOM      2  C   UNL     1       2.639   6.093  18.906  0.00  0.00    +0.000 A 
ATOM      3  N   UNL     1       1.847   6.593  19.918  0.00  0.00    +0.000 NA
ATOM      4  C   UNL     1       1.723   7.884  19.690  0.00  0.00    +0.000 A 
ATOM      5  C   UNL     1       1.036   8.928  20.384  0.00  0.00    +0.000 A 
ATOM      6 CL   UNL     1       0.153   8.541  21.813  0.00  0.00    +0.000 Cl
ATOM      7  C   UNL     1       1.068  10.193  19.926  0.00  0.00    +0.000 A 
ATOM      8  C   UNL     1       1.807  10.531  18.726  0.00  0.00    +0.000 A 
ATOM      9 CL   UNL     1       1.822  12.156  18.173  0.00  0.00    +0.000 Cl
ATOM     10  C   UNL     1       2.455   9.562  18.064  0.00  0.00    +0.000 A 
ATOM     11  N   UNL     1       2.405   8.250  18.532  0.00  0.00    +0.000 N 
ENDROOT
BRANCH   2  12
ATOM     12  C   UNL     1       3.008   4.683  18.840  0.00  0.00    +0.000 A 
ATOM     13  C   UNL     1       2.321   3.759  18.040  0.00  0.00    +0.000 A 
ATOM     14  C   UNL     1       2.674   2.407  18.025  0.00  0.00    +0.000 A 
ATOM     15  C   UNL     1       3.747   1.962  18.788  0.00  0.00    +0.000 A 
ATOM     16  C   UNL     1       4.471   2.872  19.557  0.00  0.00    +0.000 A 
ATOM     17  C   UNL     1       4.104   4.221  19.581  0.00  0.00    +0.000 A 
ENDBRANCH   2  12
BRANCH   1  18
ATOM     18  C   UNL     1       3.676   7.076  16.683  0.00  0.00    +0.000 C 
BRANCH  18  20
ATOM     19  N   UNL     1       5.761   5.676  16.601  0.00  0.00    +0.000 N 
ATOM     20  C   UNL     1       5.185   6.912  16.897  0.00  0.00    +0.000 C 
ATOM     21  O   UNL     1       5.865   7.828  17.369  0.00  0.00    +0.000 OA
BRANCH  19  22
ATOM     22  C   UNL     1       7.183   5.498  16.926  0.00  0.00    +0.000 C 
BRANCH  22  24
ATOM     23  C   UNL     1       7.693   5.716  19.437  0.00  0.00    +0.000 C 
ATOM     24  C   UNL     1       7.455   4.782  18.261  0.00  0.00    +0.000 C 
ENDBRANCH  22  24
ENDBRANCH  19  22
BRANCH  19  25
ATOM     25  C   UNL     1       5.113   4.640  15.789  0.00  0.00    +0.000 C 
BRANCH  25  26
ATOM     26  C   UNL     1       6.087   3.708  15.050  0.00  0.00    +0.000 C 
ATOM     27  C   UNL     1       6.157   3.908  13.545  0.00  0.00    +0.000 C 
ENDBRANCH  25  26
ENDBRANCH  19  25
ENDBRANCH  18  20
ENDBRANCH   1  18
TORSDOF 7
ENDMDL
MODEL 2
REMARK VINA RESULT:      -6.4      1.700      2.378
REMARK  Name = 
REMARK  9 active torsions:
REMARK  status: ('A' for Active; 'I' for Inactive)
REMARK    1  A    between atoms: C_1  and  C_2
REMARK    2  A    between atoms: C_2  and  C_3
REMARK    3  A    between atoms: C_3  and  N_4
REMARK    4  A    between atoms: N_4  and  C_5
REMARK    5  A    between atoms: C_5  and  C_6
REMARK    6  A    between atoms: C_6  and  C_7
REMARK    7  A    between atoms: C_8  and  C_10
REMARK    8  A    between atoms: C_10  and  C_11
REMARK    9  A    between atoms: C_12  and  C_13
REMARK                            x       y       z     vdW  Elec       q    Type
REMARK                         _______ _______ _______ _____ _____    ______ ____
ROOT
ATOM      1  C   UNL     1       1.824   7.293  19.162  0.00  0.00    +0.000 A 
ATOM      2  C   UNL     1       1.542   6.591  20.327  0.00  0.00    +0.000 A 
ATOM      3  N   UNL     1       1.059   7.444  21.297  0.00  0.00    +0.000 NA
ATOM      4  C   UNL     1       1.109   8.656  20.785  0.00  0.00    +0.000 A 
ATOM      5  C   UNL     1       0.757   9.942  21.302  0.00  0.00    +0.000 A 
ATOM      6 CL   UNL     1       0.122  10.053  22.901  0.00  0.00    +0.000 Cl
ATOM      7  C   UNL     1       0.909  11.048  20.552  0.00  0.00    +0.000 A 
ATOM      8  C   UNL     1       1.442  10.968  19.207  0.00  0.00    +0.000 A 
ATOM      9 CL   UNL     1       1.620  12.402  18.281  0.00  0.00    +0.000 Cl
ATOM     10  C   UNL     1       1.776   9.769  18.708  0.00  0.00    +0.000 A 
ATOM     11  N   UNL     1       1.602   8.623  19.482  0.00  0.00    +0.000 N 
ENDROOT
BRANCH   2  12
ATOM     12  C   UNL     1       1.649   5.153  20.549  0.00  0.00    +0.000 A 
ATOM     13  C   UNL     1       2.645   4.584  21.353  0.00  0.00    +0.000 A 
ATOM     14  C   UNL     1       2.745   3.199  21.518  0.00  0.00    +0.000 A 
ATOM     15  C   UNL     1       1.822   2.361  20.904  0.00  0.00    +0.000 A 
ATOM     16  C   UNL     1       0.797   2.908  20.135  0.00  0.00    +0.000 A 
ATOM     17  C   UNL     1       0.711   4.293  19.961  0.00  0.00    +0.000 A 
ENDBRANCH   2  12
BRANCH   1  18
ATOM     18  C   UNL     1       2.268   6.852  17.800  0.00  0.00    +0.000 C 
BRANCH  18  20
ATOM     19  N   UNL     1       4.326   5.410  17.800  0.00  0.00    +0.000 N 
ATOM     20  C   UNL     1       3.793   6.698  17.742  0.00  0.00    +0.000 C 
ATOM     21  O   UNL     1       4.532   7.685  17.699  0.00  0.00    +0.000 OA
BRANCH  19  22
ATOM     22  C   UNL     1       5.789   5.287  17.866  0.00  0.00    +0.000 C 
BRANCH  22  24
ATOM     23  C   UNL     1       7.844   5.790  19.328  0.00  0.00    +0.000 C 
ATOM     24  C   UNL     1       6.381   5.378  19.283  0.00  0.00    +0.000 C 
ENDBRANCH  22  24
ENDBRANCH  19  22
BRANCH  19  25
ATOM     25  C   UNL     1       3.550   4.187  17.569  0.00  0.00    +0.000 C 
BRANCH  25  26
ATOM     26  C   UNL     1       4.218   2.901  18.082  0.00  0.00    +0.000 C 
ATOM     27  C   UNL     1       3.403   1.631  17.901  0.00  0.00    +0.000 C 
ENDBRANCH  25  26
ENDBRANCH  19  25
ENDBRANCH  18  20
ENDBRANCH   1  18
TORSDOF 7
ENDMDL
MODEL 3
REMARK VINA RESULT:      -6.2      0.560      1.022
REMARK  Name = 
REMARK  9 active torsions:
REMARK  status: ('A' for Active; 'I' for Inactive)
REMARK    1  A    between atoms: C_1  and  C_2
REMARK    2  A    between atoms: C_2  and  C_3
REMARK    3  A    between atoms: C_3  and  N_4
REMARK    4  A    between atoms: N_4  and  C_5
REMARK    5  A    between atoms: C_5  and  C_6
REMARK    6  A    between atoms: C_6  and  C_7
REMARK    7  A    between atoms: C_8  and  C_10
REMARK    8  A    between atoms: C_10  and  C_11
REMARK    9  A    between atoms: C_12  and  C_13
REMARK                            x       y       z     vdW  Elec       q    Type
REMARK                         _______ _______ _______ _____ _____    ______ ____
ROOT
ATOM      1  C   UNL     1       2.748   7.039  18.339  0.00  0.00    +0.000 A 
ATOM      2  C   UNL     1       2.510   6.126  19.359  0.00  0.00    +0.000 A 
ATOM      3  N   UNL     1       1.774   6.712  20.367  0.00  0.00    +0.000 NA
ATOM      4  C   UNL     1       1.621   7.975  20.029  0.00  0.00    +0.000 A 
ATOM      5  C   UNL     1       0.965   9.075  20.665  0.00  0.00    +0.000 A 
ATOM      6 CL   UNL     1       0.175   8.816  22.175  0.00  0.00    +0.000 Cl
ATOM      7  C   UNL     1       0.953  10.292  20.091  0.00  0.00    +0.000 A 
ATOM      8  C   UNL     1       1.614  10.522  18.822  0.00  0.00    +0.000 A 
ATOM      9 CL   UNL     1       1.577  12.089  18.121  0.00  0.00    +0.000 Cl
ATOM     10  C   UNL     1       2.233   9.500  18.214  0.00  0.00    +0.000 A 
ATOM     11  N   UNL     1       2.228   8.236  18.803  0.00  0.00    +0.000 N 
ENDROOT
BRANCH   2  12
ATOM     12  C   UNL     1       2.891   4.717  19.400  0.00  0.00    +0.000 A 
ATOM     13  C   UNL     1       4.215   4.298  19.587  0.00  0.00    +0.000 A 
ATOM     14  C   UNL     1       4.554   2.941  19.585  0.00  0.00    +0.000 A 
ATOM     15  C   UNL     1       3.564   1.980  19.431  0.00  0.00    +0.000 A 
ATOM     16  C   UNL     1       2.234   2.374  19.287  0.00  0.00    +0.000 A 
ATOM     17  C   UNL     1       1.902   3.733  19.274  0.00  0.00    +0.000 A 
ENDBRANCH   2  12
BRANCH   1  18
ATOM     18  C   UNL     1       3.398   6.905  16.995  0.00  0.00    +0.000 C 
BRANCH  18  20
ATOM     19  N   UNL     1       5.635   5.787  16.748  0.00  0.00    +0.000 N 
ATOM     20  C   UNL     1       4.926   6.931  17.118  0.00  0.00    +0.000 C 
ATOM     21  O   UNL     1       5.513   7.914  17.581  0.00  0.00    +0.000 OA
BRANCH  19  22
ATOM     22  C   UNL     1       7.085   5.785  16.986  0.00  0.00    +0.000 C 
BRANCH  22  24
ATOM     23  C   UNL     1       7.774   5.679  19.462  0.00  0.00    +0.000 C 
ATOM     24  C   UNL     1       7.543   4.913  18.169  0.00  0.00    +0.000 C 
ENDBRANCH  22  24
ENDBRANCH  19  22
BRANCH  19  25
ATOM     25  C   UNL     1       5.076   4.698  15.940  0.00  0.00    +0.000 C 
BRANCH  25  26
ATOM     26  C   UNL     1       5.351   4.817  14.432  0.00  0.00    +0.000 C 
ATOM     27  C   UNL     1       6.333   3.802  13.871  0.00  0.00    +0.000 C 
ENDBRANCH  25  26
ENDBRANCH  19  25
ENDBRANCH  18  20
ENDBRANCH   1  18
TORSDOF 7
ENDMDL
MODEL 4
REMARK VINA RESULT:      -6.2      1.626      1.912
REMARK  Name = 
REMARK  9 active torsions:
REMARK  status: ('A' for Active; 'I' for Inactive)
REMARK    1  A    between atoms: C_1  and  C_2
REMARK    2  A    between atoms: C_2  and  C_3
REMARK    3  A    between atoms: C_3  and  N_4
REMARK    4  A    between atoms: N_4  and  C_5
REMARK    5  A    between atoms: C_5  and  C_6
REMARK    6  A    between atoms: C_6  and  C_7
REMARK    7  A    between atoms: C_8  and  C_10
REMARK    8  A    between atoms: C_10  and  C_11
REMARK    9  A    between atoms: C_12  and  C_13
REMARK                            x       y       z     vdW  Elec       q    Type
REMARK                         _______ _______ _______ _____ _____    ______ ____
ROOT
ATOM      1  C   UNL     1       2.317   6.945  18.959  0.00  0.00    +0.000 A 
ATOM      2  C   UNL     1       1.715   6.305  20.036  0.00  0.00    +0.000 A 
ATOM      3  N   UNL     1       0.987   7.206  20.784  0.00  0.00    +0.000 NA
ATOM      4  C   UNL     1       1.189   8.389  20.243  0.00  0.00    +0.000 A 
ATOM      5  C   UNL     1       0.717   9.698  20.571  0.00  0.00    +0.000 A 
ATOM      6 CL   UNL     1      -0.339   9.890  21.920  0.00  0.00    +0.000 Cl
ATOM      7  C   UNL     1       1.081  10.763  19.835  0.00  0.00    +0.000 A 
ATOM      8  C   UNL     1       1.968  10.614  18.698  0.00  0.00    +0.000 A 
ATOM      9 CL   UNL     1       2.408  11.998  17.782  0.00  0.00    +0.000 Cl
ATOM     10  C   UNL     1       2.418   9.393  18.378  0.00  0.00    +0.000 A 
ATOM     11  N   UNL     1       2.025   8.288  19.133  0.00  0.00    +0.000 N 
ENDROOT
BRANCH   2  12
ATOM     12  C   UNL     1       1.744   4.882  20.355  0.00  0.00    +0.000 A 
ATOM     13  C   UNL     1       2.333   4.382  21.524  0.00  0.00    +0.000 A 
ATOM     14  C   UNL     1       2.377   3.009  21.787  0.00  0.00    +0.000 A 
ATOM     15  C   UNL     1       1.800   2.115  20.894  0.00  0.00    +0.000 A 
ATOM     16  C   UNL     1       1.171   2.593  19.746  0.00  0.00    +0.000 A 
ATOM     17  C   UNL     1       1.142   3.967  19.481  0.00  0.00    +0.000 A 
ENDBRANCH   2  12
BRANCH   1  18
ATOM     18  C   UNL     1       3.120   6.435  17.801  0.00  0.00    +0.000 C 
BRANCH  18  20
ATOM     19  N   UNL     1       5.432   5.600  17.279  0.00  0.00    +0.000 N 
ATOM     20  C   UNL     1       4.510   5.975  18.256  0.00  0.00    +0.000 C 
ATOM     21  O   UNL     1       4.791   5.886  19.455  0.00  0.00    +0.000 OA
BRANCH  19  22
ATOM     22  C   UNL     1       6.715   5.048  17.736  0.00  0.00    +0.000 C 
BRANCH  22  24
ATOM     23  C   UNL     1       7.654   7.438  17.597  0.00  0.00    +0.000 C 
ATOM     24  C   UNL     1       7.701   6.087  18.296  0.00  0.00    +0.000 C 
ENDBRANCH  22  24
ENDBRANCH  19  22
BRANCH  19  25
ATOM     25  C   UNL     1       5.302   5.930  15.855  0.00  0.00    +0.000 C 
BRANCH  25  26
ATOM     26  C   UNL     1       5.559   4.752  14.902  0.00  0.00    +0.000 C 
ATOM     27  C   UNL     1       6.856   4.829  14.112  0.00  0.00    +0.000 C 
ENDBRANCH  25  26
ENDBRANCH  19  25
ENDBRANCH  18  20
ENDBRANCH   1  18
TORSDOF 7
ENDMDL
MODEL 5
REMARK VINA RESULT:      -6.2      1.614      2.330
REMARK  Name = 
REMARK  9 active torsions:
REMARK  status: ('A' for Active; 'I' for Inactive)
REMARK    1  A    between atoms: C_1  and  C_2
REMARK    2  A    between atoms: C_2  and  C_3
REMARK    3  A    between atoms: C_3  and  N_4
REMARK    4  A    between atoms: N_4  and  C_5
REMARK    5  A    between atoms: C_5  and  C_6
REMARK    6  A    between atoms: C_6  and  C_7
REMARK    7  A    between atoms: C_8  and  C_10
REMARK    8  A    between atoms: C_10  and  C_11
REMARK    9  A    between atoms: C_12  and  C_13
REMARK                            x       y       z     vdW  Elec       q    Type
REMARK                         _______ _______ _______ _____ _____    ______ ____
ROOT
ATOM      1  C   UNL     1       1.848   7.248  19.136  0.00  0.00    +0.000 A 
ATOM      2  C   UNL     1       1.494   6.540  20.278  0.00  0.00    +0.000 A 
ATOM      3  N   UNL     1       0.963   7.389  21.225  0.00  0.00    +0.000 NA
ATOM      4  C   UNL     1       1.051   8.605  20.726  0.00  0.00    +0.000 A 
ATOM      5  C   UNL     1       0.679   9.889  21.232  0.00  0.00    +0.000 A 
ATOM      6 CL   UNL     1      -0.047   9.993  22.793  0.00  0.00    +0.000 Cl
ATOM      7  C   UNL     1       0.881  11.000  20.500  0.00  0.00    +0.000 A 
ATOM      8  C   UNL     1       1.491  10.925  19.188  0.00  0.00    +0.000 A 
ATOM      9 CL   UNL     1       1.731  12.365  18.284  0.00  0.00    +0.000 Cl
ATOM     10  C   UNL     1       1.844   9.728  18.700  0.00  0.00    +0.000 A 
ATOM     11  N   UNL     1       1.617   8.577  19.454  0.00  0.00    +0.000 N 
ENDROOT
BRANCH   2  12
ATOM     12  C   UNL     1       1.578   5.099  20.495  0.00  0.00    +0.000 A 
ATOM     13  C   UNL     1       0.716   4.189  19.869  0.00  0.00    +0.000 A 
ATOM     14  C   UNL     1       0.797   2.817  20.124  0.00  0.00    +0.000 A 
ATOM     15  C   UNL     1       1.770   2.330  20.987  0.00  0.00    +0.000 A 
ATOM     16  C   UNL     1       2.666   3.212  21.587  0.00  0.00    +0.000 A 
ATOM     17  C   UNL     1       2.571   4.586  21.340  0.00  0.00    +0.000 A 
ENDBRANCH   2  12
BRANCH   1  18
ATOM     18  C   UNL     1       2.367   6.814  17.799  0.00  0.00    +0.000 C 
BRANCH  18  20
ATOM     19  N   UNL     1       4.423   5.374  17.934  0.00  0.00    +0.000 N 
ATOM     20  C   UNL     1       3.892   6.660  17.824  0.00  0.00    +0.000 C 
ATOM     21  O   UNL     1       4.633   7.648  17.801  0.00  0.00    +0.000 OA
BRANCH  19  22
ATOM     22  C   UNL     1       5.880   5.255  18.079  0.00  0.00    +0.000 C 
BRANCH  22  24
ATOM     23  C   UNL     1       6.600   4.396  15.765  0.00  0.00    +0.000 C 
ATOM     24  C   UNL     1       6.680   5.516  16.791  0.00  0.00    +0.000 C 
ENDBRANCH  22  24
ENDBRANCH  19  22
BRANCH  19  25
ATOM     25  C   UNL     1       3.660   4.146  17.687  0.00  0.00    +0.000 C 
BRANCH  25  26
ATOM     26  C   UNL     1       4.270   2.880  18.310  0.00  0.00    +0.000 C 
ATOM     27  C   UNL     1       3.593   1.576  17.921  0.00  0.00    +0.000 C 
ENDBRANCH  25  26
ENDBRANCH  19  25
ENDBRANCH  18  20
ENDBRANCH   1  18
TORSDOF 7
ENDMDL
MODEL 6
REMARK VINA RESULT:      -5.9      2.412      5.014
REMARK  Name = 
REMARK  9 active torsions:
REMARK  status: ('A' for Active; 'I' for Inactive)
REMARK    1  A    between atoms: C_1  and  C_2
REMARK    2  A    between atoms: C_2  and  C_3
REMARK    3  A    between atoms: C_3  and  N_4
REMARK    4  A    between atoms: N_4  and  C_5
REMARK    5  A    between atoms: C_5  and  C_6
REMARK    6  A    between atoms: C_6  and  C_7
REMARK    7  A    between atoms: C_8  and  C_10
REMARK    8  A    between atoms: C_10  and  C_11
REMARK    9  A    between atoms: C_12  and  C_13
REMARK                            x       y       z     vdW  Elec       q    Type
REMARK                         _______ _______ _______ _____ _____    ______ ____
ROOT
ATOM      1  C   UNL     1       2.823   6.030  18.321  0.00  0.00    +0.000 A 
ATOM      2  C   UNL     1       2.106   6.653  19.335  0.00  0.00    +0.000 A 
ATOM      3  N   UNL     1       1.819   5.756  20.342  0.00  0.00    +0.000 NA
ATOM      4  C   UNL     1       2.272   4.587  19.939  0.00  0.00    +0.000 A 
ATOM      5  C   UNL     1       2.264   3.287  20.534  0.00  0.00    +0.000 A 
ATOM      6 CL   UNL     1       1.556   3.087  22.093  0.00  0.00    +0.000 Cl
ATOM      7  C   UNL     1       2.810   2.236  19.896  0.00  0.00    +0.000 A 
ATOM      8  C   UNL     1       3.409   2.392  18.585  0.00  0.00    +0.000 A 
ATOM      9 CL   UNL     1       4.096   1.026  17.802  0.00  0.00    +0.000 Cl
ATOM     10  C   UNL     1       3.424   3.604  18.014  0.00  0.00    +0.000 A 
ATOM     11  N   UNL     1       2.873   4.694  18.687  0.00  0.00    +0.000 N 
ENDROOT
BRANCH   2  12
ATOM     12  C   UNL     1       1.733   8.061  19.427  0.00  0.00    +0.000 A 
ATOM     13  C   UNL     1       1.804   8.934  18.334  0.00  0.00    +0.000 A 
ATOM     14  C   UNL     1       1.474  10.287  18.461  0.00  0.00    +0.000 A 
ATOM     15  C   UNL     1       1.033  10.780  19.683  0.00  0.00    +0.000 A 
ATOM     16  C   UNL     1       0.913   9.919  20.773  0.00  0.00    +0.000 A 
ATOM     17  C   UNL     1       1.259   8.570  20.644  0.00  0.00    +0.000 A 
ENDBRANCH   2  12
BRANCH   1  18
ATOM     18  C   UNL     1       3.460   6.550  17.068  0.00  0.00    +0.000 C 
BRANCH  18  20
ATOM     19  N   UNL     1       5.808   5.804  16.569  0.00  0.00    +0.000 N 
ATOM     20  C   UNL     1       4.976   6.699  17.243  0.00  0.00    +0.000 C 
ATOM     21  O   UNL     1       5.450   7.552  17.999  0.00  0.00    +0.000 OA
BRANCH  19  22
ATOM     22  C   UNL     1       7.249   5.883  16.842  0.00  0.00    +0.000 C 
BRANCH  22  24
ATOM     23  C   UNL     1       7.946   5.677  19.309  0.00  0.00    +0.000 C 
ATOM     24  C   UNL     1       7.741   4.970  17.978  0.00  0.00    +0.000 C 
ENDBRANCH  22  24
ENDBRANCH  19  22
BRANCH  19  25
ATOM     25  C   UNL     1       5.372   4.958  15.451  0.00  0.00    +0.000 C 
BRANCH  25  26
ATOM     26  C   UNL     1       6.467   4.654  14.417  0.00  0.00    +0.000 C 
ATOM     27  C   UNL     1       6.054   3.719  13.293  0.00  0.00    +0.000 C 
ENDBRANCH  25  26
ENDBRANCH  19  25
ENDBRANCH  18  20
ENDBRANCH   1  18
TORSDOF 7
ENDMDL
MODEL 7
REMARK VINA RESULT:      -5.9      5.063      8.927
REMARK  Name = 
REMARK  9 active torsions:
REMARK  status: ('A' for Active; 'I' for Inactive)
REMARK    1  A    between atoms: C_1  and  C_2
REMARK    2  A    between atoms: C_2  and  C_3
REMARK    3  A    between atoms: C_3  and  N_4
REMARK    4  A    between atoms: N_4  and  C_5
REMARK    5  A    between atoms: C_5  and  C_6
REMARK    6  A    between atoms: C_6  and  C_7
REMARK    7  A    between atoms: C_8  and  C_10
REMARK    8  A    between atoms: C_10  and  C_11
REMARK    9  A    between atoms: C_12  and  C_13
REMARK                            x       y       z     vdW  Elec       q    Type
REMARK                         _______ _______ _______ _____ _____    ______ ____
ROOT
ATOM      1  C   UNL     1      -1.678  12.444  19.217  0.00  0.00    +0.000 A 
ATOM      2  C   UNL     1      -2.539  12.862  20.224  0.00  0.00    +0.000 A 
ATOM      3  N   UNL     1      -3.836  12.497  19.930  0.00  0.00    +0.000 NA
ATOM      4  C   UNL     1      -3.804  11.937  18.739  0.00  0.00    +0.000 A 
ATOM      5  C   UNL     1      -4.820  11.373  17.906  0.00  0.00    +0.000 A 
ATOM      6 CL   UNL     1      -6.449  11.360  18.470  0.00  0.00    +0.000 Cl
ATOM      7  C   UNL     1      -4.511  10.851  16.705  0.00  0.00    +0.000 A 
ATOM      8  C   UNL     1      -3.146  10.857  16.220  0.00  0.00    +0.000 A 
ATOM      9 CL   UNL     1      -2.792  10.181  14.683  0.00  0.00    +0.000 Cl
ATOM     10  C   UNL     1      -2.182  11.382  16.991  0.00  0.00    +0.000 A 
ATOM     11  N   UNL     1      -2.503  11.906  18.242  0.00  0.00    +0.000 N 
ENDROOT
BRANCH   2  12
ATOM     12  C   UNL     1      -2.191  13.532  21.473  0.00  0.00    +0.000 A 
ATOM     13  C   UNL     1      -1.708  14.847  21.515  0.00  0.00    +0.000 A 
ATOM     14  C   UNL     1      -1.348  15.451  22.724  0.00  0.00    +0.000 A 
ATOM     15  C   UNL     1      -1.499  14.756  23.917  0.00  0.00    +0.000 A 
ATOM     16  C   UNL     1      -2.017  13.462  23.902  0.00  0.00    +0.000 A 
ATOM     17  C   UNL     1      -2.362  12.857  22.689  0.00  0.00    +0.000 A 
ENDBRANCH   2  12
BRANCH   1  18
ATOM     18  C   UNL     1      -0.186  12.491  19.079  0.00  0.00    +0.000 C 
BRANCH  18  20
ATOM     19  N   UNL     1       0.638  10.311  20.022  0.00  0.00    +0.000 N 
ATOM     20  C   UNL     1       0.494  11.689  20.195  0.00  0.00    +0.000 C 
ATOM     21  O   UNL     1       0.858  12.233  21.241  0.00  0.00    +0.000 OA
BRANCH  19  22
ATOM     22  C   UNL     1       1.181   9.542  21.149  0.00  0.00    +0.000 C 
BRANCH  22  24
ATOM     23  C   UNL     1      -0.352   9.642  23.211  0.00  0.00    +0.000 C 
ATOM     24  C   UNL     1       0.125   8.833  22.015  0.00  0.00    +0.000 C 
ENDBRANCH  22  24
ENDBRANCH  19  22
BRANCH  19  25
ATOM     25  C   UNL     1       0.503   9.626  18.732  0.00  0.00    +0.000 C 
BRANCH  25  26
ATOM     26  C   UNL     1       1.803   9.537  17.917  0.00  0.00    +0.000 C 
ATOM     27  C   UNL     1       2.467   8.170  17.904  0.00  0.00    +0.000 C 
ENDBRANCH  25  26
ENDBRANCH  19  25
ENDBRANCH  18  20
ENDBRANCH   1  18
TORSDOF 7
ENDMDL
MODEL 8
REMARK VINA RESULT:      -5.9      2.868      5.679
REMARK  Name = 
REMARK  9 active torsions:
REMARK  status: ('A' for Active; 'I' for Inactive)
REMARK    1  A    between atoms: C_1  and  C_2
REMARK    2  A    between atoms: C_2  and  C_3
REMARK    3  A    between atoms: C_3  and  N_4
REMARK    4  A    between atoms: N_4  and  C_5
REMARK    5  A    between atoms: C_5  and  C_6
REMARK    6  A    between atoms: C_6  and  C_7
REMARK    7  A    between atoms: C_8  and  C_10
REMARK    8  A    between atoms: C_10  and  C_11
REMARK    9  A    between atoms: C_12  and  C_13
REMARK                            x       y       z     vdW  Elec       q    Type
REMARK                         _______ _______ _______ _____ _____    ______ ____
ROOT
ATOM      1  C   UNL     1       3.797   5.404  19.449  0.00  0.00    +0.000 A 
ATOM      2  C   UNL     1       2.586   5.998  19.780  0.00  0.00    +0.000 A 
ATOM      3  N   UNL     1       1.842   5.159  20.582  0.00  0.00    +0.000 NA
ATOM      4  C   UNL     1       2.528   4.041  20.688  0.00  0.00    +0.000 A 
ATOM      5  C   UNL     1       2.277   2.811  21.373  0.00  0.00    +0.000 A 
ATOM      6 CL   UNL     1       0.821   2.644  22.282  0.00  0.00    +0.000 Cl
ATOM      7  C   UNL     1       3.166   1.803  21.321  0.00  0.00    +0.000 A 
ATOM      8  C   UNL     1       4.393   1.931  20.560  0.00  0.00    +0.000 A 
ATOM      9 CL   UNL     1       5.502   0.621  20.519  0.00  0.00    +0.000 Cl
ATOM     10  C   UNL     1       4.642   3.078  19.913  0.00  0.00    +0.000 A 
ATOM     11  N   UNL     1       3.727   4.128  19.984  0.00  0.00    +0.000 N 
ENDROOT
BRANCH   2  12
ATOM     12  C   UNL     1       2.124   7.337  19.426  0.00  0.00    +0.000 A 
ATOM     13  C   UNL     1       2.257   7.866  18.135  0.00  0.00    +0.000 A 
ATOM     14  C   UNL     1       1.839   9.166  17.835  0.00  0.00    +0.000 A 
ATOM     15  C   UNL     1       1.246   9.947  18.820  0.00  0.00    +0.000 A 
ATOM     16  C   UNL     1       1.065   9.425  20.099  0.00  0.00    +0.000 A 
ATOM     17  C   UNL     1       1.499   8.129  20.398  0.00  0.00    +0.000 A 
ENDBRANCH   2  12
BRANCH   1  18
ATOM     18  C   UNL     1       4.996   5.903  18.700  0.00  0.00    +0.000 C 
BRANCH  18  20
ATOM     19  N   UNL     1       5.992   5.854  16.392  0.00  0.00    +0.000 N 
ATOM     20  C   UNL     1       4.961   5.440  17.238  0.00  0.00    +0.000 C 
ATOM     21  O   UNL     1       4.023   4.766  16.804  0.00  0.00    +0.000 OA
BRANCH  19  22
ATOM     22  C   UNL     1       5.880   5.504  14.970  0.00  0.00    +0.000 C 
BRANCH  22  24
ATOM     23  C   UNL     1       6.167   3.665  13.195  0.00  0.00    +0.000 C 
ATOM     24  C   UNL     1       6.540   4.170  14.580  0.00  0.00    +0.000 C 
ENDBRANCH  22  24
ENDBRANCH  19  22
BRANCH  19  25
ATOM     25  C   UNL     1       7.269   6.404  16.860  0.00  0.00    +0.000 C 
BRANCH  25  26
ATOM     26  C   UNL     1       7.217   7.887  17.260  0.00  0.00    +0.000 C 
ATOM     27  C   UNL     1       8.345   8.354  18.165  0.00  0.00    +0.000 C 
ENDBRANCH  25  26
ENDBRANCH  19  25
ENDBRANCH  18  20
ENDBRANCH   1  18
TORSDOF 7
ENDMDL
MODEL 9
REMARK VINA RESULT:      -5.7      2.780      5.598
REMARK  Name = 
REMARK  9 active torsions:
REMARK  status: ('A' for Active; 'I' for Inactive)
REMARK    1  A    between atoms: C_1  and  C_2
REMARK    2  A    between atoms: C_2  and  C_3
REMARK    3  A    between atoms: C_3  and  N_4
REMARK    4  A    between atoms: N_4  and  C_5
REMARK    5  A    between atoms: C_5  and  C_6
REMARK    6  A    between atoms: C_6  and  C_7
REMARK    7  A    between atoms: C_8  and  C_10
REMARK    8  A    between atoms: C_10  and  C_11
REMARK    9  A    between atoms: C_12  and  C_13
REMARK                            x       y       z     vdW  Elec       q    Type
REMARK                         _______ _______ _______ _____ _____    ______ ____
ROOT
ATOM      1  C   UNL     1       3.654   5.594  19.311  0.00  0.00    +0.000 A 
ATOM      2  C   UNL     1       2.468   6.183  19.732  0.00  0.00    +0.000 A 
ATOM      3  N   UNL     1       1.776   5.329  20.563  0.00  0.00    +0.000 NA
ATOM      4  C   UNL     1       2.464   4.207  20.601  0.00  0.00    +0.000 A 
ATOM      5  C   UNL     1       2.254   2.964  21.275  0.00  0.00    +0.000 A 
ATOM      6 CL   UNL     1       0.860   2.780  22.272  0.00  0.00    +0.000 Cl
ATOM      7  C   UNL     1       3.134   1.955  21.143  0.00  0.00    +0.000 A 
ATOM      8  C   UNL     1       4.309   2.097  20.307  0.00  0.00    +0.000 A 
ATOM      9 CL   UNL     1       5.410   0.787  20.166  0.00  0.00    +0.000 Cl
ATOM     10  C   UNL     1       4.520   3.257  19.670  0.00  0.00    +0.000 A 
ATOM     11  N   UNL     1       3.615   4.307  19.822  0.00  0.00    +0.000 N 
ENDROOT
BRANCH   2  12
ATOM     12  C   UNL     1       1.989   7.530  19.438  0.00  0.00    +0.000 A 
ATOM     13  C   UNL     1       1.378   8.342  20.402  0.00  0.00    +0.000 A 
ATOM     14  C   UNL     1       0.896   9.615  20.081  0.00  0.00    +0.000 A 
ATOM     15  C   UNL     1       1.051  10.109  18.792  0.00  0.00    +0.000 A 
ATOM     16  C   UNL     1       1.696   9.336  17.828  0.00  0.00    +0.000 A 
ATOM     17  C   UNL     1       2.162   8.057  18.150  0.00  0.00    +0.000 A 
ENDBRANCH   2  12
BRANCH   1  18
ATOM     18  C   UNL     1       4.803   6.107  18.496  0.00  0.00    +0.000 C 
BRANCH  18  20
ATOM     19  N   UNL     1       6.441   4.837  17.074  0.00  0.00    +0.000 N 
ATOM     20  C   UNL     1       5.108   5.166  17.324  0.00  0.00    +0.000 C 
ATOM     21  O   UNL     1       4.208   4.751  16.588  0.00  0.00    +0.000 OA
BRANCH  19  22
ATOM     22  C   UNL     1       6.726   4.034  15.877  0.00  0.00    +0.000 C 
BRANCH  22  24
ATOM     23  C   UNL     1       6.374   4.022  13.329  0.00  0.00    +0.000 C 
ATOM     24  C   UNL     1       6.759   4.829  14.560  0.00  0.00    +0.000 C 
ENDBRANCH  22  24
ENDBRANCH  19  22
BRANCH  19  25
ATOM     25  C   UNL     1       7.533   5.040  18.033  0.00  0.00    +0.000 C 
BRANCH  25  26
ATOM     26  C   UNL     1       7.796   6.509  18.397  0.00  0.00    +0.000 C 
ATOM     27  C   UNL     1       7.726   7.487  17.236  0.00  0.00    +0.000 C 
ENDBRANCH  25  26
ENDBRANCH  19  25
ENDBRANCH  18  20
ENDBRANCH   1  18
TORSDOF 7
ENDMDL
