MODEL 1
REMARK VINA RESULT:      -6.6      0.000      0.000
REMARK  Name = 
REMARK  4 active torsions:
REMARK  status: ('A' for Active; 'I' for Inactive)
REMARK    1  A    between atoms: N_6  and  C_7
REMARK    2  A    between atoms: C_9  and  O_10
REMARK    3  A    between atoms: C_11  and  C_12
REMARK    4  A    between atoms: C_12  and  O_13
REMARK                            x       y       z     vdW  Elec       q    Type
REMARK                         _______ _______ _______ _____ _____    ______ ____
ROOT
ATOM      1  N   UNL     1       8.222   5.495  13.515  0.00  0.00    +0.000 N 
ATOM      2  C   UNL     1       7.273   5.256  14.472  0.00  0.00    +0.000 A 
ATOM      3  N   UNL     1       7.448   5.893  15.591  0.00  0.00    +0.000 NA
ATOM      4  C   UNL     1       6.587   5.702  16.645  0.00  0.00    +0.000 A 
ATOM      5  O   UNL     1       6.782   6.279  17.713  0.00  0.00    +0.000 OA
ATOM      6  N   UNL     1       5.497   4.838  16.470  0.00  0.00    +0.000 N 
ATOM      7  C   UNL     1       5.303   4.171  15.274  0.00  0.00    +0.000 A 
ATOM      8  C   UNL     1       6.128   4.325  14.237  0.00  0.00    +0.000 A 
ATOM      9  I   UNL     1       5.880   3.376  12.455  0.00  0.00    +0.000 I 
ATOM     10  H   UNL     1       8.847   6.272  13.694  0.00  0.00    +0.000 HD
ATOM     11  H   UNL     1       8.062   5.236  12.551  0.00  0.00    +0.000 HD
ENDROOT
BRANCH   6  12
ATOM     12  C   UNL     1       4.555   4.601  17.574  0.00  0.00    +0.000 C 
ATOM     13  C   UNL     1       5.172   3.885  18.791  0.00  0.00    +0.000 C 
ATOM     14  C   UNL     1       4.030   3.047  19.354  0.00  0.00    +0.000 C 
ATOM     15  C   UNL     1       3.285   2.567  18.104  0.00  0.00    +0.000 C 
ATOM     16  C   UNL     1       3.305   3.790  17.175  0.00  0.00    +0.000 C 
BRANCH  14  17
ATOM     17  O   UNL     1       3.206   3.841  20.208  0.00  0.00    +0.000 OA
ATOM     18  H   UNL     1       3.762   4.235  20.905  0.00  0.00    +0.000 HD
ENDBRANCH  14  17
BRANCH  15  19
ATOM     19  C   UNL     1       1.885   2.018  18.355  0.00  0.00    +0.000 C 
BRANCH  19  20
ATOM     20  O   UNL     1       0.889   3.023  18.211  0.00  0.00    +0.000 OA
ATOM     21  H   UNL     1       1.083   3.688  18.903  0.00  0.00    +0.000 HD
ENDBRANCH  19  20
ENDBRANCH  15  19
ENDBRANCH   6  12
TORSDOF 4
ENDMDL
MODEL 2
REMARK VINA RESULT:      -6.5      1.212      1.693
REMARK  Name = 
REMARK  4 active torsions:
REMARK  status: ('A' for Active; 'I' for Inactive)
REMARK    1  A    between atoms: N_6  and  C_7
REMARK    2  A    between atoms: C_9  and  O_10
REMARK    3  A    between atoms: C_11  and  C_12
REMARK    4  A    between atoms: C_12  and  O_13
REMARK                            x       y       z     vdW  Elec       q    Type
REMARK                         _______ _______ _______ _____ _____    ______ ____
ROOT
ATOM      1  N   UNL     1       7.955   5.523  13.697  0.00  0.00    +0.000 N 
ATOM      2  C   UNL     1       7.162   5.142  14.746  0.00  0.00    +0.000 A 
ATOM      3  N   UNL     1       7.502   5.636  15.900  0.00  0.00    +0.000 NA
ATOM      4  C   UNL     1       6.811   5.292  17.036  0.00  0.00    +0.000 A 
ATOM      5  O   UNL     1       7.162   5.733  18.129  0.00  0.00    +0.000 OA
ATOM      6  N   UNL     1       5.711   4.431  16.916  0.00  0.00    +0.000 N 
ATOM      7  C   UNL     1       5.341   3.918  15.686  0.00  0.00    +0.000 A 
ATOM      8  C   UNL     1       5.999   4.221  14.566  0.00  0.00    +0.000 A 
ATOM      9  I   UNL     1       5.488   3.501  12.734  0.00  0.00    +0.000 I 
ATOM     10  H   UNL     1       8.597   6.286  13.880  0.00  0.00    +0.000 HD
ATOM     11  H   UNL     1       7.652   5.386  12.743  0.00  0.00    +0.000 HD
ENDROOT
BRANCH   6  12
ATOM     12  C   UNL     1       4.948   4.034  18.108  0.00  0.00    +0.000 C 
ATOM     13  C   UNL     1       3.985   2.853  17.880  0.00  0.00    +0.000 C 
ATOM     14  C   UNL     1       2.814   3.135  18.814  0.00  0.00    +0.000 C 
ATOM     15  C   UNL     1       2.661   4.658  18.750  0.00  0.00    +0.000 C 
ATOM     16  C   UNL     1       4.108   5.170  18.730  0.00  0.00    +0.000 C 
BRANCH  14  17
ATOM     17  O   UNL     1       3.108   2.671  20.132  0.00  0.00    +0.000 OA
ATOM     18  H   UNL     1       3.643   3.345  20.591  0.00  0.00    +0.000 HD
ENDBRANCH  14  17
BRANCH  15  19
ATOM     19  C   UNL     1       1.816   5.271  19.862  0.00  0.00    +0.000 C 
BRANCH  19  20
ATOM     20  O   UNL     1       2.509   5.289  21.104  0.00  0.00    +0.000 OA
ATOM     21  H   UNL     1       2.055   4.630  21.669  0.00  0.00    +0.000 HD
ENDBRANCH  19  20
ENDBRANCH  15  19
ENDBRANCH   6  12
TORSDOF 4
ENDMDL
MODEL 3
REMARK VINA RESULT:      -6.3      3.520      5.777
REMARK  Name = 
REMARK  4 active torsions:
REMARK  status: ('A' for Active; 'I' for Inactive)
REMARK    1  A    between atoms: N_6  and  C_7
REMARK    2  A    between atoms: C_9  and  O_10
REMARK    3  A    between atoms: C_11  and  C_12
REMARK    4  A    between atoms: C_12  and  O_13
REMARK                            x       y       z     vdW  Elec       q    Type
REMARK                         _______ _______ _______ _____ _____    ______ ____
ROOT
ATOM      1  N   UNL     1       1.633   6.737  20.686  0.00  0.00    +0.000 N 
ATOM      2  C   UNL     1       2.563   6.311  19.776  0.00  0.00    +0.000 A 
ATOM      3  N   UNL     1       3.153   5.192  20.077  0.00  0.00    +0.000 NA
ATOM      4  C   UNL     1       4.137   4.683  19.264  0.00  0.00    +0.000 A 
ATOM      5  O   UNL     1       4.718   3.645  19.576  0.00  0.00    +0.000 OA
ATOM      6  N   UNL     1       4.460   5.375  18.089  0.00  0.00    +0.000 N 
ATOM      7  C   UNL     1       3.821   6.558  17.762  0.00  0.00    +0.000 A 
ATOM      8  C   UNL     1       2.871   7.085  18.536  0.00  0.00    +0.000 A 
ATOM      9  I   UNL     1       1.895   8.815  18.094  0.00  0.00    +0.000 I 
ATOM     10  H   UNL     1       1.360   6.063  21.392  0.00  0.00    +0.000 HD
ATOM     11  H   UNL     1       0.967   7.458  20.446  0.00  0.00    +0.000 HD
ENDROOT
BRANCH   6  12
ATOM     12  C   UNL     1       5.511   4.868  17.195  0.00  0.00    +0.000 C 
ATOM     13  C   UNL     1       6.405   5.962  16.582  0.00  0.00    +0.000 C 
ATOM     14  C   UNL     1       6.777   5.420  15.208  0.00  0.00    +0.000 C 
ATOM     15  C   UNL     1       5.502   4.708  14.744  0.00  0.00    +0.000 C 
ATOM     16  C   UNL     1       4.985   4.021  16.017  0.00  0.00    +0.000 C 
BRANCH  14  17
ATOM     17  O   UNL     1       7.891   4.533  15.309  0.00  0.00    +0.000 OA
ATOM     18  H   UNL     1       8.256   4.383  14.417  0.00  0.00    +0.000 HD
ENDBRANCH  14  17
BRANCH  15  19
ATOM     19  C   UNL     1       5.685   3.751  13.571  0.00  0.00    +0.000 C 
BRANCH  19  20
ATOM     20  O   UNL     1       6.774   4.134  12.740  0.00  0.00    +0.000 OA
ATOM     21  H   UNL     1       7.257   3.306  12.539  0.00  0.00    +0.000 HD
ENDBRANCH  19  20
ENDBRANCH  15  19
ENDBRANCH   6  12
TORSDOF 4
ENDMDL
MODEL 4
REMARK VINA RESULT:      -6.3      3.680      6.052
REMARK  Name = 
REMARK  4 active torsions:
REMARK  status: ('A' for Active; 'I' for Inactive)
REMARK    1  A    between atoms: N_6  and  C_7
REMARK    2  A    between atoms: C_9  and  O_10
REMARK    3  A    between atoms: C_11  and  C_12
REMARK    4  A    between atoms: C_12  and  O_13
REMARK                            x       y       z     vdW  Elec       q    Type
REMARK                         _______ _______ _______ _____ _____    ______ ____
ROOT
ATOM      1  N   UNL     1       0.388   3.975  20.438  0.00  0.00    +0.000 N 
ATOM      2  C   UNL     1       1.598   3.983  19.799  0.00  0.00    +0.000 A 
ATOM      3  N   UNL     1       1.981   2.832  19.331  0.00  0.00    +0.000 NA
ATOM      4  C   UNL     1       3.198   2.702  18.708  0.00  0.00    +0.000 A 
ATOM      5  O   UNL     1       3.569   1.603  18.302  0.00  0.00    +0.000 OA
ATOM      6  N   UNL     1       3.997   3.844  18.555  0.00  0.00    +0.000 N 
ATOM      7  C   UNL     1       3.583   5.072  19.040  0.00  0.00    +0.000 A 
ATOM      8  C   UNL     1       2.413   5.228  19.661  0.00  0.00    +0.000 A 
ATOM      9  I   UNL     1       1.755   7.013  20.383  0.00  0.00    +0.000 I 
ATOM     10  H   UNL     1      -0.171   3.138  20.321  0.00  0.00    +0.000 HD
ATOM     11  H   UNL     1      -0.100   4.838  20.635  0.00  0.00    +0.000 HD
ENDROOT
BRANCH   6  12
ATOM     12  C   UNL     1       5.309   3.748  17.899  0.00  0.00    +0.000 C 
ATOM     13  C   UNL     1       6.308   4.844  18.316  0.00  0.00    +0.000 C 
ATOM     14  C   UNL     1       7.146   5.086  17.065  0.00  0.00    +0.000 C 
ATOM     15  C   UNL     1       6.134   4.950  15.923  0.00  0.00    +0.000 C 
ATOM     16  C   UNL     1       5.249   3.772  16.357  0.00  0.00    +0.000 C 
BRANCH  14  17
ATOM     17  O   UNL     1       8.198   4.126  16.979  0.00  0.00    +0.000 OA
ATOM     18  H   UNL     1       8.759   4.201  17.774  0.00  0.00    +0.000 HD
ENDBRANCH  14  17
BRANCH  15  19
ATOM     19  C   UNL     1       6.744   4.771  14.537  0.00  0.00    +0.000 C 
BRANCH  19  20
ATOM     20  O   UNL     1       6.370   3.531  13.949  0.00  0.00    +0.000 OA
ATOM     21  H   UNL     1       7.209   3.060  13.770  0.00  0.00    +0.000 HD
ENDBRANCH  19  20
ENDBRANCH  15  19
ENDBRANCH   6  12
TORSDOF 4
ENDMDL
MODEL 5
REMARK VINA RESULT:      -6.3      4.815      5.733
REMARK  Name = 
REMARK  4 active torsions:
REMARK  status: ('A' for Active; 'I' for Inactive)
REMARK    1  A    between atoms: N_6  and  C_7
REMARK    2  A    between atoms: C_9  and  O_10
REMARK    3  A    between atoms: C_11  and  C_12
REMARK    4  A    between atoms: C_12  and  O_13
REMARK                            x       y       z     vdW  Elec       q    Type
REMARK                         _______ _______ _______ _____ _____    ______ ____
ROOT
ATOM      1  N   UNL     1       1.878  10.729  17.914  0.00  0.00    +0.000 N 
ATOM      2  C   UNL     1       2.085   9.429  18.286  0.00  0.00    +0.000 A 
ATOM      3  N   UNL     1       2.900   8.762  17.524  0.00  0.00    +0.000 NA
ATOM      4  C   UNL     1       3.155   7.434  17.769  0.00  0.00    +0.000 A 
ATOM      5  O   UNL     1       3.896   6.800  17.020  0.00  0.00    +0.000 OA
ATOM      6  N   UNL     1       2.548   6.830  18.879  0.00  0.00    +0.000 N 
ATOM      7  C   UNL     1       1.694   7.544  19.699  0.00  0.00    +0.000 A 
ATOM      8  C   UNL     1       1.415   8.831  19.480  0.00  0.00    +0.000 A 
ATOM      9  I   UNL     1       0.174   9.926  20.662  0.00  0.00    +0.000 I 
ATOM     10  H   UNL     1       2.510  11.097  17.211  0.00  0.00    +0.000 HD
ATOM     11  H   UNL     1       1.453  11.389  18.551  0.00  0.00    +0.000 HD
ENDROOT
BRANCH   6  12
ATOM     12  C   UNL     1       2.790   5.410  19.173  0.00  0.00    +0.000 C 
ATOM     13  C   UNL     1       2.074   4.434  18.220  0.00  0.00    +0.000 C 
ATOM     14  C   UNL     1       1.752   3.225  19.089  0.00  0.00    +0.000 C 
ATOM     15  C   UNL     1       1.390   3.842  20.444  0.00  0.00    +0.000 C 
ATOM     16  C   UNL     1       2.402   4.986  20.606  0.00  0.00    +0.000 C 
BRANCH  14  17
ATOM     17  O   UNL     1       2.880   2.356  19.169  0.00  0.00    +0.000 OA
ATOM     18  H   UNL     1       3.142   2.263  20.104  0.00  0.00    +0.000 HD
ENDBRANCH  14  17
BRANCH  15  19
ATOM     19  C   UNL     1       1.383   2.868  21.618  0.00  0.00    +0.000 C 
BRANCH  19  20
ATOM     20  O   UNL     1       2.700   2.551  22.050  0.00  0.00    +0.000 OA
ATOM     21  H   UNL     1       3.280   2.722  21.280  0.00  0.00    +0.000 HD
ENDBRANCH  19  20
ENDBRANCH  15  19
ENDBRANCH   6  12
TORSDOF 4
ENDMDL
MODEL 6
REMARK VINA RESULT:      -6.3      1.646      1.887
REMARK  Name = 
REMARK  4 active torsions:
REMARK  status: ('A' for Active; 'I' for Inactive)
REMARK    1  A    between atoms: N_6  and  C_7
REMARK    2  A    between atoms: C_9  and  O_10
REMARK    3  A    between atoms: C_11  and  C_12
REMARK    4  A    between atoms: C_12  and  O_13
REMARK                            x       y       z     vdW  Elec       q    Type
REMARK                         _______ _______ _______ _____ _____    ______ ____
ROOT
ATOM      1  N   UNL     1       7.916   5.500  14.913  0.00  0.00    +0.000 N 
ATOM      2  C   UNL     1       7.106   5.122  15.950  0.00  0.00    +0.000 A 
ATOM      3  N   UNL     1       7.506   5.502  17.127  0.00  0.00    +0.000 NA
ATOM      4  C   UNL     1       6.801   5.146  18.252  0.00  0.00    +0.000 A 
ATOM      5  O   UNL     1       7.207   5.477  19.364  0.00  0.00    +0.000 OA
ATOM      6  N   UNL     1       5.625   4.399  18.096  0.00  0.00    +0.000 N 
ATOM      7  C   UNL     1       5.193   4.007  16.842  0.00  0.00    +0.000 A 
ATOM      8  C   UNL     1       5.861   4.326  15.732  0.00  0.00    +0.000 A 
ATOM      9  I   UNL     1       5.260   3.783  13.866  0.00  0.00    +0.000 I 
ATOM     10  H   UNL     1       8.628   6.187  15.134  0.00  0.00    +0.000 HD
ATOM     11  H   UNL     1       7.589   5.457  13.958  0.00  0.00    +0.000 HD
ENDROOT
BRANCH   6  12
ATOM     12  C   UNL     1       4.845   3.992  19.274  0.00  0.00    +0.000 C 
ATOM     13  C   UNL     1       4.465   2.500  19.298  0.00  0.00    +0.000 C 
ATOM     14  C   UNL     1       3.112   2.466  20.000  0.00  0.00    +0.000 C 
ATOM     15  C   UNL     1       2.413   3.732  19.494  0.00  0.00    +0.000 C 
ATOM     16  C   UNL     1       3.533   4.782  19.468  0.00  0.00    +0.000 C 
BRANCH  14  17
ATOM     17  O   UNL     1       3.288   2.468  21.416  0.00  0.00    +0.000 OA
ATOM     18  H   UNL     1       3.088   1.578  21.760  0.00  0.00    +0.000 HD
ENDBRANCH  14  17
BRANCH  15  19
ATOM     19  C   UNL     1       1.195   4.165  20.303  0.00  0.00    +0.000 C 
BRANCH  19  20
ATOM     20  O   UNL     1       0.462   3.050  20.796  0.00  0.00    +0.000 OA
ATOM     21  H   UNL     1       0.009   2.667  20.017  0.00  0.00    +0.000 HD
ENDBRANCH  19  20
ENDBRANCH  15  19
ENDBRANCH   6  12
TORSDOF 4
ENDMDL
MODEL 7
REMARK VINA RESULT:      -6.2      5.545      6.654
REMARK  Name = 
REMARK  4 active torsions:
REMARK  status: ('A' for Active; 'I' for Inactive)
REMARK    1  A    between atoms: N_6  and  C_7
REMARK    2  A    between atoms: C_9  and  O_10
REMARK    3  A    between atoms: C_11  and  C_12
REMARK    4  A    between atoms: C_12  and  O_13
REMARK                            x       y       z     vdW  Elec       q    Type
REMARK                         _______ _______ _______ _____ _____    ______ ____
ROOT
ATOM      1  N   UNL     1       0.578  11.038  19.569  0.00  0.00    +0.000 N 
ATOM      2  C   UNL     1       1.059   9.762  19.673  0.00  0.00    +0.000 A 
ATOM      3  N   UNL     1       1.730   9.341  18.641  0.00  0.00    +0.000 NA
ATOM      4  C   UNL     1       2.227   8.060  18.607  0.00  0.00    +0.000 A 
ATOM      5  O   UNL     1       2.825   7.658  17.612  0.00  0.00    +0.000 OA
ATOM      6  N   UNL     1       2.028   7.236  19.723  0.00  0.00    +0.000 N 
ATOM      7  C   UNL     1       1.328   7.689  20.827  0.00  0.00    +0.000 A 
ATOM      8  C   UNL     1       0.821   8.922  20.885  0.00  0.00    +0.000 A 
ATOM      9  I   UNL     1      -0.206   9.638  22.488  0.00  0.00    +0.000 I 
ATOM     10  H   UNL     1       0.942  11.590  18.800  0.00  0.00    +0.000 HD
ATOM     11  H   UNL     1       0.247  11.535  20.384  0.00  0.00    +0.000 HD
ENDROOT
BRANCH   6  12
ATOM     12  C   UNL     1       2.538   5.857  19.725  0.00  0.00    +0.000 C 
ATOM     13  C   UNL     1       2.111   5.021  18.504  0.00  0.00    +0.000 C 
ATOM     14  C   UNL     1       1.986   3.601  19.043  0.00  0.00    +0.000 C 
ATOM     15  C   UNL     1       1.409   3.799  20.448  0.00  0.00    +0.000 C 
ATOM     16  C   UNL     1       2.146   5.039  20.974  0.00  0.00    +0.000 C 
BRANCH  14  17
ATOM     17  O   UNL     1       3.263   2.964  19.063  0.00  0.00    +0.000 OA
ATOM     18  H   UNL     1       3.830   3.414  19.716  0.00  0.00    +0.000 HD
ENDBRANCH  14  17
BRANCH  15  19
ATOM     19  C   UNL     1       1.521   2.590  21.370  0.00  0.00    +0.000 C 
BRANCH  19  20
ATOM     20  O   UNL     1       2.803   2.506  21.980  0.00  0.00    +0.000 OA
ATOM     21  H   UNL     1       2.831   1.630  22.416  0.00  0.00    +0.000 HD
ENDBRANCH  19  20
ENDBRANCH  15  19
ENDBRANCH   6  12
TORSDOF 4
ENDMDL
MODEL 8
REMARK VINA RESULT:      -6.2      1.734      2.791
REMARK  Name = 
REMARK  4 active torsions:
REMARK  status: ('A' for Active; 'I' for Inactive)
REMARK    1  A    between atoms: N_6  and  C_7
REMARK    2  A    between atoms: C_9  and  O_10
REMARK    3  A    between atoms: C_11  and  C_12
REMARK    4  A    between atoms: C_12  and  O_13
REMARK                            x       y       z     vdW  Elec       q    Type
REMARK                         _______ _______ _______ _____ _____    ______ ____
ROOT
ATOM      1  N   UNL     1       7.448   6.647  16.494  0.00  0.00    +0.000 N 
ATOM      2  C   UNL     1       6.411   5.813  16.811  0.00  0.00    +0.000 A 
ATOM      3  N   UNL     1       5.882   6.012  17.982  0.00  0.00    +0.000 NA
ATOM      4  C   UNL     1       4.862   5.209  18.432  0.00  0.00    +0.000 A 
ATOM      5  O   UNL     1       4.393   5.379  19.555  0.00  0.00    +0.000 OA
ATOM      6  N   UNL     1       4.381   4.199  17.586  0.00  0.00    +0.000 N 
ATOM      7  C   UNL     1       4.935   3.997  16.334  0.00  0.00    +0.000 A 
ATOM      8  C   UNL     1       5.934   4.751  15.873  0.00  0.00    +0.000 A 
ATOM      9  I   UNL     1       6.774   4.500  14.038  0.00  0.00    +0.000 I 
ATOM     10  H   UNL     1       7.577   7.446  17.105  0.00  0.00    +0.000 HD
ATOM     11  H   UNL     1       7.775   6.730  15.542  0.00  0.00    +0.000 HD
ENDROOT
BRANCH   6  12
ATOM     12  C   UNL     1       3.295   3.314  18.031  0.00  0.00    +0.000 C 
ATOM     13  C   UNL     1       1.881   3.847  17.735  0.00  0.00    +0.000 C 
ATOM     14  C   UNL     1       1.032   3.328  18.889  0.00  0.00    +0.000 C 
ATOM     15  C   UNL     1       1.971   3.422  20.096  0.00  0.00    +0.000 C 
ATOM     16  C   UNL     1       3.331   2.979  19.537  0.00  0.00    +0.000 C 
BRANCH  14  17
ATOM     17  O   UNL     1       0.608   1.990  18.632  0.00  0.00    +0.000 OA
ATOM     18  H   UNL     1       0.500   1.874  17.670  0.00  0.00    +0.000 HD
ENDBRANCH  14  17
BRANCH  15  19
ATOM     19  C   UNL     1       1.531   2.629  21.322  0.00  0.00    +0.000 C 
BRANCH  19  20
ATOM     20  O   UNL     1       2.578   2.503  22.275  0.00  0.00    +0.000 OA
ATOM     21  H   UNL     1       3.349   2.963  21.884  0.00  0.00    +0.000 HD
ENDBRANCH  19  20
ENDBRANCH  15  19
ENDBRANCH   6  12
TORSDOF 4
ENDMDL
MODEL 9
REMARK VINA RESULT:      -6.1      3.536      6.001
REMARK  Name = 
REMARK  4 active torsions:
REMARK  status: ('A' for Active; 'I' for Inactive)
REMARK    1  A    between atoms: N_6  and  C_7
REMARK    2  A    between atoms: C_9  and  O_10
REMARK    3  A    between atoms: C_11  and  C_12
REMARK    4  A    between atoms: C_12  and  O_13
REMARK                            x       y       z     vdW  Elec       q    Type
REMARK                         _______ _______ _______ _____ _____    ______ ____
ROOT
ATOM      1  N   UNL     1       0.932   6.086  20.839  0.00  0.00    +0.000 N 
ATOM      2  C   UNL     1       2.017   5.715  20.093  0.00  0.00    +0.000 A 
ATOM      3  N   UNL     1       2.489   4.533  20.359  0.00  0.00    +0.000 NA
ATOM      4  C   UNL     1       3.605   4.065  19.708  0.00  0.00    +0.000 A 
ATOM      5  O   UNL     1       4.067   2.962  19.993  0.00  0.00    +0.000 OA
ATOM      6  N   UNL     1       4.195   4.873  18.726  0.00  0.00    +0.000 N 
ATOM      7  C   UNL     1       3.684   6.124  18.433  0.00  0.00    +0.000 A 
ATOM      8  C   UNL     1       2.611   6.613  19.057  0.00  0.00    +0.000 A 
ATOM      9  I   UNL     1       1.815   8.441  18.654  0.00  0.00    +0.000 I 
ATOM     10  H   UNL     1       0.490   5.350  21.378  0.00  0.00    +0.000 HD
ATOM     11  H   UNL     1       0.358   6.871  20.564  0.00  0.00    +0.000 HD
ENDROOT
BRANCH   6  12
ATOM     12  C   UNL     1       5.393   4.412  18.010  0.00  0.00    +0.000 C 
ATOM     13  C   UNL     1       6.644   5.281  18.241  0.00  0.00    +0.000 C 
ATOM     14  C   UNL     1       7.408   5.201  16.925  0.00  0.00    +0.000 C 
ATOM     15  C   UNL     1       6.301   5.194  15.866  0.00  0.00    +0.000 C 
ATOM     16  C   UNL     1       5.213   4.301  16.481  0.00  0.00    +0.000 C 
BRANCH  14  17
ATOM     17  O   UNL     1       8.208   4.019  16.886  0.00  0.00    +0.000 OA
ATOM     18  H   UNL     1       8.814   4.073  16.124  0.00  0.00    +0.000 HD
ENDBRANCH  14  17
BRANCH  15  19
ATOM     19  C   UNL     1       6.738   4.746  14.475  0.00  0.00    +0.000 C 
BRANCH  19  20
ATOM     20  O   UNL     1       7.907   5.430  14.041  0.00  0.00    +0.000 OA
ATOM     21  H   UNL     1       8.398   4.789  13.488  0.00  0.00    +0.000 HD
ENDBRANCH  19  20
ENDBRANCH  15  19
ENDBRANCH   6  12
TORSDOF 4
ENDMDL
