MODEL 1
REMARK VINA RESULT:      -8.3      0.000      0.000
REMARK  Name = 
REMARK  8 active torsions:
REMARK  status: ('A' for Active; 'I' for Inactive)
REMARK    1  A    between atoms: C_1  and  O_2
REMARK    2  A    between atoms: O_2  and  C_3
REMARK    3  A    between atoms: C_6  and  O_7
REMARK    4  A    between atoms: O_7  and  C_8
REMARK    5  A    between atoms: C_9  and  C_10
REMARK    6  A    between atoms: C_12  and  C_13
REMARK    7  A    between atoms: C_22  and  C_23
REMARK    8  A    between atoms: C_26  and  C_27
REMARK                            x       y       z     vdW  Elec       q    Type
REMARK                         _______ _______ _______ _____ _____    ______ ____
ROOT
ATOM      1  C   UNL     1       4.227   5.402  18.411  0.00  0.00    +0.000 C 
ATOM      2  C   UNL     1       3.948   6.905  18.392  0.00  0.00    +0.000 C 
ATOM      3  C   UNL     1       2.458   6.875  18.438  0.00  0.00    +0.000 C 
ATOM      4  N   UNL     1       1.892   5.719  18.395  0.00  0.00    +0.000 NA
ATOM      5  N   UNL     1       2.902   4.791  18.320  0.00  0.00    +0.000 N 
ATOM      6  C   UNL     1       2.691   3.446  18.577  0.00  0.00    +0.000 C 
ATOM      7  C   UNL     1       1.250   2.981  18.688  0.00  0.00    +0.000 C 
ATOM      8  O   UNL     1       3.601   2.630  18.769  0.00  0.00    +0.000 OA
ENDROOT
BRANCH   3   9
ATOM      9  C   UNL     1       1.696   8.125  18.648  0.00  0.00    +0.000 A 
ATOM     10  C   UNL     1       1.039   8.812  17.650  0.00  0.00    +0.000 A 
ATOM     11  C   UNL     1       0.356   9.951  18.069  0.00  0.00    +0.000 A 
ATOM     12  C   UNL     1      -1.019  10.159  17.922  0.00  0.00    +0.000 A 
ATOM     13  C   UNL     1      -1.594  11.302  18.481  0.00  0.00    +0.000 A 
ATOM     14  C   UNL     1      -0.755  12.313  18.945  0.00  0.00    +0.000 A 
ATOM     15  C   UNL     1       0.580  12.014  19.177  0.00  0.00    +0.000 A 
ATOM     16  C   UNL     1       0.954  10.691  19.065  0.00  0.00    +0.000 A 
ATOM     17  N   UNL     1       1.537  10.013  20.067  0.00  0.00    +0.000 NA
ATOM     18  C   UNL     1       1.610   8.665  19.919  0.00  0.00    +0.000 A 
ATOM     19  C   UNL     1       0.961   7.805  20.995  0.00  0.00    +0.000 C 
ENDBRANCH   3   9
BRANCH   1  24
ATOM     20  C   UNL     1       5.630   4.475  15.006  0.00  0.00    +0.000 A 
ATOM     21  C   UNL     1       6.975   4.251  15.284  0.00  0.00    +0.000 A 
ATOM     22  C   UNL     1       7.467   4.393  16.582  0.00  0.00    +0.000 A 
ATOM     23  C   UNL     1       6.617   4.752  17.638  0.00  0.00    +0.000 A 
ATOM     24  C   UNL     1       5.267   5.031  17.366  0.00  0.00    +0.000 A 
ATOM     25  C   UNL     1       4.790   4.872  16.042  0.00  0.00    +0.000 A 
BRANCH  20  27
ATOM     26  C   UNL     1       6.193   3.578  12.881  0.00  0.00    +0.000 C 
ATOM     27  O   UNL     1       5.260   4.263  13.708  0.00  0.00    +0.000 OA
ENDBRANCH  20  27
BRANCH  23  28
ATOM     28  O   UNL     1       7.029   4.852  18.939  0.00  0.00    +0.000 OA
ATOM     29  C   UNL     1       7.903   5.926  19.268  0.00  0.00    +0.000 C 
ENDBRANCH  23  28
ENDBRANCH   1  24
TORSDOF 4
ENDMDL
MODEL 2
REMARK VINA RESULT:      -7.8      1.026      1.661
REMARK  Name = 
REMARK  8 active torsions:
REMARK  status: ('A' for Active; 'I' for Inactive)
REMARK    1  A    between atoms: C_1  and  O_2
REMARK    2  A    between atoms: O_2  and  C_3
REMARK    3  A    between atoms: C_6  and  O_7
REMARK    4  A    between atoms: O_7  and  C_8
REMARK    5  A    between atoms: C_9  and  C_10
REMARK    6  A    between atoms: C_12  and  C_13
REMARK    7  A    between atoms: C_22  and  C_23
REMARK    8  A    between atoms: C_26  and  C_27
REMARK                            x       y       z     vdW  Elec       q    Type
REMARK                         _______ _______ _______ _____ _____    ______ ____
ROOT
ATOM      1  C   UNL     1       4.201   5.201  18.664  0.00  0.00    +0.000 C 
ATOM      2  C   UNL     1       3.957   6.703  18.812  0.00  0.00    +0.000 C 
ATOM      3  C   UNL     1       2.467   6.705  18.838  0.00  0.00    +0.000 C 
ATOM      4  N   UNL     1       1.875   5.575  18.659  0.00  0.00    +0.000 NA
ATOM      5  N   UNL     1       2.863   4.637  18.491  0.00  0.00    +0.000 N 
ATOM      6  C   UNL     1       2.617   3.277  18.592  0.00  0.00    +0.000 C 
ATOM      7  C   UNL     1       1.165   2.839  18.634  0.00  0.00    +0.000 C 
ATOM      8  O   UNL     1       3.505   2.422  18.700  0.00  0.00    +0.000 OA
ENDROOT
BRANCH   3   9
ATOM      9  C   UNL     1       1.732   7.942  19.180  0.00  0.00    +0.000 A 
ATOM     10  C   UNL     1       1.229   8.226  20.432  0.00  0.00    +0.000 A 
ATOM     11  C   UNL     1       0.595   9.460  20.547  0.00  0.00    +0.000 A 
ATOM     12  C   UNL     1       0.980  10.479  21.424  0.00  0.00    +0.000 A 
ATOM     13  C   UNL     1       0.320  11.708  21.363  0.00  0.00    +0.000 A 
ATOM     14  C   UNL     1      -0.852  11.801  20.616  0.00  0.00    +0.000 A 
ATOM     15  C   UNL     1      -1.124  10.814  19.681  0.00  0.00    +0.000 A 
ATOM     16  C   UNL     1      -0.137   9.875  19.456  0.00  0.00    +0.000 A 
ATOM     17  N   UNL     1       0.390   9.652  18.242  0.00  0.00    +0.000 NA
ATOM     18  C   UNL     1       1.522   8.902  18.206  0.00  0.00    +0.000 A 
ATOM     19  C   UNL     1       2.757   9.527  17.572  0.00  0.00    +0.000 C 
ENDBRANCH   3   9
BRANCH   1  24
ATOM     20  C   UNL     1       5.608   4.479  15.212  0.00  0.00    +0.000 A 
ATOM     21  C   UNL     1       6.966   4.313  15.467  0.00  0.00    +0.000 A 
ATOM     22  C   UNL     1       7.465   4.430  16.765  0.00  0.00    +0.000 A 
ATOM     23  C   UNL     1       6.611   4.703  17.843  0.00  0.00    +0.000 A 
ATOM     24  C   UNL     1       5.246   4.924  17.595  0.00  0.00    +0.000 A 
ATOM     25  C   UNL     1       4.762   4.793  16.271  0.00  0.00    +0.000 A 
BRANCH  20  27
ATOM     26  C   UNL     1       6.170   3.647  13.060  0.00  0.00    +0.000 C 
ATOM     27  O   UNL     1       5.234   4.300  13.910  0.00  0.00    +0.000 OA
ENDBRANCH  20  27
BRANCH  23  28
ATOM     28  O   UNL     1       7.033   4.773  19.142  0.00  0.00    +0.000 OA
ATOM     29  C   UNL     1       7.902   5.846  19.491  0.00  0.00    +0.000 C 
ENDBRANCH  23  28
ENDBRANCH   1  24
TORSDOF 4
ENDMDL
MODEL 3
REMARK VINA RESULT:      -7.5      3.530      8.308
REMARK  Name = 
REMARK  8 active torsions:
REMARK  status: ('A' for Active; 'I' for Inactive)
REMARK    1  A    between atoms: C_1  and  O_2
REMARK    2  A    between atoms: O_2  and  C_3
REMARK    3  A    between atoms: C_6  and  O_7
REMARK    4  A    between atoms: O_7  and  C_8
REMARK    5  A    between atoms: C_9  and  C_10
REMARK    6  A    between atoms: C_12  and  C_13
REMARK    7  A    between atoms: C_22  and  C_23
REMARK    8  A    between atoms: C_26  and  C_27
REMARK                            x       y       z     vdW  Elec       q    Type
REMARK                         _______ _______ _______ _____ _____    ______ ____
ROOT
ATOM      1  C   UNL     1       0.589   9.807  18.783  0.00  0.00    +0.000 C 
ATOM      2  C   UNL     1       1.552   9.134  17.804  0.00  0.00    +0.000 C 
ATOM      3  C   UNL     1       2.221   8.183  18.737  0.00  0.00    +0.000 C 
ATOM      4  N   UNL     1       1.894   8.254  19.982  0.00  0.00    +0.000 NA
ATOM      5  N   UNL     1       0.956   9.253  20.084  0.00  0.00    +0.000 N 
ATOM      6  C   UNL     1       0.151   9.398  21.203  0.00  0.00    +0.000 C 
ATOM      7  C   UNL     1       0.514   8.580  22.428  0.00  0.00    +0.000 C 
ATOM      8  O   UNL     1      -0.862  10.109  21.234  0.00  0.00    +0.000 OA
ENDROOT
BRANCH   3   9
ATOM      9  C   UNL     1       3.120   7.134  18.212  0.00  0.00    +0.000 A 
ATOM     10  C   UNL     1       4.234   7.381  17.438  0.00  0.00    +0.000 A 
ATOM     11  C   UNL     1       4.961   6.252  17.071  0.00  0.00    +0.000 A 
ATOM     12  C   UNL     1       6.304   6.027  17.390  0.00  0.00    +0.000 A 
ATOM     13  C   UNL     1       6.883   4.803  17.050  0.00  0.00    +0.000 A 
ATOM     14  C   UNL     1       6.190   3.950  16.194  0.00  0.00    +0.000 A 
ATOM     15  C   UNL     1       4.832   4.159  16.004  0.00  0.00    +0.000 A 
ATOM     16  C   UNL     1       4.229   5.118  16.793  0.00  0.00    +0.000 A 
ATOM     17  N   UNL     1       3.184   4.850  17.592  0.00  0.00    +0.000 NA
ATOM     18  C   UNL     1       2.862   5.806  18.501  0.00  0.00    +0.000 A 
ATOM     19  C   UNL     1       2.860   5.405  19.970  0.00  0.00    +0.000 C 
ENDBRANCH   3   9
BRANCH   1  24
ATOM     20  C   UNL     1       2.025  13.316  18.590  0.00  0.00    +0.000 A 
ATOM     21  C   UNL     1       0.889  14.100  18.417  0.00  0.00    +0.000 A 
ATOM     22  C   UNL     1      -0.377  13.514  18.358  0.00  0.00    +0.000 A 
ATOM     23  C   UNL     1      -0.534  12.127  18.485  0.00  0.00    +0.000 A 
ATOM     24  C   UNL     1       0.608  11.317  18.609  0.00  0.00    +0.000 A 
ATOM     25  C   UNL     1       1.880  11.935  18.674  0.00  0.00    +0.000 A 
BRANCH  20  27
ATOM     26  C   UNL     1       3.327  15.157  17.845  0.00  0.00    +0.000 C 
ATOM     27  O   UNL     1       3.201  14.007  18.673  0.00  0.00    +0.000 OA
ENDBRANCH  20  27
BRANCH  23  28
ATOM     28  O   UNL     1      -1.751  11.502  18.492  0.00  0.00    +0.000 OA
ATOM     29  C   UNL     1      -2.479  11.473  17.268  0.00  0.00    +0.000 C 
ENDBRANCH  23  28
ENDBRANCH   1  24
TORSDOF 4
ENDMDL
MODEL 4
REMARK VINA RESULT:      -7.3      4.850     10.052
REMARK  Name = 
REMARK  8 active torsions:
REMARK  status: ('A' for Active; 'I' for Inactive)
REMARK    1  A    between atoms: C_1  and  O_2
REMARK    2  A    between atoms: O_2  and  C_3
REMARK    3  A    between atoms: C_6  and  O_7
REMARK    4  A    between atoms: O_7  and  C_8
REMARK    5  A    between atoms: C_9  and  C_10
REMARK    6  A    between atoms: C_12  and  C_13
REMARK    7  A    between atoms: C_22  and  C_23
REMARK    8  A    between atoms: C_26  and  C_27
REMARK                            x       y       z     vdW  Elec       q    Type
REMARK                         _______ _______ _______ _____ _____    ______ ____
ROOT
ATOM      1  C   UNL     1      -0.330  11.594  21.799  0.00  0.00    +0.000 C 
ATOM      2  C   UNL     1      -0.292  10.186  21.205  0.00  0.00    +0.000 C 
ATOM      3  C   UNL     1       0.827  10.361  20.237  0.00  0.00    +0.000 C 
ATOM      4  N   UNL     1       1.329  11.543  20.126  0.00  0.00    +0.000 NA
ATOM      5  N   UNL     1       0.637  12.346  21.000  0.00  0.00    +0.000 N 
ATOM      6  C   UNL     1       1.102  13.593  21.384  0.00  0.00    +0.000 C 
ATOM      7  C   UNL     1       2.274  14.164  20.608  0.00  0.00    +0.000 C 
ATOM      8  O   UNL     1       0.651  14.230  22.345  0.00  0.00    +0.000 OA
ENDROOT
BRANCH   3   9
ATOM      9  C   UNL     1       1.398   9.189  19.541  0.00  0.00    +0.000 A 
ATOM     10  C   UNL     1       1.901   8.075  20.179  0.00  0.00    +0.000 A 
ATOM     11  C   UNL     1       2.364   7.069  19.334  0.00  0.00    +0.000 A 
ATOM     12  C   UNL     1       1.874   5.760  19.304  0.00  0.00    +0.000 A 
ATOM     13  C   UNL     1       2.357   4.879  18.335  0.00  0.00    +0.000 A 
ATOM     14  C   UNL     1       3.479   5.249  17.596  0.00  0.00    +0.000 A 
ATOM     15  C   UNL     1       3.851   6.585  17.576  0.00  0.00    +0.000 A 
ATOM     16  C   UNL     1       2.995   7.483  18.181  0.00  0.00    +0.000 A 
ATOM     17  N   UNL     1       2.460   8.529  17.531  0.00  0.00    +0.000 NA
ATOM     18  C   UNL     1       1.441   9.170  18.158  0.00  0.00    +0.000 A 
ATOM     19  C   UNL     1       0.111   9.260  17.423  0.00  0.00    +0.000 C 
ENDBRANCH   3   9
BRANCH   1  24
ATOM     20  C   UNL     1      -3.723  12.355  23.323  0.00  0.00    +0.000 A 
ATOM     21  C   UNL     1      -4.424  12.895  22.249  0.00  0.00    +0.000 A 
ATOM     22  C   UNL     1      -3.817  13.029  20.999  0.00  0.00    +0.000 A 
ATOM     23  C   UNL     1      -2.495  12.611  20.793  0.00  0.00    +0.000 A 
ATOM     24  C   UNL     1      -1.758  12.110  21.879  0.00  0.00    +0.000 A 
ATOM     25  C   UNL     1      -2.398  11.977  23.136  0.00  0.00    +0.000 A 
BRANCH  20  27
ATOM     26  C   UNL     1      -5.813  12.590  24.425  0.00  0.00    +0.000 C 
ATOM     27  O   UNL     1      -4.436  12.237  24.483  0.00  0.00    +0.000 OA
ENDBRANCH  20  27
BRANCH  23  28
ATOM     28  O   UNL     1      -1.866  12.665  19.579  0.00  0.00    +0.000 OA
ATOM     29  C   UNL     1      -2.333  11.786  18.561  0.00  0.00    +0.000 C 
ENDBRANCH  23  28
ENDBRANCH   1  24
TORSDOF 4
ENDMDL
MODEL 5
REMARK VINA RESULT:      -7.2      3.902      8.745
REMARK  Name = 
REMARK  8 active torsions:
REMARK  status: ('A' for Active; 'I' for Inactive)
REMARK    1  A    between atoms: C_1  and  O_2
REMARK    2  A    between atoms: O_2  and  C_3
REMARK    3  A    between atoms: C_6  and  O_7
REMARK    4  A    between atoms: O_7  and  C_8
REMARK    5  A    between atoms: C_9  and  C_10
REMARK    6  A    between atoms: C_12  and  C_13
REMARK    7  A    between atoms: C_22  and  C_23
REMARK    8  A    between atoms: C_26  and  C_27
REMARK                            x       y       z     vdW  Elec       q    Type
REMARK                         _______ _______ _______ _____ _____    ______ ____
ROOT
ATOM      1  C   UNL     1       0.182  10.665  19.501  0.00  0.00    +0.000 C 
ATOM      2  C   UNL     1       0.398   9.156  19.392  0.00  0.00    +0.000 C 
ATOM      3  C   UNL     1       1.664   9.148  18.605  0.00  0.00    +0.000 C 
ATOM      4  N   UNL     1       2.116  10.288  18.210  0.00  0.00    +0.000 NA
ATOM      5  N   UNL     1       1.238  11.238  18.669  0.00  0.00    +0.000 N 
ATOM      6  C   UNL     1       1.562  12.585  18.711  0.00  0.00    +0.000 C 
ATOM      7  C   UNL     1       2.825  13.016  17.988  0.00  0.00    +0.000 C 
ATOM      8  O   UNL     1       0.913  13.430  19.341  0.00  0.00    +0.000 OA
ENDROOT
BRANCH   3   9
ATOM      9  C   UNL     1       2.410   7.887  18.410  0.00  0.00    +0.000 A 
ATOM     10  C   UNL     1       3.466   7.735  17.536  0.00  0.00    +0.000 A 
ATOM     11  C   UNL     1       4.048   6.471  17.527  0.00  0.00    +0.000 A 
ATOM     12  C   UNL     1       5.388   6.205  17.827  0.00  0.00    +0.000 A 
ATOM     13  C   UNL     1       5.817   4.877  17.883  0.00  0.00    +0.000 A 
ATOM     14  C   UNL     1       4.972   3.881  17.400  0.00  0.00    +0.000 A 
ATOM     15  C   UNL     1       3.628   4.175  17.228  0.00  0.00    +0.000 A 
ATOM     16  C   UNL     1       3.192   5.403  17.684  0.00  0.00    +0.000 A 
ATOM     17  N   UNL     1       2.205   5.535  18.584  0.00  0.00    +0.000 NA
ATOM     18  C   UNL     1       2.057   6.765  19.140  0.00  0.00    +0.000 A 
ATOM     19  C   UNL     1       2.153   6.867  20.655  0.00  0.00    +0.000 C 
ENDBRANCH   3   9
BRANCH   1  24
ATOM     20  C   UNL     1      -3.088  10.789  17.576  0.00  0.00    +0.000 A 
ATOM     21  C   UNL     1      -3.867  11.638  18.356  0.00  0.00    +0.000 A 
ATOM     22  C   UNL     1      -3.355  12.196  19.529  0.00  0.00    +0.000 A 
ATOM     23  C   UNL     1      -2.043  11.925  19.941  0.00  0.00    +0.000 A 
ATOM     24  C   UNL     1      -1.261  11.030  19.192  0.00  0.00    +0.000 A 
ATOM     25  C   UNL     1      -1.800  10.483  18.002  0.00  0.00    +0.000 A 
BRANCH  20  27
ATOM     26  C   UNL     1      -3.135  10.799  15.202  0.00  0.00    +0.000 C 
ATOM     27  O   UNL     1      -3.684  10.340  16.432  0.00  0.00    +0.000 OA
ENDBRANCH  20  27
BRANCH  23  28
ATOM     28  O   UNL     1      -1.468  12.485  21.049  0.00  0.00    +0.000 OA
ATOM     29  C   UNL     1      -2.136  12.308  22.294  0.00  0.00    +0.000 C 
ENDBRANCH  23  28
ENDBRANCH   1  24
TORSDOF 4
ENDMDL
MODEL 6
REMARK VINA RESULT:      -7.0      1.396      2.051
REMARK  Name = 
REMARK  8 active torsions:
REMARK  status: ('A' for Active; 'I' for Inactive)
REMARK    1  A    between atoms: C_1  and  O_2
REMARK    2  A    between atoms: O_2  and  C_3
REMARK    3  A    between atoms: C_6  and  O_7
REMARK    4  A    between atoms: O_7  and  C_8
REMARK    5  A    between atoms: C_9  and  C_10
REMARK    6  A    between atoms: C_12  and  C_13
REMARK    7  A    between atoms: C_22  and  C_23
REMARK    8  A    between atoms: C_26  and  C_27
REMARK                            x       y       z     vdW  Elec       q    Type
REMARK                         _______ _______ _______ _____ _____    ______ ____
ROOT
ATOM      1  C   UNL     1       4.445   6.036  18.250  0.00  0.00    +0.000 C 
ATOM      2  C   UNL     1       3.761   7.331  17.812  0.00  0.00    +0.000 C 
ATOM      3  C   UNL     1       2.540   7.260  18.664  0.00  0.00    +0.000 C 
ATOM      4  N   UNL     1       2.385   6.202  19.382  0.00  0.00    +0.000 NA
ATOM      5  N   UNL     1       3.471   5.398  19.134  0.00  0.00    +0.000 N 
ATOM      6  C   UNL     1       3.806   4.334  19.955  0.00  0.00    +0.000 C 
ATOM      7  C   UNL     1       2.785   3.916  20.997  0.00  0.00    +0.000 C 
ATOM      8  O   UNL     1       4.898   3.752  19.918  0.00  0.00    +0.000 OA
ENDROOT
BRANCH   3   9
ATOM      9  C   UNL     1       1.630   8.422  18.757  0.00  0.00    +0.000 A 
ATOM     10  C   UNL     1       0.967   8.977  17.683  0.00  0.00    +0.000 A 
ATOM     11  C   UNL     1       0.133  10.049  17.994  0.00  0.00    +0.000 A 
ATOM     12  C   UNL     1      -1.244  10.088  17.754  0.00  0.00    +0.000 A 
ATOM     13  C   UNL     1      -1.979  11.183  18.211  0.00  0.00    +0.000 A 
ATOM     14  C   UNL     1      -1.291  12.307  18.664  0.00  0.00    +0.000 A 
ATOM     15  C   UNL     1       0.050  12.178  18.993  0.00  0.00    +0.000 A 
ATOM     16  C   UNL     1       0.578  10.902  18.980  0.00  0.00    +0.000 A 
ATOM     17  N   UNL     1       1.166  10.348  20.052  0.00  0.00    +0.000 NA
ATOM     18  C   UNL     1       1.400   9.012  19.987  0.00  0.00    +0.000 A 
ATOM     19  C   UNL     1       0.782   8.138  21.069  0.00  0.00    +0.000 C 
ENDBRANCH   3   9
BRANCH   1  24
ATOM     20  C   UNL     1       6.681   5.135  15.317  0.00  0.00    +0.000 A 
ATOM     21  C   UNL     1       6.023   4.045  14.757  0.00  0.00    +0.000 A 
ATOM     22  C   UNL     1       4.834   3.570  15.313  0.00  0.00    +0.000 A 
ATOM     23  C   UNL     1       4.270   4.186  16.439  0.00  0.00    +0.000 A 
ATOM     24  C   UNL     1       4.949   5.256  17.046  0.00  0.00    +0.000 A 
ATOM     25  C   UNL     1       6.149   5.725  16.458  0.00  0.00    +0.000 A 
BRANCH  20  27
ATOM     26  C   UNL     1       7.860   5.278  13.260  0.00  0.00    +0.000 C 
ATOM     27  O   UNL     1       7.811   5.532  14.659  0.00  0.00    +0.000 OA
ENDBRANCH  20  27
BRANCH  23  28
ATOM     28  O   UNL     1       3.080   3.802  16.994  0.00  0.00    +0.000 OA
ATOM     29  C   UNL     1       2.892   2.413  17.243  0.00  0.00    +0.000 C 
ENDBRANCH  23  28
ENDBRANCH   1  24
TORSDOF 4
ENDMDL
MODEL 7
REMARK VINA RESULT:      -7.0      4.103      8.376
REMARK  Name = 
REMARK  8 active torsions:
REMARK  status: ('A' for Active; 'I' for Inactive)
REMARK    1  A    between atoms: C_1  and  O_2
REMARK    2  A    between atoms: O_2  and  C_3
REMARK    3  A    between atoms: C_6  and  O_7
REMARK    4  A    between atoms: O_7  and  C_8
REMARK    5  A    between atoms: C_9  and  C_10
REMARK    6  A    between atoms: C_12  and  C_13
REMARK    7  A    between atoms: C_22  and  C_23
REMARK    8  A    between atoms: C_26  and  C_27
REMARK                            x       y       z     vdW  Elec       q    Type
REMARK                         _______ _______ _______ _____ _____    ______ ____
ROOT
ATOM      1  C   UNL     1       0.182  10.079  19.661  0.00  0.00    +0.000 C 
ATOM      2  C   UNL     1       0.929   9.080  18.777  0.00  0.00    +0.000 C 
ATOM      3  C   UNL     1       1.474   8.182  19.834  0.00  0.00    +0.000 C 
ATOM      4  N   UNL     1       1.258   8.517  21.059  0.00  0.00    +0.000 NA
ATOM      5  N   UNL     1       0.533   9.684  21.023  0.00  0.00    +0.000 N 
ATOM      6  C   UNL     1      -0.147  10.165  22.131  0.00  0.00    +0.000 C 
ATOM      7  C   UNL     1       0.145   9.502  23.464  0.00  0.00    +0.000 C 
ATOM      8  O   UNL     1      -1.004  11.056  22.078  0.00  0.00    +0.000 OA
ENDROOT
BRANCH   3   9
ATOM      9  C   UNL     1       2.120   6.905  19.463  0.00  0.00    +0.000 A 
ATOM     10  C   UNL     1       1.569   5.661  19.685  0.00  0.00    +0.000 A 
ATOM     11  C   UNL     1       2.331   4.587  19.231  0.00  0.00    +0.000 A 
ATOM     12  C   UNL     1       1.908   3.648  18.286  0.00  0.00    +0.000 A 
ATOM     13  C   UNL     1       2.812   2.681  17.842  0.00  0.00    +0.000 A 
ATOM     14  C   UNL     1       4.015   2.527  18.527  0.00  0.00    +0.000 A 
ATOM     15  C   UNL     1       4.437   3.546  19.368  0.00  0.00    +0.000 A 
ATOM     16  C   UNL     1       3.698   4.712  19.358  0.00  0.00    +0.000 A 
ATOM     17  N   UNL     1       4.234   5.910  19.078  0.00  0.00    +0.000 NA
ATOM     18  C   UNL     1       3.358   6.922  18.844  0.00  0.00    +0.000 A 
ATOM     19  C   UNL     1       3.452   7.635  17.503  0.00  0.00    +0.000 C 
ENDBRANCH   3   9
BRANCH   1  24
ATOM     20  C   UNL     1       2.197  13.237  19.036  0.00  0.00    +0.000 A 
ATOM     21  C   UNL     1       1.229  14.128  18.583  0.00  0.00    +0.000 A 
ATOM     22  C   UNL     1      -0.104  13.733  18.466  0.00  0.00    +0.000 A 
ATOM     23  C   UNL     1      -0.502  12.435  18.815  0.00  0.00    +0.000 A 
ATOM     24  C   UNL     1       0.470  11.508  19.226  0.00  0.00    +0.000 A 
ATOM     25  C   UNL     1       1.815  11.935  19.344  0.00  0.00    +0.000 A 
BRANCH  20  27
ATOM     26  C   UNL     1       3.825  14.751  18.202  0.00  0.00    +0.000 C 
ATOM     27  O   UNL     1       3.457  13.752  19.146  0.00  0.00    +0.000 OA
ENDBRANCH  20  27
BRANCH  23  28
ATOM     28  O   UNL     1      -1.801  12.007  18.776  0.00  0.00    +0.000 OA
ATOM     29  C   UNL     1      -2.303  11.551  17.524  0.00  0.00    +0.000 C 
ENDBRANCH  23  28
ENDBRANCH   1  24
TORSDOF 4
ENDMDL
MODEL 8
REMARK VINA RESULT:      -7.0      3.953      8.797
REMARK  Name = 
REMARK  8 active torsions:
REMARK  status: ('A' for Active; 'I' for Inactive)
REMARK    1  A    between atoms: C_1  and  O_2
REMARK    2  A    between atoms: O_2  and  C_3
REMARK    3  A    between atoms: C_6  and  O_7
REMARK    4  A    between atoms: O_7  and  C_8
REMARK    5  A    between atoms: C_9  and  C_10
REMARK    6  A    between atoms: C_12  and  C_13
REMARK    7  A    between atoms: C_22  and  C_23
REMARK    8  A    between atoms: C_26  and  C_27
REMARK                            x       y       z     vdW  Elec       q    Type
REMARK                         _______ _______ _______ _____ _____    ______ ____
ROOT
ATOM      1  C   UNL     1       0.665  11.148  18.669  0.00  0.00    +0.000 C 
ATOM      2  C   UNL     1       1.900  10.287  18.933  0.00  0.00    +0.000 C 
ATOM      3  C   UNL     1       1.454   9.020  18.288  0.00  0.00    +0.000 C 
ATOM      4  N   UNL     1       0.253   8.989  17.822  0.00  0.00    +0.000 NA
ATOM      5  N   UNL     1      -0.296  10.222  18.072  0.00  0.00    +0.000 N 
ATOM      6  C   UNL     1      -1.448  10.661  17.438  0.00  0.00    +0.000 C 
ATOM      7  C   UNL     1      -2.238   9.632  16.651  0.00  0.00    +0.000 C 
ATOM      8  O   UNL     1      -1.828  11.838  17.439  0.00  0.00    +0.000 OA
ENDROOT
BRANCH   3   9
ATOM      9  C   UNL     1       2.410   7.908  18.095  0.00  0.00    +0.000 A 
ATOM     10  C   UNL     1       3.510   7.964  17.266  0.00  0.00    +0.000 A 
ATOM     11  C   UNL     1       4.298   6.816  17.252  0.00  0.00    +0.000 A 
ATOM     12  C   UNL     1       5.650   6.768  17.605  0.00  0.00    +0.000 A 
ATOM     13  C   UNL     1       6.294   5.531  17.647  0.00  0.00    +0.000 A 
ATOM     14  C   UNL     1       5.650   4.423  17.101  0.00  0.00    +0.000 A 
ATOM     15  C   UNL     1       4.283   4.493  16.876  0.00  0.00    +0.000 A 
ATOM     16  C   UNL     1       3.629   5.615  17.343  0.00  0.00    +0.000 A 
ATOM     17  N   UNL     1       2.597   5.551  18.201  0.00  0.00    +0.000 NA
ATOM     18  C   UNL     1       2.222   6.720  18.779  0.00  0.00    +0.000 A 
ATOM     19  C   UNL     1       2.239   6.788  20.300  0.00  0.00    +0.000 C 
ENDBRANCH   3   9
BRANCH   1  24
ATOM     20  C   UNL     1      -0.507  11.684  22.241  0.00  0.00    +0.000 A 
ATOM     21  C   UNL     1      -0.624  13.068  22.317  0.00  0.00    +0.000 A 
ATOM     22  C   UNL     1      -0.326  13.869  21.213  0.00  0.00    +0.000 A 
ATOM     23  C   UNL     1       0.083  13.298  20.000  0.00  0.00    +0.000 A 
ATOM     24  C   UNL     1       0.255  11.906  19.922  0.00  0.00    +0.000 A 
ATOM     25  C   UNL     1      -0.060  11.114  21.053  0.00  0.00    +0.000 A 
BRANCH  20  27
ATOM     26  C   UNL     1      -0.468   9.643  23.454  0.00  0.00    +0.000 C 
ATOM     27  O   UNL     1      -0.865  11.006  23.372  0.00  0.00    +0.000 OA
ENDBRANCH  20  27
BRANCH  23  28
ATOM     28  O   UNL     1       0.334  14.026  18.869  0.00  0.00    +0.000 OA
ATOM     29  C   UNL     1      -0.147  15.366  18.833  0.00  0.00    +0.000 C 
ENDBRANCH  23  28
ENDBRANCH   1  24
TORSDOF 4
ENDMDL
MODEL 9
REMARK VINA RESULT:      -6.9      3.912      7.176
REMARK  Name = 
REMARK  8 active torsions:
REMARK  status: ('A' for Active; 'I' for Inactive)
REMARK    1  A    between atoms: C_1  and  O_2
REMARK    2  A    between atoms: O_2  and  C_3
REMARK    3  A    between atoms: C_6  and  O_7
REMARK    4  A    between atoms: O_7  and  C_8
REMARK    5  A    between atoms: C_9  and  C_10
REMARK    6  A    between atoms: C_12  and  C_13
REMARK    7  A    between atoms: C_22  and  C_23
REMARK    8  A    between atoms: C_26  and  C_27
REMARK                            x       y       z     vdW  Elec       q    Type
REMARK                         _______ _______ _______ _____ _____    ______ ____
ROOT
ATOM      1  C   UNL     1       0.223  10.430  18.211  0.00  0.00    +0.000 C 
ATOM      2  C   UNL     1      -1.272  10.133  18.324  0.00  0.00    +0.000 C 
ATOM      3  C   UNL     1      -1.744  11.453  18.830  0.00  0.00    +0.000 C 
ATOM      4  N   UNL     1      -0.845  12.339  19.084  0.00  0.00    +0.000 NA
ATOM      5  N   UNL     1       0.367  11.766  18.786  0.00  0.00    +0.000 N 
ATOM      6  C   UNL     1       1.522  12.515  18.632  0.00  0.00    +0.000 C 
ATOM      7  C   UNL     1       1.466  13.969  19.061  0.00  0.00    +0.000 C 
ATOM      8  O   UNL     1       2.562  12.080  18.122  0.00  0.00    +0.000 OA
ENDROOT
BRANCH   3   9
ATOM      9  C   UNL     1      -3.191  11.744  18.909  0.00  0.00    +0.000 A 
ATOM     10  C   UNL     1      -3.766  12.580  19.843  0.00  0.00    +0.000 A 
ATOM     11  C   UNL     1      -5.144  12.741  19.723  0.00  0.00    +0.000 A 
ATOM     12  C   UNL     1      -5.791  13.962  19.509  0.00  0.00    +0.000 A 
ATOM     13  C   UNL     1      -7.172  13.968  19.303  0.00  0.00    +0.000 A 
ATOM     14  C   UNL     1      -7.891  12.803  19.560  0.00  0.00    +0.000 A 
ATOM     15  C   UNL     1      -7.202  11.603  19.651  0.00  0.00    +0.000 A 
ATOM     16  C   UNL     1      -5.858  11.627  19.338  0.00  0.00    +0.000 A 
ATOM     17  N   UNL     1      -5.320  10.854  18.381  0.00  0.00    +0.000 NA
ATOM     18  C   UNL     1      -4.055  11.164  17.997  0.00  0.00    +0.000 A 
ATOM     19  C   UNL     1      -3.827  11.484  16.527  0.00  0.00    +0.000 C 
ENDBRANCH   3   9
BRANCH   1  24
ATOM     20  C   UNL     1       2.625   7.490  18.295  0.00  0.00    +0.000 A 
ATOM     21  C   UNL     1       2.581   7.101  19.630  0.00  0.00    +0.000 A 
ATOM     22  C   UNL     1       1.771   7.779  20.542  0.00  0.00    +0.000 A 
ATOM     23  C   UNL     1       0.975   8.858  20.134  0.00  0.00    +0.000 A 
ATOM     24  C   UNL     1       1.047   9.296  18.801  0.00  0.00    +0.000 A 
ATOM     25  C   UNL     1       1.870   8.587  17.892  0.00  0.00    +0.000 A 
BRANCH  20  27
ATOM     26  C   UNL     1       3.734   5.418  17.960  0.00  0.00    +0.000 C 
ATOM     27  O   UNL     1       3.422   6.724  17.491  0.00  0.00    +0.000 OA
ENDBRANCH  20  27
BRANCH  23  28
ATOM     28  O   UNL     1       0.120   9.525  20.968  0.00  0.00    +0.000 OA
ATOM     29  C   UNL     1       0.229   9.261  22.363  0.00  0.00    +0.000 C 
ENDBRANCH  23  28
ENDBRANCH   1  24
TORSDOF 4
ENDMDL
