MODEL 1
REMARK VINA RESULT:      -6.9      0.000      0.000
REMARK  Name = 
REMARK  2 active torsions:
REMARK  status: ('A' for Active; 'I' for Inactive)
REMARK    1  A    between atoms: C_1  and  C_2
REMARK    2  A    between atoms: C_10  and  N_11
REMARK                            x       y       z     vdW  Elec       q    Type
REMARK                         _______ _______ _______ _____ _____    ______ ____
ROOT
ATOM      1  C   UNL     1       4.980   3.366  11.948  0.00  0.00    +0.000 C 
ATOM      2  C   UNL     1       5.519   3.838  13.266  0.00  0.00    +0.000 A 
ATOM      3  C   UNL     1       6.752   4.475  13.345  0.00  0.00    +0.000 A 
ATOM      4  C   UNL     1       7.220   4.876  14.592  0.00  0.00    +0.000 A 
ATOM      5  C   UNL     1       6.442   4.636  15.728  0.00  0.00    +0.000 A 
ATOM      6  C   UNL     1       5.220   4.020  15.571  0.00  0.00    +0.000 A 
ATOM      7  N   UNL     1       4.750   3.612  14.359  0.00  0.00    +0.000 NA
ATOM      8  C   UNL     1       4.337   3.776  16.742  0.00  0.00    +0.000 C 
ATOM      9  O   UNL     1       3.280   3.164  16.621  0.00  0.00    +0.000 OA
ATOM     10  C   UNL     1       4.784   4.302  18.089  0.00  0.00    +0.000 C 
ATOM     11  C   UNL     1       6.009   4.852  18.201  0.00  0.00    +0.000 C 
ATOM     12 CL   UNL     1       6.589   5.470  19.717  0.00  0.00    +0.000 Cl
ATOM     13  C   UNL     1       6.924   5.032  17.051  0.00  0.00    +0.000 C 
ATOM     14  O   UNL     1       8.049   5.512  17.161  0.00  0.00    +0.000 OA
ENDROOT
BRANCH  10  15
ATOM     15  N   UNL     1       3.879   4.208  19.164  0.00  0.00    +0.000 N 
ATOM     16  C   UNL     1       3.932   3.073  20.097  0.00  0.00    +0.000 C 
ATOM     17  C   UNL     1       2.503   2.722  20.515  0.00  0.00    +0.000 C 
ATOM     18  C   UNL     1       1.781   3.933  21.109  0.00  0.00    +0.000 C 
ATOM     19  C   UNL     1       1.869   5.143  20.179  0.00  0.00    +0.000 C 
ATOM     20  C   UNL     1       3.316   5.423  19.773  0.00  0.00    +0.000 C 
ENDBRANCH  10  15
TORSDOF 1
ENDMDL
MODEL 2
REMARK VINA RESULT:      -6.8      2.817      6.490
REMARK  Name = 
REMARK  2 active torsions:
REMARK  status: ('A' for Active; 'I' for Inactive)
REMARK    1  A    between atoms: C_1  and  C_2
REMARK    2  A    between atoms: C_10  and  N_11
REMARK                            x       y       z     vdW  Elec       q    Type
REMARK                         _______ _______ _______ _____ _____    ______ ____
ROOT
ATOM      1  C   UNL     1       0.587  10.331  19.617  0.00  0.00    +0.000 C 
ATOM      2  C   UNL     1       1.092   8.940  19.863  0.00  0.00    +0.000 A 
ATOM      3  C   UNL     1       0.579   8.168  20.899  0.00  0.00    +0.000 A 
ATOM      4  C   UNL     1       1.094   6.893  21.102  0.00  0.00    +0.000 A 
ATOM      5  C   UNL     1       2.104   6.416  20.261  0.00  0.00    +0.000 A 
ATOM      6  C   UNL     1       2.548   7.228  19.241  0.00  0.00    +0.000 A 
ATOM      7  N   UNL     1       2.062   8.484  19.034  0.00  0.00    +0.000 NA
ATOM      8  C   UNL     1       3.593   6.755  18.295  0.00  0.00    +0.000 C 
ATOM      9  O   UNL     1       4.045   7.498  17.429  0.00  0.00    +0.000 OA
ATOM     10  C   UNL     1       4.086   5.331  18.437  0.00  0.00    +0.000 C 
ATOM     11  C   UNL     1       3.659   4.595  19.481  0.00  0.00    +0.000 C 
ATOM     12 CL   UNL     1       4.189   2.955  19.709  0.00  0.00    +0.000 Cl
ATOM     13  C   UNL     1       2.672   5.085  20.469  0.00  0.00    +0.000 C 
ATOM     14  O   UNL     1       2.304   4.419  21.433  0.00  0.00    +0.000 OA
ENDROOT
BRANCH  10  15
ATOM     15  N   UNL     1       4.958   4.837  17.449  0.00  0.00    +0.000 N 
ATOM     16  C   UNL     1       6.378   4.596  17.748  0.00  0.00    +0.000 C 
ATOM     17  C   UNL     1       7.200   4.941  16.505  0.00  0.00    +0.000 C 
ATOM     18  C   UNL     1       6.720   4.158  15.282  0.00  0.00    +0.000 C 
ATOM     19  C   UNL     1       5.212   4.310  15.082  0.00  0.00    +0.000 C 
ATOM     20  C   UNL     1       4.450   3.981  16.365  0.00  0.00    +0.000 C 
ENDBRANCH  10  15
TORSDOF 1
ENDMDL
MODEL 3
REMARK VINA RESULT:      -6.7      0.436      1.193
REMARK  Name = 
REMARK  2 active torsions:
REMARK  status: ('A' for Active; 'I' for Inactive)
REMARK    1  A    between atoms: C_1  and  C_2
REMARK    2  A    between atoms: C_10  and  N_11
REMARK                            x       y       z     vdW  Elec       q    Type
REMARK                         _______ _______ _______ _____ _____    ______ ____
ROOT
ATOM      1  C   UNL     1       5.304   3.372  11.933  0.00  0.00    +0.000 C 
ATOM      2  C   UNL     1       5.720   3.835  13.297  0.00  0.00    +0.000 A 
ATOM      3  C   UNL     1       6.925   4.504  13.485  0.00  0.00    +0.000 A 
ATOM      4  C   UNL     1       7.279   4.896  14.772  0.00  0.00    +0.000 A 
ATOM      5  C   UNL     1       6.419   4.616  15.837  0.00  0.00    +0.000 A 
ATOM      6  C   UNL     1       5.232   3.970  15.572  0.00  0.00    +0.000 A 
ATOM      7  N   UNL     1       4.873   3.570  14.320  0.00  0.00    +0.000 NA
ATOM      8  C   UNL     1       4.264   3.683  16.664  0.00  0.00    +0.000 C 
ATOM      9  O   UNL     1       3.238   3.044  16.448  0.00  0.00    +0.000 OA
ATOM     10  C   UNL     1       4.586   4.197  18.051  0.00  0.00    +0.000 C 
ATOM     11  C   UNL     1       5.781   4.778  18.269  0.00  0.00    +0.000 C 
ATOM     12 CL   UNL     1       6.220   5.386  19.837  0.00  0.00    +0.000 Cl
ATOM     13  C   UNL     1       6.781   5.003  17.200  0.00  0.00    +0.000 C 
ATOM     14  O   UNL     1       7.879   5.511  17.408  0.00  0.00    +0.000 OA
ENDROOT
BRANCH  10  15
ATOM     15  N   UNL     1       3.600   4.061  19.047  0.00  0.00    +0.000 N 
ATOM     16  C   UNL     1       2.482   5.012  19.135  0.00  0.00    +0.000 C 
ATOM     17  C   UNL     1       2.143   5.226  20.611  0.00  0.00    +0.000 C 
ATOM     18  C   UNL     1       1.840   3.902  21.314  0.00  0.00    +0.000 C 
ATOM     19  C   UNL     1       2.956   2.883  21.082  0.00  0.00    +0.000 C 
ATOM     20  C   UNL     1       3.268   2.736  19.593  0.00  0.00    +0.000 C 
ENDBRANCH  10  15
TORSDOF 1
ENDMDL
MODEL 4
REMARK VINA RESULT:      -6.3      1.863      2.197
REMARK  Name = 
REMARK  2 active torsions:
REMARK  status: ('A' for Active; 'I' for Inactive)
REMARK    1  A    between atoms: C_1  and  C_2
REMARK    2  A    between atoms: C_10  and  N_11
REMARK                            x       y       z     vdW  Elec       q    Type
REMARK                         _______ _______ _______ _____ _____    ______ ____
ROOT
ATOM      1  C   UNL     1       6.393   3.194  13.042  0.00  0.00    +0.000 C 
ATOM      2  C   UNL     1       5.873   4.049  14.159  0.00  0.00    +0.000 A 
ATOM      3  C   UNL     1       6.008   5.432  14.119  0.00  0.00    +0.000 A 
ATOM      4  C   UNL     1       5.529   6.182  15.188  0.00  0.00    +0.000 A 
ATOM      5  C   UNL     1       4.924   5.533  16.268  0.00  0.00    +0.000 A 
ATOM      6  C   UNL     1       4.806   4.162  16.229  0.00  0.00    +0.000 A 
ATOM      7  N   UNL     1       5.277   3.410  15.194  0.00  0.00    +0.000 NA
ATOM      8  C   UNL     1       4.136   3.426  17.334  0.00  0.00    +0.000 C 
ATOM      9  O   UNL     1       4.091   2.199  17.341  0.00  0.00    +0.000 OA
ATOM     10  C   UNL     1       3.517   4.236  18.452  0.00  0.00    +0.000 C 
ATOM     11  C   UNL     1       3.703   5.570  18.471  0.00  0.00    +0.000 C 
ATOM     12 CL   UNL     1       3.026   6.561  19.728  0.00  0.00    +0.000 Cl
ATOM     13  C   UNL     1       4.432   6.302  17.411  0.00  0.00    +0.000 C 
ATOM     14  O   UNL     1       4.621   7.515  17.444  0.00  0.00    +0.000 OA
ENDROOT
BRANCH  10  15
ATOM     15  N   UNL     1       2.751   3.550  19.414  0.00  0.00    +0.000 N 
ATOM     16  C   UNL     1       1.375   3.125  19.117  0.00  0.00    +0.000 C 
ATOM     17  C   UNL     1       0.541   3.256  20.393  0.00  0.00    +0.000 C 
ATOM     18  C   UNL     1       1.159   2.468  21.548  0.00  0.00    +0.000 C 
ATOM     19  C   UNL     1       2.634   2.826  21.739  0.00  0.00    +0.000 C 
ATOM     20  C   UNL     1       3.404   2.705  20.425  0.00  0.00    +0.000 C 
ENDBRANCH  10  15
TORSDOF 1
ENDMDL
MODEL 5
REMARK VINA RESULT:      -6.2      5.177      6.839
REMARK  Name = 
REMARK  2 active torsions:
REMARK  status: ('A' for Active; 'I' for Inactive)
REMARK    1  A    between atoms: C_1  and  C_2
REMARK    2  A    between atoms: C_10  and  N_11
REMARK                            x       y       z     vdW  Elec       q    Type
REMARK                         _______ _______ _______ _____ _____    ______ ____
ROOT
ATOM      1  C   UNL     1       5.363   6.115  15.969  0.00  0.00    +0.000 C 
ATOM      2  C   UNL     1       4.450   6.316  17.141  0.00  0.00    +0.000 A 
ATOM      3  C   UNL     1       4.374   5.368  18.156  0.00  0.00    +0.000 A 
ATOM      4  C   UNL     1       3.497   5.588  19.213  0.00  0.00    +0.000 A 
ATOM      5  C   UNL     1       2.722   6.751  19.234  0.00  0.00    +0.000 A 
ATOM      6  C   UNL     1       2.865   7.655  18.205  0.00  0.00    +0.000 A 
ATOM      7  N   UNL     1       3.713   7.452  17.157  0.00  0.00    +0.000 NA
ATOM      8  C   UNL     1       2.093   8.926  18.198  0.00  0.00    +0.000 C 
ATOM      9  O   UNL     1       2.161   9.703  17.251  0.00  0.00    +0.000 OA
ATOM     10  C   UNL     1       1.214   9.228  19.393  0.00  0.00    +0.000 C 
ATOM     11  C   UNL     1       1.068   8.289  20.349  0.00  0.00    +0.000 C 
ATOM     12 CL   UNL     1       0.071   8.567  21.745  0.00  0.00    +0.000 Cl
ATOM     13  C   UNL     1       1.779   6.991  20.325  0.00  0.00    +0.000 C 
ATOM     14  O   UNL     1       1.624   6.129  21.186  0.00  0.00    +0.000 OA
ENDROOT
BRANCH  10  15
ATOM     15  N   UNL     1       0.607  10.496  19.458  0.00  0.00    +0.000 N 
ATOM     16  C   UNL     1      -0.816  10.668  19.128  0.00  0.00    +0.000 C 
ATOM     17  C   UNL     1      -0.993  12.018  18.431  0.00  0.00    +0.000 C 
ATOM     18  C   UNL     1      -0.449  13.164  19.286  0.00  0.00    +0.000 C 
ATOM     19  C   UNL     1       0.986  12.889  19.736  0.00  0.00    +0.000 C 
ATOM     20  C   UNL     1       1.103  11.515  20.396  0.00  0.00    +0.000 C 
ENDBRANCH  10  15
TORSDOF 1
ENDMDL
MODEL 6
REMARK VINA RESULT:      -6.2      3.858      6.681
REMARK  Name = 
REMARK  2 active torsions:
REMARK  status: ('A' for Active; 'I' for Inactive)
REMARK    1  A    between atoms: C_1  and  C_2
REMARK    2  A    between atoms: C_10  and  N_11
REMARK                            x       y       z     vdW  Elec       q    Type
REMARK                         _______ _______ _______ _____ _____    ______ ____
ROOT
ATOM      1  C   UNL     1      -0.438   9.310  22.891  0.00  0.00    +0.000 C 
ATOM      2  C   UNL     1       0.377   9.036  21.661  0.00  0.00    +0.000 A 
ATOM      3  C   UNL     1       0.757  10.071  20.814  0.00  0.00    +0.000 A 
ATOM      4  C   UNL     1       1.493   9.766  19.674  0.00  0.00    +0.000 A 
ATOM      5  C   UNL     1       1.838   8.437  19.412  0.00  0.00    +0.000 A 
ATOM      6  C   UNL     1       1.445   7.467  20.308  0.00  0.00    +0.000 A 
ATOM      7  N   UNL     1       0.715   7.746  21.425  0.00  0.00    +0.000 NA
ATOM      8  C   UNL     1       1.818   6.043  20.097  0.00  0.00    +0.000 C 
ATOM      9  O   UNL     1       1.412   5.164  20.851  0.00  0.00    +0.000 OA
ATOM     10  C   UNL     1       2.709   5.711  18.919  0.00  0.00    +0.000 C 
ATOM     11  C   UNL     1       3.023   6.685  18.044  0.00  0.00    +0.000 C 
ATOM     12 CL   UNL     1       4.036   6.373  16.667  0.00  0.00    +0.000 Cl
ATOM     13  C   UNL     1       2.595   8.093  18.210  0.00  0.00    +0.000 C 
ATOM     14  O   UNL     1       2.863   8.973  17.397  0.00  0.00    +0.000 OA
ENDROOT
BRANCH  10  15
ATOM     15  N   UNL     1       3.187   4.391  18.810  0.00  0.00    +0.000 N 
ATOM     16  C   UNL     1       2.767   3.528  17.695  0.00  0.00    +0.000 C 
ATOM     17  C   UNL     1       2.642   2.094  18.214  0.00  0.00    +0.000 C 
ATOM     18  C   UNL     1       3.942   1.618  18.863  0.00  0.00    +0.000 C 
ATOM     19  C   UNL     1       4.432   2.612  19.918  0.00  0.00    +0.000 C 
ATOM     20  C   UNL     1       4.507   4.028  19.348  0.00  0.00    +0.000 C 
ENDBRANCH  10  15
TORSDOF 1
ENDMDL
MODEL 7
REMARK VINA RESULT:      -6.2      4.116      7.268
REMARK  Name = 
REMARK  2 active torsions:
REMARK  status: ('A' for Active; 'I' for Inactive)
REMARK    1  A    between atoms: C_1  and  C_2
REMARK    2  A    between atoms: C_10  and  N_11
REMARK                            x       y       z     vdW  Elec       q    Type
REMARK                         _______ _______ _______ _____ _____    ______ ____
ROOT
ATOM      1  C   UNL     1      -0.728   9.912  23.150  0.00  0.00    +0.000 C 
ATOM      2  C   UNL     1       0.021   9.729  21.864  0.00  0.00    +0.000 A 
ATOM      3  C   UNL     1       0.179  10.786  20.974  0.00  0.00    +0.000 A 
ATOM      4  C   UNL     1       0.864  10.563  19.784  0.00  0.00    +0.000 A 
ATOM      5  C   UNL     1       1.379   9.292  19.514  0.00  0.00    +0.000 A 
ATOM      6  C   UNL     1       1.203   8.299  20.452  0.00  0.00    +0.000 A 
ATOM      7  N   UNL     1       0.527   8.497  21.619  0.00  0.00    +0.000 NA
ATOM      8  C   UNL     1       1.764   6.939  20.231  0.00  0.00    +0.000 C 
ATOM      9  O   UNL     1       1.551   6.030  21.028  0.00  0.00    +0.000 OA
ATOM     10  C   UNL     1       2.601   6.710  18.992  0.00  0.00    +0.000 C 
ATOM     11  C   UNL     1       2.701   7.698  18.081  0.00  0.00    +0.000 C 
ATOM     12 CL   UNL     1       3.641   7.502  16.632  0.00  0.00    +0.000 Cl
ATOM     13  C   UNL     1       2.084   9.031  18.260  0.00  0.00    +0.000 C 
ATOM     14  O   UNL     1       2.157   9.921  17.417  0.00  0.00    +0.000 OA
ENDROOT
BRANCH  10  15
ATOM     15  N   UNL     1       3.259   5.472  18.863  0.00  0.00    +0.000 N 
ATOM     16  C   UNL     1       4.550   5.232  19.526  0.00  0.00    +0.000 C 
ATOM     17  C   UNL     1       5.404   4.346  18.617  0.00  0.00    +0.000 C 
ATOM     18  C   UNL     1       4.680   3.047  18.261  0.00  0.00    +0.000 C 
ATOM     19  C   UNL     1       3.281   3.324  17.709  0.00  0.00    +0.000 C 
ATOM     20  C   UNL     1       2.490   4.237  18.645  0.00  0.00    +0.000 C 
ENDBRANCH  10  15
TORSDOF 1
ENDMDL
MODEL 8
REMARK VINA RESULT:      -6.1      5.297      6.976
REMARK  Name = 
REMARK  2 active torsions:
REMARK  status: ('A' for Active; 'I' for Inactive)
REMARK    1  A    between atoms: C_1  and  C_2
REMARK    2  A    between atoms: C_10  and  N_11
REMARK                            x       y       z     vdW  Elec       q    Type
REMARK                         _______ _______ _______ _____ _____    ______ ____
ROOT
ATOM      1  C   UNL     1       5.217   6.331  15.998  0.00  0.00    +0.000 C 
ATOM      2  C   UNL     1       4.310   6.507  17.180  0.00  0.00    +0.000 A 
ATOM      3  C   UNL     1       4.243   5.540  18.176  0.00  0.00    +0.000 A 
ATOM      4  C   UNL     1       3.372   5.738  19.242  0.00  0.00    +0.000 A 
ATOM      5  C   UNL     1       2.594   6.899  19.290  0.00  0.00    +0.000 A 
ATOM      6  C   UNL     1       2.730   7.823  18.278  0.00  0.00    +0.000 A 
ATOM      7  N   UNL     1       3.572   7.642  17.222  0.00  0.00    +0.000 NA
ATOM      8  C   UNL     1       1.956   9.092  18.301  0.00  0.00    +0.000 C 
ATOM      9  O   UNL     1       2.017   9.887  17.368  0.00  0.00    +0.000 OA
ATOM     10  C   UNL     1       1.084   9.370  19.507  0.00  0.00    +0.000 C 
ATOM     11  C   UNL     1       0.945   8.413  20.445  0.00  0.00    +0.000 C 
ATOM     12 CL   UNL     1      -0.044   8.661  21.852  0.00  0.00    +0.000 Cl
ATOM     13  C   UNL     1       1.658   7.117  20.392  0.00  0.00    +0.000 C 
ATOM     14  O   UNL     1       1.510   6.237  21.236  0.00  0.00    +0.000 OA
ENDROOT
BRANCH  10  15
ATOM     15  N   UNL     1       0.475  10.636  19.599  0.00  0.00    +0.000 N 
ATOM     16  C   UNL     1       1.257  11.822  19.977  0.00  0.00    +0.000 C 
ATOM     17  C   UNL     1       0.372  12.737  20.826  0.00  0.00    +0.000 C 
ATOM     18  C   UNL     1      -0.922  13.099  20.094  0.00  0.00    +0.000 C 
ATOM     19  C   UNL     1      -1.640  11.849  19.584  0.00  0.00    +0.000 C 
ATOM     20  C   UNL     1      -0.696  10.963  18.771  0.00  0.00    +0.000 C 
ENDBRANCH  10  15
TORSDOF 1
ENDMDL
MODEL 9
REMARK VINA RESULT:      -6.1      2.198      2.670
REMARK  Name = 
REMARK  2 active torsions:
REMARK  status: ('A' for Active; 'I' for Inactive)
REMARK    1  A    between atoms: C_1  and  C_2
REMARK    2  A    between atoms: C_10  and  N_11
REMARK                            x       y       z     vdW  Elec       q    Type
REMARK                         _______ _______ _______ _____ _____    ______ ____
ROOT
ATOM      1  C   UNL     1       6.514   3.756  13.767  0.00  0.00    +0.000 C 
ATOM      2  C   UNL     1       5.800   4.626  14.758  0.00  0.00    +0.000 A 
ATOM      3  C   UNL     1       5.751   6.005  14.591  0.00  0.00    +0.000 A 
ATOM      4  C   UNL     1       5.095   6.772  15.548  0.00  0.00    +0.000 A 
ATOM      5  C   UNL     1       4.499   6.143  16.644  0.00  0.00    +0.000 A 
ATOM      6  C   UNL     1       4.568   4.770  16.732  0.00  0.00    +0.000 A 
ATOM      7  N   UNL     1       5.215   4.004  15.810  0.00  0.00    +0.000 NA
ATOM      8  C   UNL     1       3.918   4.049  17.858  0.00  0.00    +0.000 C 
ATOM      9  O   UNL     1       4.036   2.833  17.982  0.00  0.00    +0.000 OA
ATOM     10  C   UNL     1       3.111   4.859  18.849  0.00  0.00    +0.000 C 
ATOM     11  C   UNL     1       3.115   6.203  18.749  0.00  0.00    +0.000 C 
ATOM     12 CL   UNL     1       2.216   7.196  19.855  0.00  0.00    +0.000 Cl
ATOM     13  C   UNL     1       3.821   6.933  17.671  0.00  0.00    +0.000 C 
ATOM     14  O   UNL     1       3.843   8.159  17.598  0.00  0.00    +0.000 OA
ENDROOT
BRANCH  10  15
ATOM     15  N   UNL     1       2.369   4.160  19.821  0.00  0.00    +0.000 N 
ATOM     16  C   UNL     1       2.670   4.314  21.252  0.00  0.00    +0.000 C 
ATOM     17  C   UNL     1       2.449   2.966  21.941  0.00  0.00    +0.000 C 
ATOM     18  C   UNL     1       1.036   2.437  21.695  0.00  0.00    +0.000 C 
ATOM     19  C   UNL     1       0.699   2.426  20.203  0.00  0.00    +0.000 C 
ATOM     20  C   UNL     1       0.969   3.790  19.567  0.00  0.00    +0.000 C 
ENDBRANCH  10  15
TORSDOF 1
ENDMDL
