MODEL 1
REMARK VINA RESULT:      -8.6      0.000      0.000
REMARK  Name = 
REMARK  0 active torsions:
REMARK  status: ('A' for Active; 'I' for Inactive)
REMARK                            x       y       z     vdW  Elec       q    Type
REMARK                         _______ _______ _______ _____ _____    ______ ____
ROOT
ATOM      1  N   UNL     1       6.335   3.278  13.504  0.00  0.00    +0.000 N 
ATOM      2  C   UNL     1       6.469   4.222  14.480  0.00  0.00    +0.000 A 
ATOM      3  N   UNL     1       7.451   5.098  14.470  0.00  0.00    +0.000 NA
ATOM      4  N   UNL     1       7.349   5.934  15.648  0.00  0.00    +0.000 NA
ATOM      5  C   UNL     1       6.305   5.524  16.309  0.00  0.00    +0.000 A 
ATOM      6  O   UNL     1       5.875   6.040  17.484  0.00  0.00    +0.000 OA
ATOM      7  C   UNL     1       4.820   5.364  18.113  0.00  0.00    +0.000 A 
ATOM      8  C   UNL     1       4.605   5.748  19.424  0.00  0.00    +0.000 A 
ATOM      9  C   UNL     1       3.724   5.010  20.194  0.00  0.00    +0.000 A 
ATOM     10  C   UNL     1       2.930   4.021  19.610  0.00  0.00    +0.000 A 
ATOM     11  C   UNL     1       2.023   3.336  20.428  0.00  0.00    +0.000 A 
ATOM     12  C   UNL     1       0.930   2.707  19.857  0.00  0.00    +0.000 A 
ATOM     13  C   UNL     1       0.853   2.576  18.480  0.00  0.00    +0.000 A 
ATOM     14  C   UNL     1       1.927   3.004  17.684  0.00  0.00    +0.000 A 
ATOM     15  C   UNL     1       2.976   3.764  18.213  0.00  0.00    +0.000 A 
ATOM     16  C   UNL     1       4.071   4.349  17.493  0.00  0.00    +0.000 A 
ATOM     17  C   UNL     1       4.511   3.882  16.164  0.00  0.00    +0.000 A 
ATOM     18  C   UNL     1       5.621   4.428  15.665  0.00  0.00    +0.000 A 
ATOM     19  H   UNL     1       7.174   3.211  12.936  0.00  0.00    +0.000 HD
ATOM     20  H   UNL     1       5.993   2.372  13.796  0.00  0.00    +0.000 HD
ENDROOT
TORSDOF 0
ENDMDL
MODEL 2
REMARK VINA RESULT:      -8.5      1.556      2.952
REMARK  Name = 
REMARK  0 active torsions:
REMARK  status: ('A' for Active; 'I' for Inactive)
REMARK                            x       y       z     vdW  Elec       q    Type
REMARK                         _______ _______ _______ _____ _____    ______ ____
ROOT
ATOM      1  N   UNL     1       8.155   6.682  18.988  0.00  0.00    +0.000 N 
ATOM      2  C   UNL     1       7.371   6.224  17.970  0.00  0.00    +0.000 A 
ATOM      3  N   UNL     1       7.648   6.480  16.709  0.00  0.00    +0.000 NA
ATOM      4  N   UNL     1       6.619   5.898  15.873  0.00  0.00    +0.000 NA
ATOM      5  C   UNL     1       5.772   5.315  16.671  0.00  0.00    +0.000 A 
ATOM      6  O   UNL     1       4.651   4.665  16.279  0.00  0.00    +0.000 OA
ATOM      7  C   UNL     1       3.792   4.232  17.299  0.00  0.00    +0.000 A 
ATOM      8  C   UNL     1       2.544   3.835  16.855  0.00  0.00    +0.000 A 
ATOM      9  C   UNL     1       1.558   3.579  17.791  0.00  0.00    +0.000 A 
ATOM     10  C   UNL     1       1.869   3.539  19.152  0.00  0.00    +0.000 A 
ATOM     11  C   UNL     1       0.842   3.231  20.053  0.00  0.00    +0.000 A 
ATOM     12  C   UNL     1       1.159   2.735  21.306  0.00  0.00    +0.000 A 
ATOM     13  C   UNL     1       2.475   2.748  21.738  0.00  0.00    +0.000 A 
ATOM     14  C   UNL     1       3.460   3.343  20.935  0.00  0.00    +0.000 A 
ATOM     15  C   UNL     1       3.200   3.725  19.614  0.00  0.00    +0.000 A 
ATOM     16  C   UNL     1       4.139   4.244  18.661  0.00  0.00    +0.000 A 
ATOM     17  C   UNL     1       5.419   4.872  19.041  0.00  0.00    +0.000 A 
ATOM     18  C   UNL     1       6.137   5.427  18.063  0.00  0.00    +0.000 A 
ATOM     19  H   UNL     1       8.807   7.390  18.664  0.00  0.00    +0.000 HD
ATOM     20  H   UNL     1       7.679   6.956  19.837  0.00  0.00    +0.000 HD
ENDROOT
TORSDOF 0
ENDMDL
MODEL 3
REMARK VINA RESULT:      -8.5      1.159      1.159
REMARK  Name = 
REMARK  0 active torsions:
REMARK  status: ('A' for Active; 'I' for Inactive)
REMARK                            x       y       z     vdW  Elec       q    Type
REMARK                         _______ _______ _______ _____ _____    ______ ____
ROOT
ATOM      1  N   UNL     1       6.361   3.356  14.383  0.00  0.00    +0.000 N 
ATOM      2  C   UNL     1       6.026   4.535  14.981  0.00  0.00    +0.000 A 
ATOM      3  N   UNL     1       6.660   5.657  14.711  0.00  0.00    +0.000 NA
ATOM      4  N   UNL     1       6.106   6.718  15.526  0.00  0.00    +0.000 NA
ATOM      5  C   UNL     1       5.161   6.185  16.245  0.00  0.00    +0.000 A 
ATOM      6  O   UNL     1       4.407   6.845  17.154  0.00  0.00    +0.000 OA
ATOM      7  C   UNL     1       3.542   6.065  17.934  0.00  0.00    +0.000 A 
ATOM      8  C   UNL     1       3.010   6.728  19.024  0.00  0.00    +0.000 A 
ATOM      9  C   UNL     1       2.306   5.997  19.964  0.00  0.00    +0.000 A 
ATOM     10  C   UNL     1       1.979   4.661  19.722  0.00  0.00    +0.000 A 
ATOM     11  C   UNL     1       1.225   3.982  20.688  0.00  0.00    +0.000 A 
ATOM     12  C   UNL     1       0.499   2.861  20.324  0.00  0.00    +0.000 A 
ATOM     13  C   UNL     1       0.689   2.296  19.073  0.00  0.00    +0.000 A 
ATOM     14  C   UNL     1       1.677   2.815  18.222  0.00  0.00    +0.000 A 
ATOM     15  C   UNL     1       2.326   4.023  18.501  0.00  0.00    +0.000 A 
ATOM     16  C   UNL     1       3.271   4.711  17.668  0.00  0.00    +0.000 A 
ATOM     17  C   UNL     1       4.043   4.050  16.599  0.00  0.00    +0.000 A 
ATOM     18  C   UNL     1       4.981   4.776  15.989  0.00  0.00    +0.000 A 
ATOM     19  H   UNL     1       7.255   3.423  13.906  0.00  0.00    +0.000 HD
ATOM     20  H   UNL     1       6.290   2.524  14.953  0.00  0.00    +0.000 HD
ENDROOT
TORSDOF 0
ENDMDL
MODEL 4
REMARK VINA RESULT:      -8.3      1.061      1.424
REMARK  Name = 
REMARK  0 active torsions:
REMARK  status: ('A' for Active; 'I' for Inactive)
REMARK                            x       y       z     vdW  Elec       q    Type
REMARK                         _______ _______ _______ _____ _____    ______ ____
ROOT
ATOM      1  N   UNL     1       5.998   2.992  12.258  0.00  0.00    +0.000 N 
ATOM      2  C   UNL     1       6.483   3.911  13.141  0.00  0.00    +0.000 A 
ATOM      3  N   UNL     1       7.569   4.612  12.890  0.00  0.00    +0.000 NA
ATOM      4  N   UNL     1       7.851   5.467  14.024  0.00  0.00    +0.000 NA
ATOM      5  C   UNL     1       6.918   5.243  14.904  0.00  0.00    +0.000 A 
ATOM      6  O   UNL     1       6.833   5.835  16.118  0.00  0.00    +0.000 OA
ATOM      7  C   UNL     1       5.839   5.351  16.980  0.00  0.00    +0.000 A 
ATOM      8  C   UNL     1       5.969   5.779  18.289  0.00  0.00    +0.000 A 
ATOM      9  C   UNL     1       5.163   5.206  19.256  0.00  0.00    +0.000 A 
ATOM     10  C   UNL     1       4.116   4.356  18.892  0.00  0.00    +0.000 A 
ATOM     11  C   UNL     1       3.304   3.840  19.909  0.00  0.00    +0.000 A 
ATOM     12  C   UNL     1       2.029   3.396  19.605  0.00  0.00    +0.000 A 
ATOM     13  C   UNL     1       1.645   3.264  18.281  0.00  0.00    +0.000 A 
ATOM     14  C   UNL     1       2.581   3.499  17.262  0.00  0.00    +0.000 A 
ATOM     15  C   UNL     1       3.826   4.080  17.529  0.00  0.00    +0.000 A 
ATOM     16  C   UNL     1       4.824   4.468  16.573  0.00  0.00    +0.000 A 
ATOM     17  C   UNL     1       4.895   3.920  15.205  0.00  0.00    +0.000 A 
ATOM     18  C   UNL     1       5.948   4.269  14.465  0.00  0.00    +0.000 A 
ATOM     19  H   UNL     1       6.677   2.781  11.532  0.00  0.00    +0.000 HD
ATOM     20  H   UNL     1       5.585   2.159  12.654  0.00  0.00    +0.000 HD
ENDROOT
TORSDOF 0
ENDMDL
MODEL 5
REMARK VINA RESULT:      -8.2      1.454      1.724
REMARK  Name = 
REMARK  0 active torsions:
REMARK  status: ('A' for Active; 'I' for Inactive)
REMARK                            x       y       z     vdW  Elec       q    Type
REMARK                         _______ _______ _______ _____ _____    ______ ____
ROOT
ATOM      1  N   UNL     1       7.666   4.315  15.852  0.00  0.00    +0.000 N 
ATOM      2  C   UNL     1       6.991   5.397  16.335  0.00  0.00    +0.000 A 
ATOM      3  N   UNL     1       7.488   6.613  16.271  0.00  0.00    +0.000 NA
ATOM      4  N   UNL     1       6.563   7.535  16.898  0.00  0.00    +0.000 NA
ATOM      5  C   UNL     1       5.549   6.828  17.307  0.00  0.00    +0.000 A 
ATOM      6  O   UNL     1       4.471   7.317  17.962  0.00  0.00    +0.000 OA
ATOM      7  C   UNL     1       3.556   6.375  18.450  0.00  0.00    +0.000 A 
ATOM      8  C   UNL     1       2.635   6.890  19.344  0.00  0.00    +0.000 A 
ATOM      9  C   UNL     1       1.817   6.013  20.033  0.00  0.00    +0.000 A 
ATOM     10  C   UNL     1       1.790   4.658  19.695  0.00  0.00    +0.000 A 
ATOM     11  C   UNL     1       0.910   3.823  20.394  0.00  0.00    +0.000 A 
ATOM     12  C   UNL     1       0.507   2.627  19.825  0.00  0.00    +0.000 A 
ATOM     13  C   UNL     1       1.133   2.165  18.680  0.00  0.00    +0.000 A 
ATOM     14  C   UNL     1       2.228   2.871  18.157  0.00  0.00    +0.000 A 
ATOM     15  C   UNL     1       2.569   4.146  18.622  0.00  0.00    +0.000 A 
ATOM     16  C   UNL     1       3.591   5.012  18.107  0.00  0.00    +0.000 A 
ATOM     17  C   UNL     1       4.732   4.533  17.303  0.00  0.00    +0.000 A 
ATOM     18  C   UNL     1       5.676   5.424  16.997  0.00  0.00    +0.000 A 
ATOM     19  H   UNL     1       8.637   4.542  15.656  0.00  0.00    +0.000 HD
ATOM     20  H   UNL     1       7.568   3.452  16.370  0.00  0.00    +0.000 HD
ENDROOT
TORSDOF 0
ENDMDL
MODEL 6
REMARK VINA RESULT:      -8.0      1.353      2.821
REMARK  Name = 
REMARK  0 active torsions:
REMARK  status: ('A' for Active; 'I' for Inactive)
REMARK                            x       y       z     vdW  Elec       q    Type
REMARK                         _______ _______ _______ _____ _____    ______ ____
ROOT
ATOM      1  N   UNL     1       7.171   7.879  17.371  0.00  0.00    +0.000 N 
ATOM      2  C   UNL     1       6.978   6.626  16.869  0.00  0.00    +0.000 A 
ATOM      3  N   UNL     1       7.680   6.167  15.855  0.00  0.00    +0.000 NA
ATOM      4  N   UNL     1       7.221   4.833  15.529  0.00  0.00    +0.000 NA
ATOM      5  C   UNL     1       6.265   4.550  16.366  0.00  0.00    +0.000 A 
ATOM      6  O   UNL     1       5.558   3.396  16.381  0.00  0.00    +0.000 OA
ATOM      7  C   UNL     1       4.470   3.342  17.263  0.00  0.00    +0.000 A 
ATOM      8  C   UNL     1       3.619   2.274  17.047  0.00  0.00    +0.000 A 
ATOM      9  C   UNL     1       2.415   2.238  17.727  0.00  0.00    +0.000 A 
ATOM     10  C   UNL     1       2.150   3.155  18.747  0.00  0.00    +0.000 A 
ATOM     11  C   UNL     1       0.935   3.043  19.433  0.00  0.00    +0.000 A 
ATOM     12  C   UNL     1       0.815   3.588  20.700  0.00  0.00    +0.000 A 
ATOM     13  C   UNL     1       1.810   4.417  21.190  0.00  0.00    +0.000 A 
ATOM     14  C   UNL     1       2.890   4.765  20.363  0.00  0.00    +0.000 A 
ATOM     15  C   UNL     1       3.112   4.125  19.138  0.00  0.00    +0.000 A 
ATOM     16  C   UNL     1       4.227   4.311  18.253  0.00  0.00    +0.000 A 
ATOM     17  C   UNL     1       5.085   5.511  18.268  0.00  0.00    +0.000 A 
ATOM     18  C   UNL     1       6.005   5.613  17.308  0.00  0.00    +0.000 A 
ATOM     19  H   UNL     1       7.737   8.445  16.747  0.00  0.00    +0.000 HD
ATOM     20  H   UNL     1       6.347   8.368  17.696  0.00  0.00    +0.000 HD
ENDROOT
TORSDOF 0
ENDMDL
MODEL 7
REMARK VINA RESULT:      -7.8      4.234      5.845
REMARK  Name = 
REMARK  0 active torsions:
REMARK  status: ('A' for Active; 'I' for Inactive)
REMARK                            x       y       z     vdW  Elec       q    Type
REMARK                         _______ _______ _______ _____ _____    ______ ____
ROOT
ATOM      1  N   UNL     1       1.533  10.459  17.760  0.00  0.00    +0.000 N 
ATOM      2  C   UNL     1       1.626   9.391  18.603  0.00  0.00    +0.000 A 
ATOM      3  N   UNL     1       0.975   9.348  19.746  0.00  0.00    +0.000 NA
ATOM      4  N   UNL     1       1.306   8.115  20.431  0.00  0.00    +0.000 NA
ATOM      5  C   UNL     1       2.138   7.472  19.664  0.00  0.00    +0.000 A 
ATOM      6  O   UNL     1       2.701   6.277  19.955  0.00  0.00    +0.000 OA
ATOM      7  C   UNL     1       3.687   5.818  19.070  0.00  0.00    +0.000 A 
ATOM      8  C   UNL     1       4.424   4.751  19.548  0.00  0.00    +0.000 A 
ATOM      9  C   UNL     1       5.545   4.351  18.842  0.00  0.00    +0.000 A 
ATOM     10  C   UNL     1       5.816   4.887  17.581  0.00  0.00    +0.000 A 
ATOM     11  C   UNL     1       6.938   4.413  16.892  0.00  0.00    +0.000 A 
ATOM     12  C   UNL     1       7.000   4.545  15.515  0.00  0.00    +0.000 A 
ATOM     13  C   UNL     1       6.065   5.327  14.857  0.00  0.00    +0.000 A 
ATOM     14  C   UNL     1       5.117   6.046  15.602  0.00  0.00    +0.000 A 
ATOM     15  C   UNL     1       4.941   5.827  16.972  0.00  0.00    +0.000 A 
ATOM     16  C   UNL     1       3.945   6.414  17.822  0.00  0.00    +0.000 A 
ATOM     17  C   UNL     1       3.234   7.666  17.497  0.00  0.00    +0.000 A 
ATOM     18  C   UNL     1       2.429   8.169  18.434  0.00  0.00    +0.000 A 
ATOM     19  H   UNL     1       1.098  11.255  18.217  0.00  0.00    +0.000 HD
ATOM     20  H   UNL     1       2.373  10.712  17.257  0.00  0.00    +0.000 HD
ENDROOT
TORSDOF 0
ENDMDL
MODEL 8
REMARK VINA RESULT:      -7.7      1.618      2.750
REMARK  Name = 
REMARK  0 active torsions:
REMARK  status: ('A' for Active; 'I' for Inactive)
REMARK                            x       y       z     vdW  Elec       q    Type
REMARK                         _______ _______ _______ _____ _____    ______ ____
ROOT
ATOM      1  N   UNL     1       8.512   4.725  18.287  0.00  0.00    +0.000 N 
ATOM      2  C   UNL     1       7.481   4.617  17.402  0.00  0.00    +0.000 A 
ATOM      3  N   UNL     1       7.627   4.899  16.125  0.00  0.00    +0.000 NA
ATOM      4  N   UNL     1       6.355   4.728  15.455  0.00  0.00    +0.000 NA
ATOM      5  C   UNL     1       5.502   4.347  16.362  0.00  0.00    +0.000 A 
ATOM      6  O   UNL     1       4.190   4.097  16.143  0.00  0.00    +0.000 OA
ATOM      7  C   UNL     1       3.405   3.842  17.275  0.00  0.00    +0.000 A 
ATOM      8  C   UNL     1       2.043   3.874  17.038  0.00  0.00    +0.000 A 
ATOM      9  C   UNL     1       1.181   3.833  18.119  0.00  0.00    +0.000 A 
ATOM     10  C   UNL     1       1.667   3.574  19.403  0.00  0.00    +0.000 A 
ATOM     11  C   UNL     1       0.745   3.498  20.453  0.00  0.00    +0.000 A 
ATOM     12  C   UNL     1       1.081   2.814  21.609  0.00  0.00    +0.000 A 
ATOM     13  C   UNL     1       2.388   2.398  21.806  0.00  0.00    +0.000 A 
ATOM     14  C   UNL     1       3.374   2.750  20.871  0.00  0.00    +0.000 A 
ATOM     15  C   UNL     1       3.045   3.315  19.634  0.00  0.00    +0.000 A 
ATOM     16  C   UNL     1       3.942   3.622  18.556  0.00  0.00    +0.000 A 
ATOM     17  C   UNL     1       5.395   3.805  18.735  0.00  0.00    +0.000 A 
ATOM     18  C   UNL     1       6.091   4.214  17.673  0.00  0.00    +0.000 A 
ATOM     19  H   UNL     1       9.293   5.236  17.887  0.00  0.00    +0.000 HD
ATOM     20  H   UNL     1       8.278   5.045  19.218  0.00  0.00    +0.000 HD
ENDROOT
TORSDOF 0
ENDMDL
MODEL 9
REMARK VINA RESULT:      -7.3      5.150      6.671
REMARK  Name = 
REMARK  0 active torsions:
REMARK  status: ('A' for Active; 'I' for Inactive)
REMARK                            x       y       z     vdW  Elec       q    Type
REMARK                         _______ _______ _______ _____ _____    ______ ____
ROOT
ATOM      1  N   UNL     1      -0.735   9.327  23.078  0.00  0.00    +0.000 N 
ATOM      2  C   UNL     1      -0.016   9.501  21.933  0.00  0.00    +0.000 A 
ATOM      3  N   UNL     1       0.042  10.664  21.318  0.00  0.00    +0.000 NA
ATOM      4  N   UNL     1       0.843  10.524  20.120  0.00  0.00    +0.000 NA
ATOM      5  C   UNL     1       1.233   9.283  20.072  0.00  0.00    +0.000 A 
ATOM      6  O   UNL     1       1.991   8.742  19.091  0.00  0.00    +0.000 OA
ATOM      7  C   UNL     1       2.182   7.354  19.142  0.00  0.00    +0.000 A 
ATOM      8  C   UNL     1       2.713   6.813  17.986  0.00  0.00    +0.000 A 
ATOM      9  C   UNL     1       2.755   5.436  17.857  0.00  0.00    +0.000 A 
ATOM     10  C   UNL     1       2.446   4.614  18.944  0.00  0.00    +0.000 A 
ATOM     11  C   UNL     1       2.550   3.229  18.771  0.00  0.00    +0.000 A 
ATOM     12  C   UNL     1       2.710   2.413  19.878  0.00  0.00    +0.000 A 
ATOM     13  C   UNL     1       2.552   2.941  21.149  0.00  0.00    +0.000 A 
ATOM     14  C   UNL     1       2.147   4.276  21.299  0.00  0.00    +0.000 A 
ATOM     15  C   UNL     1       2.113   5.159  20.213  0.00  0.00    +0.000 A 
ATOM     16  C   UNL     1       1.821   6.564  20.248  0.00  0.00    +0.000 A 
ATOM     17  C   UNL     1       1.082   7.213  21.347  0.00  0.00    +0.000 A 
ATOM     18  C   UNL     1       0.767   8.500  21.191  0.00  0.00    +0.000 A 
ATOM     19  H   UNL     1      -1.358  10.110  23.248  0.00  0.00    +0.000 HD
ATOM     20  H   UNL     1      -1.198   8.434  23.189  0.00  0.00    +0.000 HD
ENDROOT
TORSDOF 0
ENDMDL
