MODEL 1
REMARK VINA RESULT:      -9.2      0.000      0.000
REMARK  Name = 
REMARK  6 active torsions:
REMARK  status: ('A' for Active; 'I' for Inactive)
REMARK    1  A    between atoms: C_1  and  N_2
REMARK    2  A    between atoms: C_4  and  C_5
REMARK    3  A    between atoms: C_8  and  C_9
REMARK    4  A    between atoms: C_18  and  C_19
REMARK    5  A    between atoms: N_21  and  S_22
REMARK    6  A    between atoms: S_22  and  C_25
REMARK                            x       y       z     vdW  Elec       q    Type
REMARK                         _______ _______ _______ _____ _____    ______ ____
ROOT
ATOM      1  C   UNL     1       2.285  10.684  17.555  0.00  0.00    +0.000 C 
ATOM      2  N   UNL     1       1.504  10.358  18.729  0.00  0.00    +0.000 N 
ATOM      3  C   UNL     1       0.631  11.223  19.335  0.00  0.00    +0.000 A 
ATOM      4  C   UNL     1       0.063  10.586  20.421  0.00  0.00    +0.000 A 
ATOM      5  C   UNL     1       0.633   9.269  20.467  0.00  0.00    +0.000 A 
ATOM      6  C   UNL     1       0.461   8.155  21.312  0.00  0.00    +0.000 A 
ATOM      7  C   UNL     1       1.189   6.985  21.085  0.00  0.00    +0.000 A 
ATOM      8  C   UNL     1       2.083   6.875  20.014  0.00  0.00    +0.000 A 
ATOM      9  C   UNL     1       2.261   7.966  19.145  0.00  0.00    +0.000 A 
ATOM     10  C   UNL     1       1.530   9.150  19.396  0.00  0.00    +0.000 A 
ENDROOT
BRANCH   4  11
ATOM     11  C   UNL     1      -0.925  11.225  21.290  0.00  0.00    +0.000 A 
ATOM     12  C   UNL     1      -1.884  12.104  20.766  0.00  0.00    +0.000 A 
ATOM     13  C   UNL     1      -2.840  12.703  21.593  0.00  0.00    +0.000 A 
ATOM     14  C   UNL     1      -2.871  12.426  22.966  0.00  0.00    +0.000 A 
ATOM     15  C   UNL     1      -1.910  11.553  23.495  0.00  0.00    +0.000 A 
ATOM     16  C   UNL     1      -0.943  10.971  22.668  0.00  0.00    +0.000 A 
BRANCH  14  17
ATOM     17  C   UNL     1      -3.909  13.047  23.867  0.00  0.00    +0.000 C 
ATOM     18  F   UNL     1      -4.595  12.136  24.614  0.00  0.00    +0.000 F 
ATOM     19  F   UNL     1      -3.369  13.926  24.756  0.00  0.00    +0.000 F 
ATOM     20  F   UNL     1      -4.851  13.745  23.175  0.00  0.00    +0.000 F 
ENDBRANCH  14  17
ENDBRANCH   4  11
BRANCH   8  21
ATOM     21  C   UNL     1       2.777   5.558  19.875  0.00  0.00    +0.000 C 
ATOM     22  O   UNL     1       2.538   4.649  20.655  0.00  0.00    +0.000 OA
ATOM     23  N   UNL     1       3.667   5.398  18.809  0.00  0.00    +0.000 N 
ATOM     24  H   UNL     1       3.841   6.103  18.106  0.00  0.00    +0.000 HD
BRANCH  23  25
ATOM     25  S   UNL     1       4.505   3.984  18.516  0.00  0.00    +0.000 S 
ATOM     26  O   UNL     1       5.467   3.884  19.597  0.00  0.00    +0.000 OA
ATOM     27  O   UNL     1       3.555   2.925  18.270  0.00  0.00    +0.000 OA
BRANCH  25  28
ATOM     28  C   UNL     1       5.437   4.298  17.036  0.00  0.00    +0.000 A 
ATOM     29  C   UNL     1       6.732   4.831  17.122  0.00  0.00    +0.000 A 
ATOM     30  C   UNL     1       7.441   5.119  15.951  0.00  0.00    +0.000 A 
ATOM     31  C   UNL     1       6.852   4.872  14.714  0.00  0.00    +0.000 A 
ATOM     32  F   UNL     1       7.530   5.160  13.595  0.00  0.00    +0.000 F 
ATOM     33  C   UNL     1       5.567   4.341  14.638  0.00  0.00    +0.000 A 
ATOM     34  F   UNL     1       5.007   4.107  13.444  0.00  0.00    +0.000 F 
ATOM     35  C   UNL     1       4.847   4.051  15.793  0.00  0.00    +0.000 A 
ENDBRANCH  25  28
ENDBRANCH  23  25
ENDBRANCH   8  21
TORSDOF 5
ENDMDL
MODEL 2
REMARK VINA RESULT:      -8.8      3.464     11.036
REMARK  Name = 
REMARK  6 active torsions:
REMARK  status: ('A' for Active; 'I' for Inactive)
REMARK    1  A    between atoms: C_1  and  N_2
REMARK    2  A    between atoms: C_4  and  C_5
REMARK    3  A    between atoms: C_8  and  C_9
REMARK    4  A    between atoms: C_18  and  C_19
REMARK    5  A    between atoms: N_21  and  S_22
REMARK    6  A    between atoms: S_22  and  C_25
REMARK                            x       y       z     vdW  Elec       q    Type
REMARK                         _______ _______ _______ _____ _____    ______ ____
ROOT
ATOM      1  C   UNL     1       3.093   2.830  20.127  0.00  0.00    +0.000 C 
ATOM      2  N   UNL     1       3.517   3.812  19.152  0.00  0.00    +0.000 N 
ATOM      3  C   UNL     1       4.355   3.541  18.103  0.00  0.00    +0.000 A 
ATOM      4  C   UNL     1       4.546   4.702  17.380  0.00  0.00    +0.000 A 
ATOM      5  C   UNL     1       3.781   5.724  18.038  0.00  0.00    +0.000 A 
ATOM      6  C   UNL     1       3.555   7.092  17.790  0.00  0.00    +0.000 A 
ATOM      7  C   UNL     1       2.736   7.833  18.645  0.00  0.00    +0.000 A 
ATOM      8  C   UNL     1       2.105   7.243  19.746  0.00  0.00    +0.000 A 
ATOM      9  C   UNL     1       2.298   5.875  20.006  0.00  0.00    +0.000 A 
ATOM     10  C   UNL     1       3.144   5.141  19.142  0.00  0.00    +0.000 A 
ENDROOT
BRANCH   4  11
ATOM     11  C   UNL     1       5.386   4.765  16.184  0.00  0.00    +0.000 A 
ATOM     12  C   UNL     1       5.030   4.075  15.016  0.00  0.00    +0.000 A 
ATOM     13  C   UNL     1       5.823   4.147  13.866  0.00  0.00    +0.000 A 
ATOM     14  C   UNL     1       6.989   4.925  13.851  0.00  0.00    +0.000 A 
ATOM     15  C   UNL     1       7.352   5.612  15.018  0.00  0.00    +0.000 A 
ATOM     16  C   UNL     1       6.565   5.521  16.172  0.00  0.00    +0.000 A 
BRANCH  14  17
ATOM     17  C   UNL     1       7.843   5.031  12.613  0.00  0.00    +0.000 C 
ATOM     18  F   UNL     1       7.665   6.196  11.927  0.00  0.00    +0.000 F 
ATOM     19  F   UNL     1       9.174   4.963  12.891  0.00  0.00    +0.000 F 
ATOM     20  F   UNL     1       7.595   4.034  11.720  0.00  0.00    +0.000 F 
ENDBRANCH  14  17
ENDBRANCH   4  11
BRANCH   8  21
ATOM     21  C   UNL     1       1.237   8.147  20.563  0.00  0.00    +0.000 C 
ATOM     22  O   UNL     1       0.629   7.711  21.529  0.00  0.00    +0.000 OA
ATOM     23  N   UNL     1       1.182   9.497  20.207  0.00  0.00    +0.000 N 
ATOM     24  H   UNL     1       1.722   9.907  19.456  0.00  0.00    +0.000 HD
BRANCH  23  25
ATOM     25  S   UNL     1       0.270  10.629  21.029  0.00  0.00    +0.000 S 
ATOM     26  O   UNL     1      -0.307   9.908  22.148  0.00  0.00    +0.000 OA
ATOM     27  O   UNL     1       1.078  11.806  21.244  0.00  0.00    +0.000 OA
BRANCH  25  28
ATOM     28  C   UNL     1      -1.072  11.023  19.935  0.00  0.00    +0.000 A 
ATOM     29  C   UNL     1      -1.967  12.052  20.264  0.00  0.00    +0.000 A 
ATOM     30  C   UNL     1      -3.048  12.326  19.420  0.00  0.00    +0.000 A 
ATOM     31  C   UNL     1      -3.222  11.572  18.262  0.00  0.00    +0.000 A 
ATOM     32  F   UNL     1      -4.265  11.830  17.461  0.00  0.00    +0.000 F 
ATOM     33  C   UNL     1      -2.328  10.555  17.941  0.00  0.00    +0.000 A 
ATOM     34  F   UNL     1      -2.504   9.834  16.826  0.00  0.00    +0.000 F 
ATOM     35  C   UNL     1      -1.249  10.268  18.772  0.00  0.00    +0.000 A 
ENDBRANCH  25  28
ENDBRANCH  23  25
ENDBRANCH   8  21
TORSDOF 5
ENDMDL
MODEL 3
REMARK VINA RESULT:      -8.7      0.984      1.400
REMARK  Name = 
REMARK  6 active torsions:
REMARK  status: ('A' for Active; 'I' for Inactive)
REMARK    1  A    between atoms: C_1  and  N_2
REMARK    2  A    between atoms: C_4  and  C_5
REMARK    3  A    between atoms: C_8  and  C_9
REMARK    4  A    between atoms: C_18  and  C_19
REMARK    5  A    between atoms: N_21  and  S_22
REMARK    6  A    between atoms: S_22  and  C_25
REMARK                            x       y       z     vdW  Elec       q    Type
REMARK                         _______ _______ _______ _____ _____    ______ ____
ROOT
ATOM      1  C   UNL     1       2.150  11.204  17.991  0.00  0.00    +0.000 C 
ATOM      2  N   UNL     1       1.242  10.870  19.066  0.00  0.00    +0.000 N 
ATOM      3  C   UNL     1       0.344  11.748  19.613  0.00  0.00    +0.000 A 
ATOM      4  C   UNL     1      -0.356  11.097  20.611  0.00  0.00    +0.000 A 
ATOM      5  C   UNL     1       0.158   9.757  20.663  0.00  0.00    +0.000 A 
ATOM      6  C   UNL     1      -0.142   8.622  21.442  0.00  0.00    +0.000 A 
ATOM      7  C   UNL     1       0.562   7.432  21.245  0.00  0.00    +0.000 A 
ATOM      8  C   UNL     1       1.556   7.324  20.266  0.00  0.00    +0.000 A 
ATOM      9  C   UNL     1       1.863   8.436  19.462  0.00  0.00    +0.000 A 
ATOM     10  C   UNL     1       1.154   9.639  19.685  0.00  0.00    +0.000 A 
ENDROOT
BRANCH   4  11
ATOM     11  C   UNL     1      -1.403  11.746  21.400  0.00  0.00    +0.000 A 
ATOM     12  C   UNL     1      -2.431  12.468  20.777  0.00  0.00    +0.000 A 
ATOM     13  C   UNL     1      -3.443  13.075  21.528  0.00  0.00    +0.000 A 
ATOM     14  C   UNL     1      -3.460  12.961  22.925  0.00  0.00    +0.000 A 
ATOM     15  C   UNL     1      -2.431  12.245  23.553  0.00  0.00    +0.000 A 
ATOM     16  C   UNL     1      -1.410  11.656  22.798  0.00  0.00    +0.000 A 
BRANCH  14  17
ATOM     17  C   UNL     1      -4.556  13.590  23.748  0.00  0.00    +0.000 C 
ATOM     18  F   UNL     1      -5.216  12.703  24.545  0.00  0.00    +0.000 F 
ATOM     19  F   UNL     1      -4.090  14.563  24.580  0.00  0.00    +0.000 F 
ATOM     20  F   UNL     1      -5.512  14.182  22.980  0.00  0.00    +0.000 F 
ENDBRANCH  14  17
ENDBRANCH   4  11
BRANCH   8  21
ATOM     21  C   UNL     1       2.212   5.984  20.147  0.00  0.00    +0.000 C 
ATOM     22  O   UNL     1       2.035   5.133  21.005  0.00  0.00    +0.000 OA
ATOM     23  N   UNL     1       2.991   5.737  19.013  0.00  0.00    +0.000 N 
ATOM     24  H   UNL     1       3.106   6.392  18.252  0.00  0.00    +0.000 HD
BRANCH  23  25
ATOM     25  S   UNL     1       3.773   4.289  18.733  0.00  0.00    +0.000 S 
ATOM     26  O   UNL     1       4.578   4.059  19.918  0.00  0.00    +0.000 OA
ATOM     27  O   UNL     1       2.800   3.314  18.299  0.00  0.00    +0.000 OA
BRANCH  25  28
ATOM     28  C   UNL     1       4.906   4.625  17.408  0.00  0.00    +0.000 A 
ATOM     29  C   UNL     1       4.829   3.890  16.215  0.00  0.00    +0.000 A 
ATOM     30  C   UNL     1       5.754   4.130  15.193  0.00  0.00    +0.000 A 
ATOM     31  C   UNL     1       6.741   5.095  15.374  0.00  0.00    +0.000 A 
ATOM     32  F   UNL     1       7.632   5.314  14.398  0.00  0.00    +0.000 F 
ATOM     33  C   UNL     1       6.808   5.822  16.560  0.00  0.00    +0.000 A 
ATOM     34  F   UNL     1       7.762   6.748  16.725  0.00  0.00    +0.000 F 
ATOM     35  C   UNL     1       5.897   5.594  17.586  0.00  0.00    +0.000 A 
ENDBRANCH  25  28
ENDBRANCH  23  25
ENDBRANCH   8  21
TORSDOF 5
ENDMDL
MODEL 4
REMARK VINA RESULT:      -8.7      3.231      4.189
REMARK  Name = 
REMARK  6 active torsions:
REMARK  status: ('A' for Active; 'I' for Inactive)
REMARK    1  A    between atoms: C_1  and  N_2
REMARK    2  A    between atoms: C_4  and  C_5
REMARK    3  A    between atoms: C_8  and  C_9
REMARK    4  A    between atoms: C_18  and  C_19
REMARK    5  A    between atoms: N_21  and  S_22
REMARK    6  A    between atoms: S_22  and  C_25
REMARK                            x       y       z     vdW  Elec       q    Type
REMARK                         _______ _______ _______ _____ _____    ______ ____
ROOT
ATOM      1  C   UNL     1      -0.303   8.805  22.293  0.00  0.00    +0.000 C 
ATOM      2  N   UNL     1       0.303   9.550  21.211  0.00  0.00    +0.000 N 
ATOM      3  C   UNL     1       0.188  10.906  21.054  0.00  0.00    +0.000 A 
ATOM      4  C   UNL     1       0.886  11.279  19.921  0.00  0.00    +0.000 A 
ATOM      5  C   UNL     1       1.445  10.076  19.372  0.00  0.00    +0.000 A 
ATOM      6  C   UNL     1       2.253   9.793  18.253  0.00  0.00    +0.000 A 
ATOM      7  C   UNL     1       2.635   8.478  17.980  0.00  0.00    +0.000 A 
ATOM      8  C   UNL     1       2.254   7.418  18.810  0.00  0.00    +0.000 A 
ATOM      9  C   UNL     1       1.462   7.675  19.943  0.00  0.00    +0.000 A 
ATOM     10  C   UNL     1       1.068   9.009  20.198  0.00  0.00    +0.000 A 
ENDROOT
BRANCH   4  11
ATOM     11  C   UNL     1       0.976  12.666  19.464  0.00  0.00    +0.000 A 
ATOM     12  C   UNL     1      -0.111  13.541  19.599  0.00  0.00    +0.000 A 
ATOM     13  C   UNL     1      -0.021  14.872  19.178  0.00  0.00    +0.000 A 
ATOM     14  C   UNL     1       1.167  15.366  18.624  0.00  0.00    +0.000 A 
ATOM     15  C   UNL     1       2.255  14.493  18.482  0.00  0.00    +0.000 A 
ATOM     16  C   UNL     1       2.154  13.157  18.886  0.00  0.00    +0.000 A 
BRANCH  14  17
ATOM     17  C   UNL     1       1.287  16.804  18.186  0.00  0.00    +0.000 C 
ATOM     18  F   UNL     1       2.359  17.039  17.377  0.00  0.00    +0.000 F 
ATOM     19  F   UNL     1       0.196  17.230  17.491  0.00  0.00    +0.000 F 
ATOM     20  F   UNL     1       1.420  17.661  19.236  0.00  0.00    +0.000 F 
ENDBRANCH  14  17
ENDBRANCH   4  11
BRANCH   8  21
ATOM     21  C   UNL     1       2.754   6.065  18.414  0.00  0.00    +0.000 C 
ATOM     22  O   UNL     1       2.118   5.378  17.629  0.00  0.00    +0.000 OA
ATOM     23  N   UNL     1       3.978   5.642  18.938  0.00  0.00    +0.000 N 
ATOM     24  H   UNL     1       4.564   6.208  19.537  0.00  0.00    +0.000 HD
BRANCH  23  25
ATOM     25  S   UNL     1       4.671   4.166  18.578  0.00  0.00    +0.000 S 
ATOM     26  O   UNL     1       5.691   3.970  19.592  0.00  0.00    +0.000 OA
ATOM     27  O   UNL     1       3.619   3.195  18.388  0.00  0.00    +0.000 OA
BRANCH  25  28
ATOM     28  C   UNL     1       5.526   4.420  17.042  0.00  0.00    +0.000 A 
ATOM     29  C   UNL     1       6.809   4.987  17.038  0.00  0.00    +0.000 A 
ATOM     30  C   UNL     1       7.457   5.227  15.822  0.00  0.00    +0.000 A 
ATOM     31  C   UNL     1       6.818   4.900  14.629  0.00  0.00    +0.000 A 
ATOM     32  F   UNL     1       7.437   5.141  13.465  0.00  0.00    +0.000 F 
ATOM     33  C   UNL     1       5.546   4.335  14.642  0.00  0.00    +0.000 A 
ATOM     34  F   UNL     1       4.938   4.024  13.489  0.00  0.00    +0.000 F 
ATOM     35  C   UNL     1       4.887   4.092  15.843  0.00  0.00    +0.000 A 
ENDBRANCH  25  28
ENDBRANCH  23  25
ENDBRANCH   8  21
TORSDOF 5
ENDMDL
MODEL 5
REMARK VINA RESULT:      -8.6      0.936      1.701
REMARK  Name = 
REMARK  6 active torsions:
REMARK  status: ('A' for Active; 'I' for Inactive)
REMARK    1  A    between atoms: C_1  and  N_2
REMARK    2  A    between atoms: C_4  and  C_5
REMARK    3  A    between atoms: C_8  and  C_9
REMARK    4  A    between atoms: C_18  and  C_19
REMARK    5  A    between atoms: N_21  and  S_22
REMARK    6  A    between atoms: S_22  and  C_25
REMARK                            x       y       z     vdW  Elec       q    Type
REMARK                         _______ _______ _______ _____ _____    ______ ____
ROOT
ATOM      1  C   UNL     1       2.146  11.086  17.873  0.00  0.00    +0.000 C 
ATOM      2  N   UNL     1       1.270  10.773  18.982  0.00  0.00    +0.000 N 
ATOM      3  C   UNL     1       0.392  11.663  19.541  0.00  0.00    +0.000 A 
ATOM      4  C   UNL     1      -0.278  11.032  20.572  0.00  0.00    +0.000 A 
ATOM      5  C   UNL     1       0.235   9.692  20.631  0.00  0.00    +0.000 A 
ATOM      6  C   UNL     1      -0.043   8.572  21.440  0.00  0.00    +0.000 A 
ATOM      7  C   UNL     1       0.653   7.376  21.242  0.00  0.00    +0.000 A 
ATOM      8  C   UNL     1       1.616   7.248  20.235  0.00  0.00    +0.000 A 
ATOM      9  C   UNL     1       1.899   8.345  19.402  0.00  0.00    +0.000 A 
ATOM     10  C   UNL     1       1.200   9.554  19.625  0.00  0.00    +0.000 A 
ENDROOT
BRANCH   4  11
ATOM     11  C   UNL     1      -1.300  11.697  21.381  0.00  0.00    +0.000 A 
ATOM     12  C   UNL     1      -1.264  11.633  22.781  0.00  0.00    +0.000 A 
ATOM     13  C   UNL     1      -2.230  12.282  23.556  0.00  0.00    +0.000 A 
ATOM     14  C   UNL     1      -3.250  13.027  22.949  0.00  0.00    +0.000 A 
ATOM     15  C   UNL     1      -3.293  13.089  21.549  0.00  0.00    +0.000 A 
ATOM     16  C   UNL     1      -2.336  12.421  20.777  0.00  0.00    +0.000 A 
BRANCH  14  17
ATOM     17  C   UNL     1      -4.286  13.751  23.772  0.00  0.00    +0.000 C 
ATOM     18  F   UNL     1      -3.752  14.576  24.716  0.00  0.00    +0.000 F 
ATOM     19  F   UNL     1      -5.100  14.534  23.011  0.00  0.00    +0.000 F 
ATOM     20  F   UNL     1      -5.108  12.899  24.444  0.00  0.00    +0.000 F 
ENDBRANCH  14  17
ENDBRANCH   4  11
BRANCH   8  21
ATOM     21  C   UNL     1       2.265   5.906  20.119  0.00  0.00    +0.000 C 
ATOM     22  O   UNL     1       2.050   5.042  20.957  0.00  0.00    +0.000 OA
ATOM     23  N   UNL     1       3.084   5.669  19.011  0.00  0.00    +0.000 N 
ATOM     24  H   UNL     1       3.233   6.335  18.265  0.00  0.00    +0.000 HD
BRANCH  23  25
ATOM     25  S   UNL     1       3.864   4.219  18.738  0.00  0.00    +0.000 S 
ATOM     26  O   UNL     1       4.662   3.989  19.928  0.00  0.00    +0.000 OA
ATOM     27  O   UNL     1       2.892   3.246  18.299  0.00  0.00    +0.000 OA
BRANCH  25  28
ATOM     28  C   UNL     1       5.007   4.551  17.419  0.00  0.00    +0.000 A 
ATOM     29  C   UNL     1       5.004   3.748  16.269  0.00  0.00    +0.000 A 
ATOM     30  C   UNL     1       5.937   3.987  15.255  0.00  0.00    +0.000 A 
ATOM     31  C   UNL     1       6.858   5.021  15.401  0.00  0.00    +0.000 A 
ATOM     32  F   UNL     1       7.758   5.240  14.432  0.00  0.00    +0.000 F 
ATOM     33  C   UNL     1       6.852   5.815  16.544  0.00  0.00    +0.000 A 
ATOM     34  F   UNL     1       7.743   6.808  16.676  0.00  0.00    +0.000 F 
ATOM     35  C   UNL     1       5.932   5.589  17.563  0.00  0.00    +0.000 A 
ENDBRANCH  25  28
ENDBRANCH  23  25
ENDBRANCH   8  21
TORSDOF 5
ENDMDL
MODEL 6
REMARK VINA RESULT:      -8.6      4.023     11.039
REMARK  Name = 
REMARK  6 active torsions:
REMARK  status: ('A' for Active; 'I' for Inactive)
REMARK    1  A    between atoms: C_1  and  N_2
REMARK    2  A    between atoms: C_4  and  C_5
REMARK    3  A    between atoms: C_8  and  C_9
REMARK    4  A    between atoms: C_18  and  C_19
REMARK    5  A    between atoms: N_21  and  S_22
REMARK    6  A    between atoms: S_22  and  C_25
REMARK                            x       y       z     vdW  Elec       q    Type
REMARK                         _______ _______ _______ _____ _____    ______ ____
ROOT
ATOM      1  C   UNL     1       2.243   4.631  21.455  0.00  0.00    +0.000 C 
ATOM      2  N   UNL     1       2.625   5.285  20.222  0.00  0.00    +0.000 N 
ATOM      3  C   UNL     1       3.353   4.685  19.229  0.00  0.00    +0.000 A 
ATOM      4  C   UNL     1       3.535   5.596  18.205  0.00  0.00    +0.000 A 
ATOM      5  C   UNL     1       2.881   6.806  18.615  0.00  0.00    +0.000 A 
ATOM      6  C   UNL     1       2.701   8.071  18.022  0.00  0.00    +0.000 A 
ATOM      7  C   UNL     1       1.997   9.069  18.701  0.00  0.00    +0.000 A 
ATOM      8  C   UNL     1       1.438   8.840  19.963  0.00  0.00    +0.000 A 
ATOM      9  C   UNL     1       1.588   7.581  20.570  0.00  0.00    +0.000 A 
ATOM     10  C   UNL     1       2.317   6.586  19.878  0.00  0.00    +0.000 A 
ENDROOT
BRANCH   4  11
ATOM     11  C   UNL     1       4.268   5.278  16.980  0.00  0.00    +0.000 A 
ATOM     12  C   UNL     1       4.809   6.294  16.180  0.00  0.00    +0.000 A 
ATOM     13  C   UNL     1       5.525   5.991  15.017  0.00  0.00    +0.000 A 
ATOM     14  C   UNL     1       5.731   4.660  14.632  0.00  0.00    +0.000 A 
ATOM     15  C   UNL     1       5.188   3.640  15.426  0.00  0.00    +0.000 A 
ATOM     16  C   UNL     1       4.455   3.948  16.578  0.00  0.00    +0.000 A 
BRANCH  14  17
ATOM     17  C   UNL     1       6.520   4.316  13.393  0.00  0.00    +0.000 C 
ATOM     18  F   UNL     1       7.174   3.124  13.478  0.00  0.00    +0.000 F 
ATOM     19  F   UNL     1       5.736   4.232  12.283  0.00  0.00    +0.000 F 
ATOM     20  F   UNL     1       7.475   5.244  13.108  0.00  0.00    +0.000 F 
ENDBRANCH  14  17
ENDBRANCH   4  11
BRANCH   8  21
ATOM     21  C   UNL     1       0.691   9.988  20.564  0.00  0.00    +0.000 C 
ATOM     22  O   UNL     1       0.929  10.348  21.707  0.00  0.00    +0.000 OA
ATOM     23  N   UNL     1      -0.248  10.646  19.765  0.00  0.00    +0.000 N 
ATOM     24  H   UNL     1      -0.425  10.420  18.796  0.00  0.00    +0.000 HD
BRANCH  23  25
ATOM     25  S   UNL     1      -1.149  11.950  20.291  0.00  0.00    +0.000 S 
ATOM     26  O   UNL     1      -1.530  11.622  21.652  0.00  0.00    +0.000 OA
ATOM     27  O   UNL     1      -0.423  13.163  19.996  0.00  0.00    +0.000 OA
BRANCH  25  28
ATOM     28  C   UNL     1      -2.638  11.902  19.323  0.00  0.00    +0.000 A 
ATOM     29  C   UNL     1      -3.826  12.444  19.836  0.00  0.00    +0.000 A 
ATOM     30  C   UNL     1      -5.005  12.361  19.087  0.00  0.00    +0.000 A 
ATOM     31  C   UNL     1      -4.983  11.740  17.841  0.00  0.00    +0.000 A 
ATOM     32  F   UNL     1      -6.116  11.653  17.132  0.00  0.00    +0.000 F 
ATOM     33  C   UNL     1      -3.799  11.207  17.339  0.00  0.00    +0.000 A 
ATOM     34  F   UNL     1      -3.788  10.610  16.139  0.00  0.00    +0.000 F 
ATOM     35  C   UNL     1      -2.619  11.279  18.072  0.00  0.00    +0.000 A 
ENDBRANCH  25  28
ENDBRANCH  23  25
ENDBRANCH   8  21
TORSDOF 5
ENDMDL
MODEL 7
REMARK VINA RESULT:      -8.6      4.147     10.914
REMARK  Name = 
REMARK  6 active torsions:
REMARK  status: ('A' for Active; 'I' for Inactive)
REMARK    1  A    between atoms: C_1  and  N_2
REMARK    2  A    between atoms: C_4  and  C_5
REMARK    3  A    between atoms: C_8  and  C_9
REMARK    4  A    between atoms: C_18  and  C_19
REMARK    5  A    between atoms: N_21  and  S_22
REMARK    6  A    between atoms: S_22  and  C_25
REMARK                            x       y       z     vdW  Elec       q    Type
REMARK                         _______ _______ _______ _____ _____    ______ ____
ROOT
ATOM      1  C   UNL     1       2.260   4.278  21.541  0.00  0.00    +0.000 C 
ATOM      2  N   UNL     1       2.633   4.976  20.330  0.00  0.00    +0.000 N 
ATOM      3  C   UNL     1       3.405   4.434  19.338  0.00  0.00    +0.000 A 
ATOM      4  C   UNL     1       3.562   5.374  18.338  0.00  0.00    +0.000 A 
ATOM      5  C   UNL     1       2.846   6.544  18.762  0.00  0.00    +0.000 A 
ATOM      6  C   UNL     1       2.617   7.813  18.193  0.00  0.00    +0.000 A 
ATOM      7  C   UNL     1       1.856   8.761  18.881  0.00  0.00    +0.000 A 
ATOM      8  C   UNL     1       1.287   8.478  20.127  0.00  0.00    +0.000 A 
ATOM      9  C   UNL     1       1.484   7.214  20.709  0.00  0.00    +0.000 A 
ATOM     10  C   UNL     1       2.271   6.269  20.010  0.00  0.00    +0.000 A 
ENDROOT
BRANCH   4  11
ATOM     11  C   UNL     1       4.331   5.118  17.119  0.00  0.00    +0.000 A 
ATOM     12  C   UNL     1       4.574   3.808  16.684  0.00  0.00    +0.000 A 
ATOM     13  C   UNL     1       5.294   3.561  15.510  0.00  0.00    +0.000 A 
ATOM     14  C   UNL     1       5.777   4.623  14.732  0.00  0.00    +0.000 A 
ATOM     15  C   UNL     1       5.540   5.934  15.167  0.00  0.00    +0.000 A 
ATOM     16  C   UNL     1       4.836   6.176  16.353  0.00  0.00    +0.000 A 
BRANCH  14  17
ATOM     17  C   UNL     1       6.535   4.374  13.453  0.00  0.00    +0.000 C 
ATOM     18  F   UNL     1       5.745   4.380  12.342  0.00  0.00    +0.000 F 
ATOM     19  F   UNL     1       7.499   5.309  13.229  0.00  0.00    +0.000 F 
ATOM     20  F   UNL     1       7.172   3.171  13.449  0.00  0.00    +0.000 F 
ENDBRANCH  14  17
ENDBRANCH   4  11
BRANCH   8  21
ATOM     21  C   UNL     1       0.476   9.576  20.739  0.00  0.00    +0.000 C 
ATOM     22  O   UNL     1      -0.244   9.349  21.699  0.00  0.00    +0.000 OA
ATOM     23  N   UNL     1       0.605  10.860  20.202  0.00  0.00    +0.000 N 
ATOM     24  H   UNL     1       1.240  11.100  19.453  0.00  0.00    +0.000 HD
BRANCH  23  25
ATOM     25  S   UNL     1      -0.222  12.188  20.787  0.00  0.00    +0.000 S 
ATOM     26  O   UNL     1      -1.593  12.001  20.349  0.00  0.00    +0.000 OA
ATOM     27  O   UNL     1       0.093  12.350  22.186  0.00  0.00    +0.000 OA
BRANCH  25  28
ATOM     28  C   UNL     1       0.418  13.569  19.871  0.00  0.00    +0.000 A 
ATOM     29  C   UNL     1       1.798  13.684  19.648  0.00  0.00    +0.000 A 
ATOM     30  C   UNL     1       2.299  14.799  18.966  0.00  0.00    +0.000 A 
ATOM     31  C   UNL     1       1.419  15.781  18.519  0.00  0.00    +0.000 A 
ATOM     32  F   UNL     1       1.904  16.852  17.876  0.00  0.00    +0.000 F 
ATOM     33  C   UNL     1       0.051  15.657  18.742  0.00  0.00    +0.000 A 
ATOM     34  F   UNL     1      -0.788  16.608  18.309  0.00  0.00    +0.000 F 
ATOM     35  C   UNL     1      -0.463  14.557  19.421  0.00  0.00    +0.000 A 
ENDBRANCH  25  28
ENDBRANCH  23  25
ENDBRANCH   8  21
TORSDOF 5
ENDMDL
MODEL 8
REMARK VINA RESULT:      -8.6      3.241      4.163
REMARK  Name = 
REMARK  6 active torsions:
REMARK  status: ('A' for Active; 'I' for Inactive)
REMARK    1  A    between atoms: C_1  and  N_2
REMARK    2  A    between atoms: C_4  and  C_5
REMARK    3  A    between atoms: C_8  and  C_9
REMARK    4  A    between atoms: C_18  and  C_19
REMARK    5  A    between atoms: N_21  and  S_22
REMARK    6  A    between atoms: S_22  and  C_25
REMARK                            x       y       z     vdW  Elec       q    Type
REMARK                         _______ _______ _______ _____ _____    ______ ____
ROOT
ATOM      1  C   UNL     1       0.114   9.290  23.048  0.00  0.00    +0.000 C 
ATOM      2  N   UNL     1       0.432   9.994  21.824  0.00  0.00    +0.000 N 
ATOM      3  C   UNL     1       0.188  11.326  21.618  0.00  0.00    +0.000 A 
ATOM      4  C   UNL     1       0.613  11.661  20.347  0.00  0.00    +0.000 A 
ATOM      5  C   UNL     1       1.136  10.459  19.761  0.00  0.00    +0.000 A 
ATOM      6  C   UNL     1       1.718  10.148  18.517  0.00  0.00    +0.000 A 
ATOM      7  C   UNL     1       2.133   8.842  18.245  0.00  0.00    +0.000 A 
ATOM      8  C   UNL     1       2.006   7.822  19.193  0.00  0.00    +0.000 A 
ATOM      9  C   UNL     1       1.445   8.108  20.450  0.00  0.00    +0.000 A 
ATOM     10  C   UNL     1       1.014   9.431  20.706  0.00  0.00    +0.000 A 
ENDROOT
BRANCH   4  11
ATOM     11  C   UNL     1       0.507  13.016  19.805  0.00  0.00    +0.000 A 
ATOM     12  C   UNL     1      -0.709  13.712  19.841  0.00  0.00    +0.000 A 
ATOM     13  C   UNL     1      -0.809  15.014  19.338  0.00  0.00    +0.000 A 
ATOM     14  C   UNL     1       0.312  15.658  18.799  0.00  0.00    +0.000 A 
ATOM     15  C   UNL     1       1.529  14.963  18.756  0.00  0.00    +0.000 A 
ATOM     16  C   UNL     1       1.619  13.654  19.242  0.00  0.00    +0.000 A 
BRANCH  14  17
ATOM     17  C   UNL     1       0.226  17.069  18.273  0.00  0.00    +0.000 C 
ATOM     18  F   UNL     1       0.075  18.006  19.251  0.00  0.00    +0.000 F 
ATOM     19  F   UNL     1       1.339  17.434  17.578  0.00  0.00    +0.000 F 
ATOM     20  F   UNL     1      -0.822  17.247  17.423  0.00  0.00    +0.000 F 
ENDBRANCH  14  17
ENDBRANCH   4  11
BRANCH   8  21
ATOM     21  C   UNL     1       2.514   6.477  18.778  0.00  0.00    +0.000 C 
ATOM     22  O   UNL     1       2.095   5.948  17.760  0.00  0.00    +0.000 OA
ATOM     23  N   UNL     1       3.499   5.878  19.568  0.00  0.00    +0.000 N 
ATOM     24  H   UNL     1       3.917   6.314  20.379  0.00  0.00    +0.000 HD
BRANCH  23  25
ATOM     25  S   UNL     1       4.172   4.389  19.225  0.00  0.00    +0.000 S 
ATOM     26  O   UNL     1       5.108   4.139  20.305  0.00  0.00    +0.000 OA
ATOM     27  O   UNL     1       3.108   3.456  18.937  0.00  0.00    +0.000 OA
BRANCH  25  28
ATOM     28  C   UNL     1       5.144   4.647  17.761  0.00  0.00    +0.000 A 
ATOM     29  C   UNL     1       4.966   3.817  16.644  0.00  0.00    +0.000 A 
ATOM     30  C   UNL     1       5.768   3.998  15.513  0.00  0.00    +0.000 A 
ATOM     31  C   UNL     1       6.733   5.001  15.509  0.00  0.00    +0.000 A 
ATOM     32  F   UNL     1       7.506   5.164  14.427  0.00  0.00    +0.000 F 
ATOM     33  C   UNL     1       6.901   5.822  16.620  0.00  0.00    +0.000 A 
ATOM     34  F   UNL     1       7.834   6.785  16.609  0.00  0.00    +0.000 F 
ATOM     35  C   UNL     1       6.114   5.654  17.755  0.00  0.00    +0.000 A 
ENDBRANCH  25  28
ENDBRANCH  23  25
ENDBRANCH   8  21
TORSDOF 5
ENDMDL
MODEL 9
REMARK VINA RESULT:      -8.5      3.747      4.732
REMARK  Name = 
REMARK  6 active torsions:
REMARK  status: ('A' for Active; 'I' for Inactive)
REMARK    1  A    between atoms: C_1  and  N_2
REMARK    2  A    between atoms: C_4  and  C_5
REMARK    3  A    between atoms: C_8  and  C_9
REMARK    4  A    between atoms: C_18  and  C_19
REMARK    5  A    between atoms: N_21  and  S_22
REMARK    6  A    between atoms: S_22  and  C_25
REMARK                            x       y       z     vdW  Elec       q    Type
REMARK                         _______ _______ _______ _____ _____    ______ ____
ROOT
ATOM      1  C   UNL     1      -0.110   9.973  22.866  0.00  0.00    +0.000 C 
ATOM      2  N   UNL     1       0.287  10.640  21.644  0.00  0.00    +0.000 N 
ATOM      3  C   UNL     1       0.137  11.982  21.419  0.00  0.00    +0.000 A 
ATOM      4  C   UNL     1       0.618  12.274  20.157  0.00  0.00    +0.000 A 
ATOM      5  C   UNL     1       1.077  11.033  19.599  0.00  0.00    +0.000 A 
ATOM      6  C   UNL     1       1.673  10.671  18.375  0.00  0.00    +0.000 A 
ATOM      7  C   UNL     1       2.010   9.338  18.127  0.00  0.00    +0.000 A 
ATOM      8  C   UNL     1       1.790   8.339  19.082  0.00  0.00    +0.000 A 
ATOM      9  C   UNL     1       1.213   8.676  20.319  0.00  0.00    +0.000 A 
ATOM     10  C   UNL     1       0.862  10.027  20.550  0.00  0.00    +0.000 A 
ENDROOT
BRANCH   4  11
ATOM     11  C   UNL     1       0.615  13.626  19.599  0.00  0.00    +0.000 A 
ATOM     12  C   UNL     1      -0.575  14.359  19.493  0.00  0.00    +0.000 A 
ATOM     13  C   UNL     1      -0.577  15.659  18.975  0.00  0.00    +0.000 A 
ATOM     14  C   UNL     1       0.617  16.264  18.562  0.00  0.00    +0.000 A 
ATOM     15  C   UNL     1       1.809  15.533  18.661  0.00  0.00    +0.000 A 
ATOM     16  C   UNL     1       1.804  14.225  19.161  0.00  0.00    +0.000 A 
BRANCH  14  17
ATOM     17  C   UNL     1       0.635  17.672  18.022  0.00  0.00    +0.000 C 
ATOM     18  F   UNL     1      -0.516  18.025  17.383  0.00  0.00    +0.000 F 
ATOM     19  F   UNL     1       0.818  18.602  19.000  0.00  0.00    +0.000 F 
ATOM     20  F   UNL     1       1.636  17.873  17.122  0.00  0.00    +0.000 F 
ENDBRANCH  14  17
ENDBRANCH   4  11
BRANCH   8  21
ATOM     21  C   UNL     1       2.220   6.960  18.695  0.00  0.00    +0.000 C 
ATOM     22  O   UNL     1       2.604   6.730  17.558  0.00  0.00    +0.000 OA
ATOM     23  N   UNL     1       2.203   5.969  19.681  0.00  0.00    +0.000 N 
ATOM     24  H   UNL     1       1.956   6.136  20.647  0.00  0.00    +0.000 HD
BRANCH  23  25
ATOM     25  S   UNL     1       2.667   4.389  19.404  0.00  0.00    +0.000 S 
ATOM     26  O   UNL     1       2.900   3.827  20.721  0.00  0.00    +0.000 OA
ATOM     27  O   UNL     1       1.722   3.782  18.496  0.00  0.00    +0.000 OA
BRANCH  25  28
ATOM     28  C   UNL     1       4.254   4.506  18.615  0.00  0.00    +0.000 A 
ATOM     29  C   UNL     1       4.443   3.965  17.334  0.00  0.00    +0.000 A 
ATOM     30  C   UNL     1       5.707   4.020  16.739  0.00  0.00    +0.000 A 
ATOM     31  C   UNL     1       6.764   4.612  17.426  0.00  0.00    +0.000 A 
ATOM     32  F   UNL     1       7.976   4.653  16.857  0.00  0.00    +0.000 F 
ATOM     33  C   UNL     1       6.567   5.149  18.695  0.00  0.00    +0.000 A 
ATOM     34  F   UNL     1       7.590   5.715  19.350  0.00  0.00    +0.000 F 
ATOM     35  C   UNL     1       5.316   5.100  19.303  0.00  0.00    +0.000 A 
ENDBRANCH  25  28
ENDBRANCH  23  25
ENDBRANCH   8  21
TORSDOF 5
ENDMDL
