MODEL 1
REMARK VINA RESULT:      -8.4      0.000      0.000
REMARK  Name = 
REMARK  8 active torsions:
REMARK  status: ('A' for Active; 'I' for Inactive)
REMARK    1  A    between atoms: C_1  and  C_2
REMARK    2  A    between atoms: C_2  and  C_3
REMARK    3  A    between atoms: C_2  and  O_4
REMARK    4  A    between atoms: O_4  and  C_5
REMARK    5  A    between atoms: C_8  and  C_9
REMARK    6  A    between atoms: C_12  and  C_13
REMARK    7  A    between atoms: C_18  and  N_19
REMARK    8  A    between atoms: N_19  and  C_20
REMARK                            x       y       z     vdW  Elec       q    Type
REMARK                         _______ _______ _______ _____ _____    ______ ____
ROOT
ATOM      1  C   UNL     1       3.185   6.754  18.435  0.00  0.00    +0.000 A 
ATOM      2  N   UNL     1       2.618   7.992  18.099  0.00  0.00    +0.000 N 
ATOM      3  C   UNL     1       1.866   8.393  19.148  0.00  0.00    +0.000 A 
ATOM      4  C   UNL     1       0.980   9.335  19.576  0.00  0.00    +0.000 A 
ATOM      5  C   UNL     1       0.646   8.905  20.878  0.00  0.00    +0.000 A 
ATOM      6  N   UNL     1       1.267   7.770  21.249  0.00  0.00    +0.000 NA
ATOM      7  N   UNL     1       2.013   7.456  20.160  0.00  0.00    +0.000 N 
ATOM      8  C   UNL     1       2.850   6.403  19.707  0.00  0.00    +0.000 A 
ATOM      9  H   UNL     1       2.606   8.310  17.138  0.00  0.00    +0.000 HD
ENDROOT
BRANCH   1  13
ATOM     10  C   UNL     1       5.464   4.506  15.622  0.00  0.00    +0.000 A 
ATOM     11  C   UNL     1       4.650   3.863  16.554  0.00  0.00    +0.000 A 
ATOM     12  C   UNL     1       3.890   4.603  17.462  0.00  0.00    +0.000 A 
ATOM     13  C   UNL     1       3.952   5.997  17.460  0.00  0.00    +0.000 A 
ATOM     14  C   UNL     1       4.763   6.649  16.528  0.00  0.00    +0.000 A 
ATOM     15  C   UNL     1       5.518   5.903  15.617  0.00  0.00    +0.000 A 
BRANCH  10  16
ATOM     16  O   UNL     1       6.247   3.889  14.685  0.00  0.00    +0.000 OA
BRANCH  16  18
ATOM     17  C   UNL     1       7.641   4.934  13.052  0.00  0.00    +0.000 C 
ATOM     18  C   UNL     1       6.242   4.403  13.347  0.00  0.00    +0.000 C 
ATOM     19  C   UNL     1       5.874   3.296  12.363  0.00  0.00    +0.000 C 
ENDBRANCH  16  18
ENDBRANCH  10  16
ENDBRANCH   1  13
BRANCH   4  20
ATOM     20  C   UNL     1       0.495  10.466  18.858  0.00  0.00    +0.000 C 
ATOM     21  N   UNL     1       0.094  11.384  18.274  0.00  0.00    +0.000 NA
ENDBRANCH   4  20
BRANCH   8  22
ATOM     22  N   UNL     1       3.073   5.228  20.423  0.00  0.00    +0.000 N 
ATOM     23  H   UNL     1       3.787   5.410  21.128  0.00  0.00    +0.000 HD
BRANCH  22  24
ATOM     24  C   UNL     1       1.970   4.463  21.041  0.00  0.00    +0.000 C 
ATOM     25  C   UNL     1       0.824   4.312  20.032  0.00  0.00    +0.000 C 
ATOM     26  C   UNL     1       1.184   3.406  18.855  0.00  0.00    +0.000 C 
ATOM     27  C   UNL     1       1.682   2.034  19.302  0.00  0.00    +0.000 C 
ATOM     28  C   UNL     1       2.783   2.118  20.353  0.00  0.00    +0.000 C 
ATOM     29  C   UNL     1       2.427   3.065  21.502  0.00  0.00    +0.000 C 
ENDBRANCH  22  24
ENDBRANCH   8  22
TORSDOF 6
ENDMDL
MODEL 2
REMARK VINA RESULT:      -7.7      2.945      6.610
REMARK  Name = 
REMARK  8 active torsions:
REMARK  status: ('A' for Active; 'I' for Inactive)
REMARK    1  A    between atoms: C_1  and  C_2
REMARK    2  A    between atoms: C_2  and  C_3
REMARK    3  A    between atoms: C_2  and  O_4
REMARK    4  A    between atoms: O_4  and  C_5
REMARK    5  A    between atoms: C_8  and  C_9
REMARK    6  A    between atoms: C_12  and  C_13
REMARK    7  A    between atoms: C_18  and  N_19
REMARK    8  A    between atoms: N_19  and  C_20
REMARK                            x       y       z     vdW  Elec       q    Type
REMARK                         _______ _______ _______ _____ _____    ______ ____
ROOT
ATOM      1  C   UNL     1       3.203   6.730  18.692  0.00  0.00    +0.000 A 
ATOM      2  N   UNL     1       4.096   6.723  17.611  0.00  0.00    +0.000 N 
ATOM      3  C   UNL     1       4.922   5.665  17.773  0.00  0.00    +0.000 A 
ATOM      4  C   UNL     1       6.033   5.046  17.285  0.00  0.00    +0.000 A 
ATOM      5  C   UNL     1       6.224   3.966  18.173  0.00  0.00    +0.000 A 
ATOM      6  N   UNL     1       5.308   3.905  19.157  0.00  0.00    +0.000 NA
ATOM      7  N   UNL     1       4.512   4.974  18.904  0.00  0.00    +0.000 N 
ATOM      8  C   UNL     1       3.418   5.654  19.499  0.00  0.00    +0.000 A 
ATOM      9  H   UNL     1       4.203   7.541  17.024  0.00  0.00    +0.000 HD
ENDROOT
BRANCH   1  13
ATOM     10  C   UNL     1       0.488   9.976  19.203  0.00  0.00    +0.000 A 
ATOM     11  C   UNL     1       0.983   9.654  17.939  0.00  0.00    +0.000 A 
ATOM     12  C   UNL     1       1.858   8.579  17.772  0.00  0.00    +0.000 A 
ATOM     13  C   UNL     1       2.263   7.823  18.874  0.00  0.00    +0.000 A 
ATOM     14  C   UNL     1       1.769   8.137  20.142  0.00  0.00    +0.000 A 
ATOM     15  C   UNL     1       0.889   9.212  20.304  0.00  0.00    +0.000 A 
BRANCH  10  16
ATOM     16  O   UNL     1      -0.373  11.000  19.487  0.00  0.00    +0.000 OA
BRANCH  16  18
ATOM     17  C   UNL     1      -2.365  11.554  18.292  0.00  0.00    +0.000 C 
ATOM     18  C   UNL     1      -0.863  11.799  18.402  0.00  0.00    +0.000 C 
ATOM     19  C   UNL     1      -0.583  13.275  18.672  0.00  0.00    +0.000 C 
ENDBRANCH  16  18
ENDBRANCH  10  16
ENDBRANCH   1  13
BRANCH   4  20
ATOM     20  C   UNL     1       6.819   5.426  16.160  0.00  0.00    +0.000 C 
ATOM     21  N   UNL     1       7.465   5.732  15.246  0.00  0.00    +0.000 NA
ENDBRANCH   4  20
BRANCH   8  22
ATOM     22  N   UNL     1       2.869   5.311  20.734  0.00  0.00    +0.000 N 
ATOM     23  H   UNL     1       2.844   6.145  21.318  0.00  0.00    +0.000 HD
BRANCH  22  24
ATOM     24  C   UNL     1       1.578   4.602  20.849  0.00  0.00    +0.000 C 
ATOM     25  C   UNL     1       1.030   4.305  19.448  0.00  0.00    +0.000 C 
ATOM     26  C   UNL     1       1.863   3.272  18.689  0.00  0.00    +0.000 C 
ATOM     27  C   UNL     1       2.044   1.976  19.474  0.00  0.00    +0.000 C 
ATOM     28  C   UNL     1       2.531   2.210  20.900  0.00  0.00    +0.000 C 
ATOM     29  C   UNL     1       1.716   3.280  21.630  0.00  0.00    +0.000 C 
ENDBRANCH  22  24
ENDBRANCH   8  22
TORSDOF 6
ENDMDL
MODEL 3
REMARK VINA RESULT:      -7.6      0.923      1.832
REMARK  Name = 
REMARK  8 active torsions:
REMARK  status: ('A' for Active; 'I' for Inactive)
REMARK    1  A    between atoms: C_1  and  C_2
REMARK    2  A    between atoms: C_2  and  C_3
REMARK    3  A    between atoms: C_2  and  O_4
REMARK    4  A    between atoms: O_4  and  C_5
REMARK    5  A    between atoms: C_8  and  C_9
REMARK    6  A    between atoms: C_12  and  C_13
REMARK    7  A    between atoms: C_18  and  N_19
REMARK    8  A    between atoms: N_19  and  C_20
REMARK                            x       y       z     vdW  Elec       q    Type
REMARK                         _______ _______ _______ _____ _____    ______ ____
ROOT
ATOM      1  C   UNL     1       3.733   6.390  17.862  0.00  0.00    +0.000 A 
ATOM      2  N   UNL     1       3.126   7.627  17.605  0.00  0.00    +0.000 N 
ATOM      3  C   UNL     1       2.397   7.957  18.694  0.00  0.00    +0.000 A 
ATOM      4  C   UNL     1       1.502   8.853  19.195  0.00  0.00    +0.000 A 
ATOM      5  C   UNL     1       1.218   8.350  20.482  0.00  0.00    +0.000 A 
ATOM      6  N   UNL     1       1.878   7.215  20.777  0.00  0.00    +0.000 NA
ATOM      7  N   UNL     1       2.598   6.974  19.653  0.00  0.00    +0.000 N 
ATOM      8  C   UNL     1       3.446   5.968  19.124  0.00  0.00    +0.000 A 
ATOM      9  H   UNL     1       3.077   7.993  16.661  0.00  0.00    +0.000 HD
ENDROOT
BRANCH   1  13
ATOM     10  C   UNL     1       5.910   4.398  14.786  0.00  0.00    +0.000 A 
ATOM     11  C   UNL     1       5.868   5.791  14.840  0.00  0.00    +0.000 A 
ATOM     12  C   UNL     1       5.170   6.441  15.860  0.00  0.00    +0.000 A 
ATOM     13  C   UNL     1       4.488   5.702  16.828  0.00  0.00    +0.000 A 
ATOM     14  C   UNL     1       4.528   4.306  16.783  0.00  0.00    +0.000 A 
ATOM     15  C   UNL     1       5.233   3.660  15.762  0.00  0.00    +0.000 A 
BRANCH  10  16
ATOM     16  O   UNL     1       6.562   3.654  13.841  0.00  0.00    +0.000 OA
BRANCH  16  18
ATOM     17  C   UNL     1       7.196   3.032  11.625  0.00  0.00    +0.000 C 
ATOM     18  C   UNL     1       6.228   3.861  12.462  0.00  0.00    +0.000 C 
ATOM     19  C   UNL     1       4.789   3.422  12.202  0.00  0.00    +0.000 C 
ENDBRANCH  16  18
ENDBRANCH  10  16
ENDBRANCH   1  13
BRANCH   4  20
ATOM     20  C   UNL     1       0.968  10.005  18.549  0.00  0.00    +0.000 C 
ATOM     21  N   UNL     1       0.540  10.946  18.023  0.00  0.00    +0.000 NA
ENDBRANCH   4  20
BRANCH   8  22
ATOM     22  N   UNL     1       3.720   4.764  19.773  0.00  0.00    +0.000 N 
ATOM     23  H   UNL     1       3.522   4.881  20.765  0.00  0.00    +0.000 HD
BRANCH  22  24
ATOM     24  C   UNL     1       3.150   3.479  19.316  0.00  0.00    +0.000 C 
ATOM     25  C   UNL     1       3.420   2.397  20.369  0.00  0.00    +0.000 C 
ATOM     26  C   UNL     1       2.638   2.619  21.664  0.00  0.00    +0.000 C 
ATOM     27  C   UNL     1       1.138   2.765  21.425  0.00  0.00    +0.000 C 
ATOM     28  C   UNL     1       0.808   3.786  20.341  0.00  0.00    +0.000 C 
ATOM     29  C   UNL     1       1.633   3.579  19.068  0.00  0.00    +0.000 C 
ENDBRANCH  22  24
ENDBRANCH   8  22
TORSDOF 6
ENDMDL
MODEL 4
REMARK VINA RESULT:      -7.6      0.805      1.438
REMARK  Name = 
REMARK  8 active torsions:
REMARK  status: ('A' for Active; 'I' for Inactive)
REMARK    1  A    between atoms: C_1  and  C_2
REMARK    2  A    between atoms: C_2  and  C_3
REMARK    3  A    between atoms: C_2  and  O_4
REMARK    4  A    between atoms: O_4  and  C_5
REMARK    5  A    between atoms: C_8  and  C_9
REMARK    6  A    between atoms: C_12  and  C_13
REMARK    7  A    between atoms: C_18  and  N_19
REMARK    8  A    between atoms: N_19  and  C_20
REMARK                            x       y       z     vdW  Elec       q    Type
REMARK                         _______ _______ _______ _____ _____    ______ ____
ROOT
ATOM      1  C   UNL     1       3.612   6.492  17.996  0.00  0.00    +0.000 A 
ATOM      2  N   UNL     1       3.002   7.730  17.747  0.00  0.00    +0.000 N 
ATOM      3  C   UNL     1       2.284   8.058  18.844  0.00  0.00    +0.000 A 
ATOM      4  C   UNL     1       1.394   8.954  19.355  0.00  0.00    +0.000 A 
ATOM      5  C   UNL     1       1.123   8.449  20.644  0.00  0.00    +0.000 A 
ATOM      6  N   UNL     1       1.786   7.314  20.932  0.00  0.00    +0.000 NA
ATOM      7  N   UNL     1       2.495   7.075  19.800  0.00  0.00    +0.000 N 
ATOM      8  C   UNL     1       3.337   6.069  19.261  0.00  0.00    +0.000 A 
ATOM      9  H   UNL     1       2.944   8.096  16.804  0.00  0.00    +0.000 HD
ENDROOT
BRANCH   1  13
ATOM     10  C   UNL     1       5.825   4.446  14.983  0.00  0.00    +0.000 A 
ATOM     11  C   UNL     1       5.000   3.743  15.861  0.00  0.00    +0.000 A 
ATOM     12  C   UNL     1       4.261   4.418  16.834  0.00  0.00    +0.000 A 
ATOM     13  C   UNL     1       4.357   5.805  16.954  0.00  0.00    +0.000 A 
ATOM     14  C   UNL     1       5.179   6.517  16.078  0.00  0.00    +0.000 A 
ATOM     15  C   UNL     1       5.913   5.837  15.101  0.00  0.00    +0.000 A 
BRANCH  10  16
ATOM     16  O   UNL     1       6.590   3.895  13.992  0.00  0.00    +0.000 OA
BRANCH  16  18
ATOM     17  C   UNL     1       7.459   4.538  11.862  0.00  0.00    +0.000 C 
ATOM     18  C   UNL     1       6.207   4.124  12.629  0.00  0.00    +0.000 C 
ATOM     19  C   UNL     1       5.614   2.851  12.032  0.00  0.00    +0.000 C 
ENDBRANCH  16  18
ENDBRANCH  10  16
ENDBRANCH   1  13
BRANCH   4  20
ATOM     20  C   UNL     1       0.853  10.106  18.715  0.00  0.00    +0.000 C 
ATOM     21  N   UNL     1       0.419  11.046  18.192  0.00  0.00    +0.000 NA
ENDBRANCH   4  20
BRANCH   8  22
ATOM     22  N   UNL     1       3.618   4.865  19.906  0.00  0.00    +0.000 N 
ATOM     23  H   UNL     1       3.379   4.963  20.891  0.00  0.00    +0.000 HD
BRANCH  22  24
ATOM     24  C   UNL     1       3.102   3.571  19.412  0.00  0.00    +0.000 C 
ATOM     25  C   UNL     1       3.394   2.475  20.445  0.00  0.00    +0.000 C 
ATOM     26  C   UNL     1       2.586   2.640  21.732  0.00  0.00    +0.000 C 
ATOM     27  C   UNL     1       1.085   2.738  21.471  0.00  0.00    +0.000 C 
ATOM     28  C   UNL     1       0.735   3.771  20.406  0.00  0.00    +0.000 C 
ATOM     29  C   UNL     1       1.586   3.622  19.142  0.00  0.00    +0.000 C 
ENDBRANCH  22  24
ENDBRANCH   8  22
TORSDOF 6
ENDMDL
MODEL 5
REMARK VINA RESULT:      -7.5      2.813      7.175
REMARK  Name = 
REMARK  8 active torsions:
REMARK  status: ('A' for Active; 'I' for Inactive)
REMARK    1  A    between atoms: C_1  and  C_2
REMARK    2  A    between atoms: C_2  and  C_3
REMARK    3  A    between atoms: C_2  and  O_4
REMARK    4  A    between atoms: O_4  and  C_5
REMARK    5  A    between atoms: C_8  and  C_9
REMARK    6  A    between atoms: C_12  and  C_13
REMARK    7  A    between atoms: C_18  and  N_19
REMARK    8  A    between atoms: N_19  and  C_20
REMARK                            x       y       z     vdW  Elec       q    Type
REMARK                         _______ _______ _______ _____ _____    ______ ____
ROOT
ATOM      1  C   UNL     1       2.457   6.350  19.257  0.00  0.00    +0.000 A 
ATOM      2  N   UNL     1       1.994   5.569  20.325  0.00  0.00    +0.000 N 
ATOM      3  C   UNL     1       2.414   4.302  20.114  0.00  0.00    +0.000 A 
ATOM      4  C   UNL     1       2.326   3.019  20.565  0.00  0.00    +0.000 A 
ATOM      5  C   UNL     1       3.099   2.291  19.637  0.00  0.00    +0.000 A 
ATOM      6  N   UNL     1       3.634   3.050  18.663  0.00  0.00    +0.000 NA
ATOM      7  N   UNL     1       3.190   4.297  18.964  0.00  0.00    +0.000 N 
ATOM      8  C   UNL     1       3.216   5.602  18.409  0.00  0.00    +0.000 A 
ATOM      9  H   UNL     1       1.267   5.914  20.940  0.00  0.00    +0.000 HD
ENDROOT
BRANCH   1  13
ATOM     10  C   UNL     1       1.243  10.419  18.888  0.00  0.00    +0.000 A 
ATOM     11  C   UNL     1       1.066   9.730  20.088  0.00  0.00    +0.000 A 
ATOM     12  C   UNL     1       1.483   8.402  20.211  0.00  0.00    +0.000 A 
ATOM     13  C   UNL     1       2.063   7.743  19.127  0.00  0.00    +0.000 A 
ATOM     14  C   UNL     1       2.247   8.428  17.923  0.00  0.00    +0.000 A 
ATOM     15  C   UNL     1       1.833   9.758  17.806  0.00  0.00    +0.000 A 
BRANCH  10  16
ATOM     16  O   UNL     1       0.880  11.717  18.651  0.00  0.00    +0.000 OA
BRANCH  16  18
ATOM     17  C   UNL     1      -0.504  13.649  18.876  0.00  0.00    +0.000 C 
ATOM     18  C   UNL     1      -0.442  12.132  19.017  0.00  0.00    +0.000 C 
ATOM     19  C   UNL     1      -1.470  11.470  18.103  0.00  0.00    +0.000 C 
ENDBRANCH  16  18
ENDBRANCH  10  16
ENDBRANCH   1  13
BRANCH   4  20
ATOM     20  C   UNL     1       1.600   2.540  21.693  0.00  0.00    +0.000 C 
ATOM     21  N   UNL     1       1.007   2.156  22.613  0.00  0.00    +0.000 NA
ENDBRANCH   4  20
BRANCH   8  22
ATOM     22  N   UNL     1       3.777   5.907  17.169  0.00  0.00    +0.000 N 
ATOM     23  H   UNL     1       3.071   6.374  16.602  0.00  0.00    +0.000 HD
BRANCH  22  24
ATOM     24  C   UNL     1       5.056   6.636  17.045  0.00  0.00    +0.000 C 
ATOM     25  C   UNL     1       6.118   5.961  17.922  0.00  0.00    +0.000 C 
ATOM     26  C   UNL     1       6.520   4.578  17.411  0.00  0.00    +0.000 C 
ATOM     27  C   UNL     1       6.972   4.601  15.954  0.00  0.00    +0.000 C 
ATOM     28  C   UNL     1       5.983   5.315  15.039  0.00  0.00    +0.000 C 
ATOM     29  C   UNL     1       5.554   6.679  15.588  0.00  0.00    +0.000 C 
ENDBRANCH  22  24
ENDBRANCH   8  22
TORSDOF 6
ENDMDL
MODEL 6
REMARK VINA RESULT:      -7.4      2.816      7.117
REMARK  Name = 
REMARK  8 active torsions:
REMARK  status: ('A' for Active; 'I' for Inactive)
REMARK    1  A    between atoms: C_1  and  C_2
REMARK    2  A    between atoms: C_2  and  C_3
REMARK    3  A    between atoms: C_2  and  O_4
REMARK    4  A    between atoms: O_4  and  C_5
REMARK    5  A    between atoms: C_8  and  C_9
REMARK    6  A    between atoms: C_12  and  C_13
REMARK    7  A    between atoms: C_18  and  N_19
REMARK    8  A    between atoms: N_19  and  C_20
REMARK                            x       y       z     vdW  Elec       q    Type
REMARK                         _______ _______ _______ _____ _____    ______ ____
ROOT
ATOM      1  C   UNL     1       2.463   6.338  19.269  0.00  0.00    +0.000 A 
ATOM      2  N   UNL     1       1.999   5.557  20.337  0.00  0.00    +0.000 N 
ATOM      3  C   UNL     1       2.421   4.290  20.128  0.00  0.00    +0.000 A 
ATOM      4  C   UNL     1       2.335   3.007  20.580  0.00  0.00    +0.000 A 
ATOM      5  C   UNL     1       3.112   2.280  19.654  0.00  0.00    +0.000 A 
ATOM      6  N   UNL     1       3.647   3.040  18.681  0.00  0.00    +0.000 NA
ATOM      7  N   UNL     1       3.200   4.286  18.980  0.00  0.00    +0.000 N 
ATOM      8  C   UNL     1       3.225   5.590  18.424  0.00  0.00    +0.000 A 
ATOM      9  H   UNL     1       1.269   5.901  20.950  0.00  0.00    +0.000 HD
ENDROOT
BRANCH   1  13
ATOM     10  C   UNL     1       1.242  10.404  18.896  0.00  0.00    +0.000 A 
ATOM     11  C   UNL     1       1.071   9.718  20.098  0.00  0.00    +0.000 A 
ATOM     12  C   UNL     1       1.490   8.391  20.223  0.00  0.00    +0.000 A 
ATOM     13  C   UNL     1       2.066   7.730  19.138  0.00  0.00    +0.000 A 
ATOM     14  C   UNL     1       2.244   8.412  17.932  0.00  0.00    +0.000 A 
ATOM     15  C   UNL     1       1.828   9.742  17.813  0.00  0.00    +0.000 A 
BRANCH  10  16
ATOM     16  O   UNL     1       0.876  11.701  18.657  0.00  0.00    +0.000 OA
BRANCH  16  18
ATOM     17  C   UNL     1       2.496  13.395  18.205  0.00  0.00    +0.000 C 
ATOM     18  C   UNL     1       1.631  12.748  19.281  0.00  0.00    +0.000 C 
ATOM     19  C   UNL     1       0.687  13.778  19.896  0.00  0.00    +0.000 C 
ENDBRANCH  16  18
ENDBRANCH  10  16
ENDBRANCH   1  13
BRANCH   4  20
ATOM     20  C   UNL     1       1.607   2.527  21.706  0.00  0.00    +0.000 C 
ATOM     21  N   UNL     1       1.008   2.139  22.621  0.00  0.00    +0.000 NA
ENDBRANCH   4  20
BRANCH   8  22
ATOM     22  N   UNL     1       3.789   5.896  17.186  0.00  0.00    +0.000 N 
ATOM     23  H   UNL     1       3.084   6.364  16.618  0.00  0.00    +0.000 HD
BRANCH  22  24
ATOM     24  C   UNL     1       5.068   6.625  17.064  0.00  0.00    +0.000 C 
ATOM     25  C   UNL     1       6.128   5.950  17.944  0.00  0.00    +0.000 C 
ATOM     26  C   UNL     1       6.531   4.567  17.434  0.00  0.00    +0.000 C 
ATOM     27  C   UNL     1       6.986   4.590  15.977  0.00  0.00    +0.000 C 
ATOM     28  C   UNL     1       5.999   5.304  15.060  0.00  0.00    +0.000 C 
ATOM     29  C   UNL     1       5.569   6.668  15.608  0.00  0.00    +0.000 C 
ENDBRANCH  22  24
ENDBRANCH   8  22
TORSDOF 6
ENDMDL
MODEL 7
REMARK VINA RESULT:      -7.4      3.295      6.699
REMARK  Name = 
REMARK  8 active torsions:
REMARK  status: ('A' for Active; 'I' for Inactive)
REMARK    1  A    between atoms: C_1  and  C_2
REMARK    2  A    between atoms: C_2  and  C_3
REMARK    3  A    between atoms: C_2  and  O_4
REMARK    4  A    between atoms: O_4  and  C_5
REMARK    5  A    between atoms: C_8  and  C_9
REMARK    6  A    between atoms: C_12  and  C_13
REMARK    7  A    between atoms: C_18  and  N_19
REMARK    8  A    between atoms: N_19  and  C_20
REMARK                            x       y       z     vdW  Elec       q    Type
REMARK                         _______ _______ _______ _____ _____    ______ ____
ROOT
ATOM      1  C   UNL     1       0.731  10.657  19.514  0.00  0.00    +0.000 A 
ATOM      2  N   UNL     1       1.161  11.532  20.521  0.00  0.00    +0.000 N 
ATOM      3  C   UNL     1       0.546  12.719  20.319  0.00  0.00    +0.000 A 
ATOM      4  C   UNL     1       0.482  14.015  20.733  0.00  0.00    +0.000 A 
ATOM      5  C   UNL     1      -0.462  14.593  19.858  0.00  0.00    +0.000 A 
ATOM      6  N   UNL     1      -0.957  13.732  18.951  0.00  0.00    +0.000 NA
ATOM      7  N   UNL     1      -0.314  12.573  19.240  0.00  0.00    +0.000 N 
ATOM      8  C   UNL     1      -0.195  11.260  18.718  0.00  0.00    +0.000 A 
ATOM      9  H   UNL     1       1.979  11.316  21.079  0.00  0.00    +0.000 HD
ENDROOT
BRANCH   1  13
ATOM     10  C   UNL     1       2.474   6.782  19.171  0.00  0.00    +0.000 A 
ATOM     11  C   UNL     1       1.877   7.191  20.364  0.00  0.00    +0.000 A 
ATOM     12  C   UNL     1       1.289   8.454  20.466  0.00  0.00    +0.000 A 
ATOM     13  C   UNL     1       1.312   9.331  19.381  0.00  0.00    +0.000 A 
ATOM     14  C   UNL     1       1.905   8.928  18.183  0.00  0.00    +0.000 A 
ATOM     15  C   UNL     1       2.487   7.661  18.083  0.00  0.00    +0.000 A 
BRANCH  10  16
ATOM     16  O   UNL     1       3.075   5.573  18.952  0.00  0.00    +0.000 OA
BRANCH  16  18
ATOM     17  C   UNL     1       3.941   3.951  17.428  0.00  0.00    +0.000 C 
ATOM     18  C   UNL     1       2.762   4.866  17.744  0.00  0.00    +0.000 C 
ATOM     19  C   UNL     1       1.488   4.047  17.934  0.00  0.00    +0.000 C 
ENDBRANCH  16  18
ENDBRANCH  10  16
ENDBRANCH   1  13
BRANCH   4  20
ATOM     20  C   UNL     1       1.221  14.632  21.784  0.00  0.00    +0.000 C 
ATOM     21  N   UNL     1       1.825  15.137  22.634  0.00  0.00    +0.000 NA
ENDBRANCH   4  20
BRANCH   8  22
ATOM     22  N   UNL     1      -0.805  10.836  17.538  0.00  0.00    +0.000 N 
ATOM     23  H   UNL     1      -0.080  10.514  16.898  0.00  0.00    +0.000 HD
BRANCH  22  24
ATOM     24  C   UNL     1      -1.917   9.863  17.535  0.00  0.00    +0.000 C 
ATOM     25  C   UNL     1      -3.059  10.388  18.414  0.00  0.00    +0.000 C 
ATOM     26  C   UNL     1      -3.747  11.619  17.822  0.00  0.00    +0.000 C 
ATOM     27  C   UNL     1      -4.237  11.387  16.396  0.00  0.00    +0.000 C 
ATOM     28  C   UNL     1      -3.160  10.805  15.487  0.00  0.00    +0.000 C 
ATOM     29  C   UNL     1      -2.449   9.603  16.113  0.00  0.00    +0.000 C 
ENDBRANCH  22  24
ENDBRANCH   8  22
TORSDOF 6
ENDMDL
MODEL 8
REMARK VINA RESULT:      -7.4      2.858      7.054
REMARK  Name = 
REMARK  8 active torsions:
REMARK  status: ('A' for Active; 'I' for Inactive)
REMARK    1  A    between atoms: C_1  and  C_2
REMARK    2  A    between atoms: C_2  and  C_3
REMARK    3  A    between atoms: C_2  and  O_4
REMARK    4  A    between atoms: O_4  and  C_5
REMARK    5  A    between atoms: C_8  and  C_9
REMARK    6  A    between atoms: C_12  and  C_13
REMARK    7  A    between atoms: C_18  and  N_19
REMARK    8  A    between atoms: N_19  and  C_20
REMARK                            x       y       z     vdW  Elec       q    Type
REMARK                         _______ _______ _______ _____ _____    ______ ____
ROOT
ATOM      1  C   UNL     1       2.782   6.241  19.714  0.00  0.00    +0.000 A 
ATOM      2  N   UNL     1       2.122   5.395  20.617  0.00  0.00    +0.000 N 
ATOM      3  C   UNL     1       2.771   4.209  20.611  0.00  0.00    +0.000 A 
ATOM      4  C   UNL     1       2.736   2.927  21.072  0.00  0.00    +0.000 A 
ATOM      5  C   UNL     1       3.865   2.331  20.473  0.00  0.00    +0.000 A 
ATOM      6  N   UNL     1       4.564   3.167  19.684  0.00  0.00    +0.000 NA
ATOM      7  N   UNL     1       3.867   4.328  19.768  0.00  0.00    +0.000 N 
ATOM      8  C   UNL     1       3.875   5.622  19.188  0.00  0.00    +0.000 A 
ATOM      9  H   UNL     1       1.193   5.620  20.952  0.00  0.00    +0.000 HD
ENDROOT
BRANCH   1  13
ATOM     10  C   UNL     1       1.158  10.076  18.807  0.00  0.00    +0.000 A 
ATOM     11  C   UNL     1       1.051   9.544  20.092  0.00  0.00    +0.000 A 
ATOM     12  C   UNL     1       1.601   8.295  20.391  0.00  0.00    +0.000 A 
ATOM     13  C   UNL     1       2.247   7.555  19.400  0.00  0.00    +0.000 A 
ATOM     14  C   UNL     1       2.361   8.082  18.111  0.00  0.00    +0.000 A 
ATOM     15  C   UNL     1       1.814   9.335  17.818  0.00  0.00    +0.000 A 
BRANCH  10  16
ATOM     16  O   UNL     1       0.664  11.284  18.399  0.00  0.00    +0.000 OA
BRANCH  16  18
ATOM     17  C   UNL     1      -0.869  13.111  18.517  0.00  0.00    +0.000 C 
ATOM     18  C   UNL     1      -0.694  11.610  18.722  0.00  0.00    +0.000 C 
ATOM     19  C   UNL     1      -1.647  10.835  17.817  0.00  0.00    +0.000 C 
ENDBRANCH  16  18
ENDBRANCH  10  16
ENDBRANCH   1  13
BRANCH   4  20
ATOM     20  C   UNL     1       1.766   2.337  21.933  0.00  0.00    +0.000 C 
ATOM     21  N   UNL     1       0.975   1.853  22.629  0.00  0.00    +0.000 NA
ENDBRANCH   4  20
BRANCH   8  22
ATOM     22  N   UNL     1       4.752   6.014  18.178  0.00  0.00    +0.000 N 
ATOM     23  H   UNL     1       5.672   5.624  18.380  0.00  0.00    +0.000 HD
BRANCH  22  24
ATOM     24  C   UNL     1       4.445   5.807  16.747  0.00  0.00    +0.000 C 
ATOM     25  C   UNL     1       5.437   6.602  15.889  0.00  0.00    +0.000 C 
ATOM     26  C   UNL     1       6.862   6.053  15.964  0.00  0.00    +0.000 C 
ATOM     27  C   UNL     1       6.935   4.568  15.622  0.00  0.00    +0.000 C 
ATOM     28  C   UNL     1       5.927   3.730  16.400  0.00  0.00    +0.000 C 
ATOM     29  C   UNL     1       4.514   4.318  16.354  0.00  0.00    +0.000 C 
ENDBRANCH  22  24
ENDBRANCH   8  22
TORSDOF 6
ENDMDL
MODEL 9
REMARK VINA RESULT:      -7.4      2.851      6.988
REMARK  Name = 
REMARK  8 active torsions:
REMARK  status: ('A' for Active; 'I' for Inactive)
REMARK    1  A    between atoms: C_1  and  C_2
REMARK    2  A    between atoms: C_2  and  C_3
REMARK    3  A    between atoms: C_2  and  O_4
REMARK    4  A    between atoms: O_4  and  C_5
REMARK    5  A    between atoms: C_8  and  C_9
REMARK    6  A    between atoms: C_12  and  C_13
REMARK    7  A    between atoms: C_18  and  N_19
REMARK    8  A    between atoms: N_19  and  C_20
REMARK                            x       y       z     vdW  Elec       q    Type
REMARK                         _______ _______ _______ _____ _____    ______ ____
ROOT
ATOM      1  C   UNL     1       2.681   6.344  19.711  0.00  0.00    +0.000 A 
ATOM      2  N   UNL     1       2.022   5.504  20.620  0.00  0.00    +0.000 N 
ATOM      3  C   UNL     1       2.666   4.315  20.616  0.00  0.00    +0.000 A 
ATOM      4  C   UNL     1       2.626   3.035  21.082  0.00  0.00    +0.000 A 
ATOM      5  C   UNL     1       3.750   2.432  20.479  0.00  0.00    +0.000 A 
ATOM      6  N   UNL     1       4.449   3.261  19.684  0.00  0.00    +0.000 NA
ATOM      7  N   UNL     1       3.758   4.426  19.767  0.00  0.00    +0.000 N 
ATOM      8  C   UNL     1       3.769   5.718  19.182  0.00  0.00    +0.000 A 
ATOM      9  H   UNL     1       1.096   5.735  20.959  0.00  0.00    +0.000 HD
ENDROOT
BRANCH   1  13
ATOM     10  C   UNL     1       1.071  10.183  18.798  0.00  0.00    +0.000 A 
ATOM     11  C   UNL     1       0.979   9.661  20.088  0.00  0.00    +0.000 A 
ATOM     12  C   UNL     1       1.524   8.411  20.389  0.00  0.00    +0.000 A 
ATOM     13  C   UNL     1       2.152   7.659  19.394  0.00  0.00    +0.000 A 
ATOM     14  C   UNL     1       2.251   8.176  18.100  0.00  0.00    +0.000 A 
ATOM     15  C   UNL     1       1.708   9.431  17.805  0.00  0.00    +0.000 A 
BRANCH  10  16
ATOM     16  O   UNL     1       0.580  11.392  18.387  0.00  0.00    +0.000 OA
BRANCH  16  18
ATOM     17  C   UNL     1       2.479  12.834  18.257  0.00  0.00    +0.000 C 
ATOM     18  C   UNL     1       1.144  12.583  18.951  0.00  0.00    +0.000 C 
ATOM     19  C   UNL     1       0.200  13.762  18.732  0.00  0.00    +0.000 C 
ENDBRANCH  16  18
ENDBRANCH  10  16
ENDBRANCH   1  13
BRANCH   4  20
ATOM     20  C   UNL     1       1.658   2.454  21.950  0.00  0.00    +0.000 C 
ATOM     21  N   UNL     1       0.869   1.986  22.659  0.00  0.00    +0.000 NA
ENDBRANCH   4  20
BRANCH   8  22
ATOM     22  N   UNL     1       4.643   6.102  18.166  0.00  0.00    +0.000 N 
ATOM     23  H   UNL     1       5.574   5.754  18.393  0.00  0.00    +0.000 HD
BRANCH  22  24
ATOM     24  C   UNL     1       4.360   5.826  16.742  0.00  0.00    +0.000 C 
ATOM     25  C   UNL     1       5.341   6.612  15.863  0.00  0.00    +0.000 C 
ATOM     26  C   UNL     1       6.780   6.107  15.979  0.00  0.00    +0.000 C 
ATOM     27  C   UNL     1       6.898   4.611  15.700  0.00  0.00    +0.000 C 
ATOM     28  C   UNL     1       5.903   3.779  16.500  0.00  0.00    +0.000 C 
ATOM     29  C   UNL     1       4.475   4.325  16.413  0.00  0.00    +0.000 C 
ENDBRANCH  22  24
ENDBRANCH   8  22
TORSDOF 6
ENDMDL
