MODEL 1
REMARK VINA RESULT:      -7.4      0.000      0.000
REMARK  Name = 
REMARK  4 active torsions:
REMARK  status: ('A' for Active; 'I' for Inactive)
REMARK    1  A    between atoms: C_1  and  C_2
REMARK    2  A    between atoms: C_2  and  N_3
REMARK    3  A    between atoms: C_2  and  C_16
REMARK    4  A    between atoms: N_6  and  C_7
REMARK                            x       y       z     vdW  Elec       q    Type
REMARK                         _______ _______ _______ _____ _____    ______ ____
ROOT
ATOM      1  N   UNL     1       7.066   7.646  17.124  0.00  0.00    +0.000 N 
ATOM      2  C   UNL     1       8.012   8.199  17.953  0.00  0.00    +0.000 C 
ATOM      3  O   UNL     1       8.571   7.516  18.804  0.00  0.00    +0.000 OA
ATOM      4  N   UNL     1       8.229   9.541  17.718  0.00  0.00    +0.000 N 
ATOM      5  H   UNL     1       6.458   8.242  16.584  0.00  0.00    +0.000 HD
ATOM      6  H   UNL     1       7.579  10.014  17.108  0.00  0.00    +0.000 HD
ENDROOT
BRANCH   4   7
ATOM      7  C   UNL     1       9.140  10.350  18.445  0.00  0.00    +0.000 A 
ATOM      8  C   UNL     1       9.092  10.461  19.853  0.00  0.00    +0.000 A 
ATOM      9  C   UNL     1       9.905  11.357  20.547  0.00  0.00    +0.000 A 
ATOM     10  C   UNL     1      10.772  12.123  19.812  0.00  0.00    +0.000 A 
ATOM     11  C   UNL     1      10.875  11.987  18.448  0.00  0.00    +0.000 A 
ATOM     12  C   UNL     1      10.091  11.096  17.735  0.00  0.00    +0.000 A 
ATOM     13  O   UNL     1      11.796  12.842  17.921  0.00  0.00    +0.000 OA
ATOM     14  C   UNL     1      12.170  13.596  19.096  0.00  0.00    +0.000 C 
ATOM     15  O   UNL     1      11.598  13.078  20.312  0.00  0.00    +0.000 OA
ENDBRANCH   4   7
BRANCH   1  17
ATOM     16  C   UNL     1       6.802   5.470  15.981  0.00  0.00    +0.000 C 
ATOM     17  C   UNL     1       6.710   6.246  17.300  0.00  0.00    +0.000 C 
BRANCH  17  18
ATOM     18  C   UNL     1       5.352   6.104  17.949  0.00  0.00    +0.000 A 
ATOM     19  C   UNL     1       4.258   6.810  17.438  0.00  0.00    +0.000 A 
ATOM     20  C   UNL     1       3.026   6.672  18.057  0.00  0.00    +0.000 A 
ATOM     21  N   UNL     1       2.813   5.884  19.131  0.00  0.00    +0.000 NA
ATOM     22  C   UNL     1       3.880   5.210  19.611  0.00  0.00    +0.000 A 
ATOM     23  C   UNL     1       5.150   5.283  19.062  0.00  0.00    +0.000 A 
ENDBRANCH  17  18
ENDBRANCH   1  17
TORSDOF 3
ENDMDL
MODEL 2
REMARK VINA RESULT:      -7.3      0.092      1.030
REMARK  Name = 
REMARK  4 active torsions:
REMARK  status: ('A' for Active; 'I' for Inactive)
REMARK    1  A    between atoms: C_1  and  C_2
REMARK    2  A    between atoms: C_2  and  N_3
REMARK    3  A    between atoms: C_2  and  C_16
REMARK    4  A    between atoms: N_6  and  C_7
REMARK                            x       y       z     vdW  Elec       q    Type
REMARK                         _______ _______ _______ _____ _____    ______ ____
ROOT
ATOM      1  N   UNL     1       7.139   7.637  17.051  0.00  0.00    +0.000 N 
ATOM      2  C   UNL     1       8.036   8.210  17.920  0.00  0.00    +0.000 C 
ATOM      3  O   UNL     1       8.529   7.553  18.830  0.00  0.00    +0.000 OA
ATOM      4  N   UNL     1       8.287   9.539  17.649  0.00  0.00    +0.000 N 
ATOM      5  H   UNL     1       6.576   8.218  16.451  0.00  0.00    +0.000 HD
ATOM      6  H   UNL     1       7.685   9.996  16.981  0.00  0.00    +0.000 HD
ENDROOT
BRANCH   4   7
ATOM      7  C   UNL     1       9.160  10.364  18.404  0.00  0.00    +0.000 A 
ATOM      8  C   UNL     1       9.103  10.431  19.814  0.00  0.00    +0.000 A 
ATOM      9  C   UNL     1       9.874  11.341  20.538  0.00  0.00    +0.000 A 
ATOM     10  C   UNL     1      10.710  12.165  19.830  0.00  0.00    +0.000 A 
ATOM     11  C   UNL     1      10.823  12.074  18.463  0.00  0.00    +0.000 A 
ATOM     12  C   UNL     1      10.080  11.172  17.721  0.00  0.00    +0.000 A 
ATOM     13  O   UNL     1      11.707  12.984  17.966  0.00  0.00    +0.000 OA
ATOM     14  C   UNL     1      12.045  13.717  19.164  0.00  0.00    +0.000 C 
ATOM     15  O   UNL     1      11.492  13.139  20.362  0.00  0.00    +0.000 OA
ENDBRANCH   4   7
BRANCH   1  17
ATOM     16  C   UNL     1       6.820   5.446  15.952  0.00  0.00    +0.000 C 
ATOM     17  C   UNL     1       6.752   6.249  17.256  0.00  0.00    +0.000 C 
BRANCH  17  18
ATOM     18  C   UNL     1       5.394   6.150  17.914  0.00  0.00    +0.000 A 
ATOM     19  C   UNL     1       5.215   5.311  19.020  0.00  0.00    +0.000 A 
ATOM     20  C   UNL     1       3.959   5.229  19.598  0.00  0.00    +0.000 A 
ATOM     21  N   UNL     1       2.886   5.920  19.159  0.00  0.00    +0.000 NA
ATOM     22  C   UNL     1       3.078   6.724  18.092  0.00  0.00    +0.000 A 
ATOM     23  C   UNL     1       4.295   6.874  17.445  0.00  0.00    +0.000 A 
ENDBRANCH  17  18
ENDBRANCH   1  17
TORSDOF 3
ENDMDL
MODEL 3
REMARK VINA RESULT:      -7.3      6.174      7.873
REMARK  Name = 
REMARK  4 active torsions:
REMARK  status: ('A' for Active; 'I' for Inactive)
REMARK    1  A    between atoms: C_1  and  C_2
REMARK    2  A    between atoms: C_2  and  N_3
REMARK    3  A    between atoms: C_2  and  C_16
REMARK    4  A    between atoms: N_6  and  C_7
REMARK                            x       y       z     vdW  Elec       q    Type
REMARK                         _______ _______ _______ _____ _____    ______ ____
ROOT
ATOM      1  N   UNL     1       3.630   4.909  19.143  0.00  0.00    +0.000 N 
ATOM      2  C   UNL     1       2.693   5.906  19.023  0.00  0.00    +0.000 C 
ATOM      3  O   UNL     1       2.023   6.012  18.001  0.00  0.00    +0.000 OA
ATOM      4  N   UNL     1       2.615   6.721  20.133  0.00  0.00    +0.000 N 
ATOM      5  H   UNL     1       4.322   4.952  19.875  0.00  0.00    +0.000 HD
ATOM      6  H   UNL     1       3.341   6.626  20.827  0.00  0.00    +0.000 HD
ENDROOT
BRANCH   4   7
ATOM      7  C   UNL     1       1.742   7.832  20.258  0.00  0.00    +0.000 A 
ATOM      8  C   UNL     1       0.863   7.982  21.354  0.00  0.00    +0.000 A 
ATOM      9  C   UNL     1      -0.082   9.006  21.404  0.00  0.00    +0.000 A 
ATOM     10  C   UNL     1      -0.120   9.883  20.350  0.00  0.00    +0.000 A 
ATOM     11  C   UNL     1       0.766   9.789  19.302  0.00  0.00    +0.000 A 
ATOM     12  C   UNL     1       1.723   8.790  19.235  0.00  0.00    +0.000 A 
ATOM     13  O   UNL     1       0.552  10.757  18.369  0.00  0.00    +0.000 OA
ATOM     14  C   UNL     1      -0.633  11.391  18.901  0.00  0.00    +0.000 C 
ATOM     15  O   UNL     1      -1.002  10.904  20.206  0.00  0.00    +0.000 OA
ENDBRANCH   4   7
BRANCH   1  17
ATOM     16  C   UNL     1       3.619   2.545  18.421  0.00  0.00    +0.000 C 
ATOM     17  C   UNL     1       3.844   4.007  18.021  0.00  0.00    +0.000 C 
BRANCH  17  18
ATOM     18  C   UNL     1       5.204   4.222  17.397  0.00  0.00    +0.000 A 
ATOM     19  C   UNL     1       5.364   4.093  16.012  0.00  0.00    +0.000 A 
ATOM     20  C   UNL     1       6.622   4.284  15.465  0.00  0.00    +0.000 A 
ATOM     21  N   UNL     1       7.715   4.596  16.193  0.00  0.00    +0.000 NA
ATOM     22  C   UNL     1       7.542   4.716  17.526  0.00  0.00    +0.000 A 
ATOM     23  C   UNL     1       6.325   4.545  18.166  0.00  0.00    +0.000 A 
ENDBRANCH  17  18
ENDBRANCH   1  17
TORSDOF 3
ENDMDL
MODEL 4
REMARK VINA RESULT:      -7.3      6.135      7.839
REMARK  Name = 
REMARK  4 active torsions:
REMARK  status: ('A' for Active; 'I' for Inactive)
REMARK    1  A    between atoms: C_1  and  C_2
REMARK    2  A    between atoms: C_2  and  N_3
REMARK    3  A    between atoms: C_2  and  C_16
REMARK    4  A    between atoms: N_6  and  C_7
REMARK                            x       y       z     vdW  Elec       q    Type
REMARK                         _______ _______ _______ _____ _____    ______ ____
ROOT
ATOM      1  N   UNL     1       3.513   4.705  19.097  0.00  0.00    +0.000 N 
ATOM      2  C   UNL     1       2.665   5.779  18.978  0.00  0.00    +0.000 C 
ATOM      3  O   UNL     1       2.088   6.003  17.920  0.00  0.00    +0.000 OA
ATOM      4  N   UNL     1       2.560   6.525  20.133  0.00  0.00    +0.000 N 
ATOM      5  H   UNL     1       4.146   4.646  19.880  0.00  0.00    +0.000 HD
ATOM      6  H   UNL     1       3.220   6.329  20.871  0.00  0.00    +0.000 HD
ENDROOT
BRANCH   4   7
ATOM      7  C   UNL     1       1.764   7.691  20.270  0.00  0.00    +0.000 A 
ATOM      8  C   UNL     1       0.876   7.876  21.354  0.00  0.00    +0.000 A 
ATOM      9  C   UNL     1       0.004   8.963  21.412  0.00  0.00    +0.000 A 
ATOM     10  C   UNL     1       0.049   9.865  20.380  0.00  0.00    +0.000 A 
ATOM     11  C   UNL     1       0.947   9.735  19.347  0.00  0.00    +0.000 A 
ATOM     12  C   UNL     1       1.833   8.674  19.272  0.00  0.00    +0.000 A 
ATOM     13  O   UNL     1       0.820  10.738  18.435  0.00  0.00    +0.000 OA
ATOM     14  C   UNL     1      -0.328  11.441  18.962  0.00  0.00    +0.000 C 
ATOM     15  O   UNL     1      -0.757  10.950  20.246  0.00  0.00    +0.000 OA
ENDBRANCH   4   7
BRANCH   1  17
ATOM     16  C   UNL     1       3.544   2.379  18.261  0.00  0.00    +0.000 C 
ATOM     17  C   UNL     1       3.748   3.863  17.934  0.00  0.00    +0.000 C 
BRANCH  17  18
ATOM     18  C   UNL     1       5.107   4.129  17.330  0.00  0.00    +0.000 A 
ATOM     19  C   UNL     1       6.185   4.464  18.158  0.00  0.00    +0.000 A 
ATOM     20  C   UNL     1       7.418   4.715  17.579  0.00  0.00    +0.000 A 
ATOM     21  N   UNL     1       7.649   4.649  16.251  0.00  0.00    +0.000 NA
ATOM     22  C   UNL     1       6.599   4.324  15.468  0.00  0.00    +0.000 A 
ATOM     23  C   UNL     1       5.328   4.056  15.952  0.00  0.00    +0.000 A 
ENDBRANCH  17  18
ENDBRANCH   1  17
TORSDOF 3
ENDMDL
MODEL 5
REMARK VINA RESULT:      -7.3      6.197      7.959
REMARK  Name = 
REMARK  4 active torsions:
REMARK  status: ('A' for Active; 'I' for Inactive)
REMARK    1  A    between atoms: C_1  and  C_2
REMARK    2  A    between atoms: C_2  and  N_3
REMARK    3  A    between atoms: C_2  and  C_16
REMARK    4  A    between atoms: N_6  and  C_7
REMARK                            x       y       z     vdW  Elec       q    Type
REMARK                         _______ _______ _______ _____ _____    ______ ____
ROOT
ATOM      1  N   UNL     1       3.726   4.959  19.576  0.00  0.00    +0.000 N 
ATOM      2  C   UNL     1       2.814   5.897  19.155  0.00  0.00    +0.000 C 
ATOM      3  O   UNL     1       2.229   5.761  18.087  0.00  0.00    +0.000 OA
ATOM      4  N   UNL     1       2.660   6.945  20.039  0.00  0.00    +0.000 N 
ATOM      5  H   UNL     1       4.358   5.173  20.331  0.00  0.00    +0.000 HD
ATOM      6  H   UNL     1       3.328   7.017  20.792  0.00  0.00    +0.000 HD
ENDROOT
BRANCH   4   7
ATOM      7  C   UNL     1       1.795   8.050  19.835  0.00  0.00    +0.000 A 
ATOM      8  C   UNL     1       1.758   8.765  18.617  0.00  0.00    +0.000 A 
ATOM      9  C   UNL     1       1.001   9.928  18.470  0.00  0.00    +0.000 A 
ATOM     10  C   UNL     1       0.273  10.349  19.552  0.00  0.00    +0.000 A 
ATOM     11  C   UNL     1       0.249   9.635  20.727  0.00  0.00    +0.000 A 
ATOM     12  C   UNL     1       0.979   8.471  20.895  0.00  0.00    +0.000 A 
ATOM     13  O   UNL     1      -0.536  10.231  21.667  0.00  0.00    +0.000 OA
ATOM     14  C   UNL     1      -0.906  11.448  20.980  0.00  0.00    +0.000 C 
ATOM     15  O   UNL     1      -0.477  11.480  19.606  0.00  0.00    +0.000 OA
ENDBRANCH   4   7
BRANCH   1  17
ATOM     16  C   UNL     1       4.211   2.536  19.519  0.00  0.00    +0.000 C 
ATOM     17  C   UNL     1       4.016   3.825  18.711  0.00  0.00    +0.000 C 
BRANCH  17  18
ATOM     18  C   UNL     1       5.192   4.112  17.806  0.00  0.00    +0.000 A 
ATOM     19  C   UNL     1       6.362   4.667  18.338  0.00  0.00    +0.000 A 
ATOM     20  C   UNL     1       7.422   4.931  17.486  0.00  0.00    +0.000 A 
ATOM     21  N   UNL     1       7.398   4.677  16.161  0.00  0.00    +0.000 NA
ATOM     22  C   UNL     1       6.262   4.142  15.666  0.00  0.00    +0.000 A 
ATOM     23  C   UNL     1       5.149   3.843  16.436  0.00  0.00    +0.000 A 
ENDBRANCH  17  18
ENDBRANCH   1  17
TORSDOF 3
ENDMDL
MODEL 6
REMARK VINA RESULT:      -7.3      6.266      7.968
REMARK  Name = 
REMARK  4 active torsions:
REMARK  status: ('A' for Active; 'I' for Inactive)
REMARK    1  A    between atoms: C_1  and  C_2
REMARK    2  A    between atoms: C_2  and  N_3
REMARK    3  A    between atoms: C_2  and  C_16
REMARK    4  A    between atoms: N_6  and  C_7
REMARK                            x       y       z     vdW  Elec       q    Type
REMARK                         _______ _______ _______ _____ _____    ______ ____
ROOT
ATOM      1  N   UNL     1       3.666   4.878  19.316  0.00  0.00    +0.000 N 
ATOM      2  C   UNL     1       2.752   5.871  19.057  0.00  0.00    +0.000 C 
ATOM      3  O   UNL     1       2.125   5.880  18.004  0.00  0.00    +0.000 OA
ATOM      4  N   UNL     1       2.646   6.797  20.074  0.00  0.00    +0.000 N 
ATOM      5  H   UNL     1       4.330   4.987  20.067  0.00  0.00    +0.000 HD
ATOM      6  H   UNL     1       3.344   6.764  20.802  0.00  0.00    +0.000 HD
ENDROOT
BRANCH   4   7
ATOM      7  C   UNL     1       1.789   7.926  20.049  0.00  0.00    +0.000 A 
ATOM      8  C   UNL     1       1.712   8.791  18.934  0.00  0.00    +0.000 A 
ATOM      9  C   UNL     1       0.967   9.970  18.967  0.00  0.00    +0.000 A 
ATOM     10  C   UNL     1       0.290  10.256  20.125  0.00  0.00    +0.000 A 
ATOM     11  C   UNL     1       0.304   9.398  21.199  0.00  0.00    +0.000 A 
ATOM     12  C   UNL     1       1.024   8.216  21.188  0.00  0.00    +0.000 A 
ATOM     13  O   UNL     1      -0.433   9.877  22.239  0.00  0.00    +0.000 OA
ATOM     14  C   UNL     1      -0.813  11.174  21.729  0.00  0.00    +0.000 C 
ATOM     15  O   UNL     1      -0.441  11.377  20.353  0.00  0.00    +0.000 OA
ENDBRANCH   4   7
BRANCH   1  17
ATOM     16  C   UNL     1       3.904   2.453  18.904  0.00  0.00    +0.000 C 
ATOM     17  C   UNL     1       3.907   3.863  18.302  0.00  0.00    +0.000 C 
BRANCH  17  18
ATOM     18  C   UNL     1       5.176   4.148  17.531  0.00  0.00    +0.000 A 
ATOM     19  C   UNL     1       5.193   4.004  16.139  0.00  0.00    +0.000 A 
ATOM     20  C   UNL     1       6.371   4.260  15.457  0.00  0.00    +0.000 A 
ATOM     21  N   UNL     1       7.515   4.652  16.058  0.00  0.00    +0.000 NA
ATOM     22  C   UNL     1       7.479   4.785  17.400  0.00  0.00    +0.000 A 
ATOM     23  C   UNL     1       6.351   4.552  18.171  0.00  0.00    +0.000 A 
ENDBRANCH  17  18
ENDBRANCH   1  17
TORSDOF 3
ENDMDL
MODEL 7
REMARK VINA RESULT:      -7.1      5.880      8.153
REMARK  Name = 
REMARK  4 active torsions:
REMARK  status: ('A' for Active; 'I' for Inactive)
REMARK    1  A    between atoms: C_1  and  C_2
REMARK    2  A    between atoms: C_2  and  N_3
REMARK    3  A    between atoms: C_2  and  C_16
REMARK    4  A    between atoms: N_6  and  C_7
REMARK                            x       y       z     vdW  Elec       q    Type
REMARK                         _______ _______ _______ _____ _____    ______ ____
ROOT
ATOM      1  N   UNL     1       1.738   8.532  19.714  0.00  0.00    +0.000 N 
ATOM      2  C   UNL     1       2.202   7.878  18.598  0.00  0.00    +0.000 C 
ATOM      3  O   UNL     1       1.832   8.215  17.479  0.00  0.00    +0.000 OA
ATOM      4  N   UNL     1       3.081   6.855  18.890  0.00  0.00    +0.000 N 
ATOM      5  H   UNL     1       1.865   8.125  20.627  0.00  0.00    +0.000 HD
ATOM      6  H   UNL     1       3.161   6.577  19.857  0.00  0.00    +0.000 HD
ENDROOT
BRANCH   4   7
ATOM      7  C   UNL     1       3.690   6.016  17.922  0.00  0.00    +0.000 A 
ATOM      8  C   UNL     1       3.321   4.661  17.759  0.00  0.00    +0.000 A 
ATOM      9  C   UNL     1       4.013   3.810  16.898  0.00  0.00    +0.000 A 
ATOM     10  C   UNL     1       5.064   4.340  16.194  0.00  0.00    +0.000 A 
ATOM     11  C   UNL     1       5.400   5.669  16.295  0.00  0.00    +0.000 A 
ATOM     12  C   UNL     1       4.722   6.540  17.131  0.00  0.00    +0.000 A 
ATOM     13  O   UNL     1       6.470   5.982  15.512  0.00  0.00    +0.000 OA
ATOM     14  C   UNL     1       6.824   4.677  15.002  0.00  0.00    +0.000 C 
ATOM     15  O   UNL     1       5.876   3.651  15.353  0.00  0.00    +0.000 OA
ENDBRANCH   4   7
BRANCH   1  17
ATOM     16  C   UNL     1       1.374  10.804  18.811  0.00  0.00    +0.000 C 
ATOM     17  C   UNL     1       0.767   9.604  19.546  0.00  0.00    +0.000 C 
BRANCH  17  18
ATOM     18  C   UNL     1       0.153   9.999  20.870  0.00  0.00    +0.000 A 
ATOM     19  C   UNL     1      -0.593  11.179  20.967  0.00  0.00    +0.000 A 
ATOM     20  C   UNL     1      -1.136  11.525  22.193  0.00  0.00    +0.000 A 
ATOM     21  N   UNL     1      -0.993  10.783  23.312  0.00  0.00    +0.000 NA
ATOM     22  C   UNL     1      -0.270   9.649  23.199  0.00  0.00    +0.000 A 
ATOM     23  C   UNL     1       0.312   9.218  22.017  0.00  0.00    +0.000 A 
ENDBRANCH  17  18
ENDBRANCH   1  17
TORSDOF 3
ENDMDL
MODEL 8
REMARK VINA RESULT:      -7.1      5.352      8.229
REMARK  Name = 
REMARK  4 active torsions:
REMARK  status: ('A' for Active; 'I' for Inactive)
REMARK    1  A    between atoms: C_1  and  C_2
REMARK    2  A    between atoms: C_2  and  N_3
REMARK    3  A    between atoms: C_2  and  C_16
REMARK    4  A    between atoms: N_6  and  C_7
REMARK                            x       y       z     vdW  Elec       q    Type
REMARK                         _______ _______ _______ _____ _____    ______ ____
ROOT
ATOM      1  N   UNL     1       3.215   5.782  19.999  0.00  0.00    +0.000 N 
ATOM      2  C   UNL     1       2.405   6.870  19.780  0.00  0.00    +0.000 C 
ATOM      3  O   UNL     1       2.157   7.243  18.639  0.00  0.00    +0.000 OA
ATOM      4  N   UNL     1       1.942   7.449  20.943  0.00  0.00    +0.000 N 
ATOM      5  H   UNL     1       3.592   5.610  20.918  0.00  0.00    +0.000 HD
ATOM      6  H   UNL     1       2.362   7.147  21.809  0.00  0.00    +0.000 HD
ENDROOT
BRANCH   4   7
ATOM      7  C   UNL     1       1.104   8.593  20.995  0.00  0.00    +0.000 A 
ATOM      8  C   UNL     1       0.878   9.415  19.868  0.00  0.00    +0.000 A 
ATOM      9  C   UNL     1       0.159  10.607  19.960  0.00  0.00    +0.000 A 
ATOM     10  C   UNL     1      -0.340  10.951  21.190  0.00  0.00    +0.000 A 
ATOM     11  C   UNL     1      -0.182  10.135  22.285  0.00  0.00    +0.000 A 
ATOM     12  C   UNL     1       0.514   8.940  22.219  0.00  0.00    +0.000 A 
ATOM     13  O   UNL     1      -0.755  10.666  23.401  0.00  0.00    +0.000 OA
ATOM     14  C   UNL     1      -1.189  11.950  22.898  0.00  0.00    +0.000 C 
ATOM     15  O   UNL     1      -1.017  12.093  21.475  0.00  0.00    +0.000 OA
ENDBRANCH   4   7
BRANCH   1  17
ATOM     16  C   UNL     1       3.814   3.585  19.038  0.00  0.00    +0.000 C 
ATOM     17  C   UNL     1       3.808   5.107  18.854  0.00  0.00    +0.000 C 
BRANCH  17  18
ATOM     18  C   UNL     1       5.187   5.648  18.552  0.00  0.00    +0.000 A 
ATOM     19  C   UNL     1       5.374   6.513  17.468  0.00  0.00    +0.000 A 
ATOM     20  C   UNL     1       6.649   6.987  17.205  0.00  0.00    +0.000 A 
ATOM     21  N   UNL     1       7.733   6.666  17.942  0.00  0.00    +0.000 NA
ATOM     22  C   UNL     1       7.534   5.831  18.983  0.00  0.00    +0.000 A 
ATOM     23  C   UNL     1       6.298   5.305  19.326  0.00  0.00    +0.000 A 
ENDBRANCH  17  18
ENDBRANCH   1  17
TORSDOF 3
ENDMDL
MODEL 9
REMARK VINA RESULT:      -7.0      5.815      8.174
REMARK  Name = 
REMARK  4 active torsions:
REMARK  status: ('A' for Active; 'I' for Inactive)
REMARK    1  A    between atoms: C_1  and  C_2
REMARK    2  A    between atoms: C_2  and  N_3
REMARK    3  A    between atoms: C_2  and  C_16
REMARK    4  A    between atoms: N_6  and  C_7
REMARK                            x       y       z     vdW  Elec       q    Type
REMARK                         _______ _______ _______ _____ _____    ______ ____
ROOT
ATOM      1  N   UNL     1       1.869   8.693  19.695  0.00  0.00    +0.000 N 
ATOM      2  C   UNL     1       2.257   7.958  18.601  0.00  0.00    +0.000 C 
ATOM      3  O   UNL     1       1.740   8.151  17.506  0.00  0.00    +0.000 OA
ATOM      4  N   UNL     1       3.239   7.032  18.884  0.00  0.00    +0.000 N 
ATOM      5  H   UNL     1       2.128   8.393  20.622  0.00  0.00    +0.000 HD
ATOM      6  H   UNL     1       3.447   6.862  19.857  0.00  0.00    +0.000 HD
ENDROOT
BRANCH   4   7
ATOM      7  C   UNL     1       3.801   6.138  17.937  0.00  0.00    +0.000 A 
ATOM      8  C   UNL     1       3.383   4.793  17.829  0.00  0.00    +0.000 A 
ATOM      9  C   UNL     1       4.029   3.888  16.987  0.00  0.00    +0.000 A 
ATOM     10  C   UNL     1       5.084   4.355  16.247  0.00  0.00    +0.000 A 
ATOM     11  C   UNL     1       5.468   5.675  16.294  0.00  0.00    +0.000 A 
ATOM     12  C   UNL     1       4.835   6.597  17.110  0.00  0.00    +0.000 A 
ATOM     13  O   UNL     1       6.533   5.922  15.482  0.00  0.00    +0.000 OA
ATOM     14  C   UNL     1       6.833   4.588  15.013  0.00  0.00    +0.000 C 
ATOM     15  O   UNL     1       5.857   3.609  15.417  0.00  0.00    +0.000 OA
ENDBRANCH   4   7
BRANCH   1  17
ATOM     16  C   UNL     1       1.290  10.917  18.785  0.00  0.00    +0.000 C 
ATOM     17  C   UNL     1       0.805   9.675  19.541  0.00  0.00    +0.000 C 
BRANCH  17  18
ATOM     18  C   UNL     1       0.186  10.026  20.874  0.00  0.00    +0.000 A 
ATOM     19  C   UNL     1       0.215   9.099  21.923  0.00  0.00    +0.000 A 
ATOM     20  C   UNL     1      -0.368   9.440  23.131  0.00  0.00    +0.000 A 
ATOM     21  N   UNL     1      -0.965  10.628  23.365  0.00  0.00    +0.000 NA
ATOM     22  C   UNL     1      -0.984  11.509  22.344  0.00  0.00    +0.000 A 
ATOM     23  C   UNL     1      -0.427  11.261  21.099  0.00  0.00    +0.000 A 
ENDBRANCH  17  18
ENDBRANCH   1  17
TORSDOF 3
ENDMDL
