MODEL 1
REMARK VINA RESULT:      -7.9      0.000      0.000
REMARK  Name = 
REMARK  5 active torsions:
REMARK  status: ('A' for Active; 'I' for Inactive)
REMARK    1  A    between atoms: C_2  and  O_3
REMARK    2  A    between atoms: C_2  and  C_4
REMARK    3  A    between atoms: C_4  and  S_5
REMARK    4  A    between atoms: S_5  and  C_6
REMARK    5  A    between atoms: C_8  and  C_9
REMARK                            x       y       z     vdW  Elec       q    Type
REMARK                         _______ _______ _______ _____ _____    ______ ____
ROOT
ATOM      1  C   UNL     1       3.068   4.430  18.070  0.00  0.00    +0.000 A 
ATOM      2  C   UNL     1       2.375   5.517  18.628  0.00  0.00    +0.000 A 
ATOM      3  C   UNL     1       2.746   6.844  18.310  0.00  0.00    +0.000 A 
ATOM      4  N   UNL     1       3.796   7.038  17.464  0.00  0.00    +0.000 NA
ATOM      5  C   UNL     1       4.496   6.018  16.906  0.00  0.00    +0.000 A 
ATOM      6  C   UNL     1       5.585   6.300  16.072  0.00  0.00    +0.000 A 
ATOM      7  C   UNL     1       6.319   5.258  15.502  0.00  0.00    +0.000 A 
ATOM      8  C   UNL     1       5.968   3.933  15.756  0.00  0.00    +0.000 A 
ATOM      9  C   UNL     1       4.889   3.638  16.596  0.00  0.00    +0.000 A 
ATOM     10  C   UNL     1       4.145   4.678  17.188  0.00  0.00    +0.000 A 
ENDROOT
BRANCH   3  11
ATOM     11  C   UNL     1       2.052   8.049  18.880  0.00  0.00    +0.000 A 
ATOM     12  C   UNL     1       1.624   8.112  20.226  0.00  0.00    +0.000 A 
ATOM     13  C   UNL     1       0.983   9.252  20.722  0.00  0.00    +0.000 A 
ATOM     14  C   UNL     1       0.757  10.348  19.892  0.00  0.00    +0.000 A 
ATOM     15  C   UNL     1       1.173  10.311  18.563  0.00  0.00    +0.000 A 
ATOM     16  C   UNL     1       1.814   9.174  18.058  0.00  0.00    +0.000 A 
ENDBRANCH   3  11
BRANCH   1  17
ATOM     17  S   UNL     1       2.653   2.738  18.582  0.00  0.00    +0.000 S 
BRANCH  17  18
ATOM     18  C   UNL     1       2.933   2.875  20.379  0.00  0.00    +0.000 C 
BRANCH  18  20
ATOM     19  O   UNL     1       1.530   2.453  22.238  0.00  0.00    +0.000 OA
ATOM     20  C   UNL     1       1.596   2.804  21.071  0.00  0.00    +0.000 C 
BRANCH  20  21
ATOM     21  O   UNL     1       0.459   3.130  20.416  0.00  0.00    +0.000 OA
ATOM     22  H   UNL     1       0.462   3.724  19.653  0.00  0.00    +0.000 HD
ENDBRANCH  20  21
ENDBRANCH  18  20
ENDBRANCH  17  18
ENDBRANCH   1  17
TORSDOF 5
ENDMDL
MODEL 2
REMARK VINA RESULT:      -7.8      0.300      1.096
REMARK  Name = 
REMARK  5 active torsions:
REMARK  status: ('A' for Active; 'I' for Inactive)
REMARK    1  A    between atoms: C_2  and  O_3
REMARK    2  A    between atoms: C_2  and  C_4
REMARK    3  A    between atoms: C_4  and  S_5
REMARK    4  A    between atoms: S_5  and  C_6
REMARK    5  A    between atoms: C_8  and  C_9
REMARK                            x       y       z     vdW  Elec       q    Type
REMARK                         _______ _______ _______ _____ _____    ______ ____
ROOT
ATOM      1  C   UNL     1       2.946   4.475  17.978  0.00  0.00    +0.000 A 
ATOM      2  C   UNL     1       2.257   5.572  18.523  0.00  0.00    +0.000 A 
ATOM      3  C   UNL     1       2.698   6.893  18.274  0.00  0.00    +0.000 A 
ATOM      4  N   UNL     1       3.811   7.070  17.508  0.00  0.00    +0.000 NA
ATOM      5  C   UNL     1       4.509   6.040  16.966  0.00  0.00    +0.000 A 
ATOM      6  C   UNL     1       5.663   6.304  16.217  0.00  0.00    +0.000 A 
ATOM      7  C   UNL     1       6.396   5.251  15.664  0.00  0.00    +0.000 A 
ATOM      8  C   UNL     1       5.978   3.934  15.851  0.00  0.00    +0.000 A 
ATOM      9  C   UNL     1       4.833   3.657  16.606  0.00  0.00    +0.000 A 
ATOM     10  C   UNL     1       4.089   4.707  17.179  0.00  0.00    +0.000 A 
ENDROOT
BRANCH   3  11
ATOM     11  C   UNL     1       2.013   8.106  18.834  0.00  0.00    +0.000 A 
ATOM     12  C   UNL     1       1.738   9.252  18.053  0.00  0.00    +0.000 A 
ATOM     13  C   UNL     1       1.096  10.363  18.610  0.00  0.00    +0.000 A 
ATOM     14  C   UNL     1       0.715  10.356  19.950  0.00  0.00    +0.000 A 
ATOM     15  C   UNL     1       0.972   9.237  20.740  0.00  0.00    +0.000 A 
ATOM     16  C   UNL     1       1.615   8.121  20.191  0.00  0.00    +0.000 A 
ENDBRANCH   3  11
BRANCH   1  17
ATOM     17  S   UNL     1       2.433   2.787  18.405  0.00  0.00    +0.000 S 
BRANCH  17  18
ATOM     18  C   UNL     1       3.167   2.646  20.069  0.00  0.00    +0.000 C 
BRANCH  18  20
ATOM     19  O   UNL     1       2.360   2.986  22.268  0.00  0.00    +0.000 OA
ATOM     20  C   UNL     1       2.078   2.877  21.085  0.00  0.00    +0.000 C 
BRANCH  20  21
ATOM     21  O   UNL     1       0.784   2.971  20.705  0.00  0.00    +0.000 OA
ATOM     22  H   UNL     1       0.529   3.029  19.773  0.00  0.00    +0.000 HD
ENDBRANCH  20  21
ENDBRANCH  18  20
ENDBRANCH  17  18
ENDBRANCH   1  17
TORSDOF 5
ENDMDL
MODEL 3
REMARK VINA RESULT:      -7.8      2.914      4.205
REMARK  Name = 
REMARK  5 active torsions:
REMARK  status: ('A' for Active; 'I' for Inactive)
REMARK    1  A    between atoms: C_2  and  O_3
REMARK    2  A    between atoms: C_2  and  C_4
REMARK    3  A    between atoms: C_4  and  S_5
REMARK    4  A    between atoms: S_5  and  C_6
REMARK    5  A    between atoms: C_8  and  C_9
REMARK                            x       y       z     vdW  Elec       q    Type
REMARK                         _______ _______ _______ _____ _____    ______ ____
ROOT
ATOM      1  C   UNL     1       4.210   5.295  17.441  0.00  0.00    +0.000 A 
ATOM      2  C   UNL     1       3.715   6.571  17.754  0.00  0.00    +0.000 A 
ATOM      3  C   UNL     1       2.580   6.717  18.585  0.00  0.00    +0.000 A 
ATOM      4  N   UNL     1       1.976   5.592  19.060  0.00  0.00    +0.000 NA
ATOM      5  C   UNL     1       2.418   4.340  18.780  0.00  0.00    +0.000 A 
ATOM      6  C   UNL     1       1.722   3.232  19.280  0.00  0.00    +0.000 A 
ATOM      7  C   UNL     1       2.162   1.939  18.988  0.00  0.00    +0.000 A 
ATOM      8  C   UNL     1       3.298   1.745  18.203  0.00  0.00    +0.000 A 
ATOM      9  C   UNL     1       3.996   2.844  17.690  0.00  0.00    +0.000 A 
ATOM     10  C   UNL     1       3.559   4.155  17.966  0.00  0.00    +0.000 A 
ENDROOT
BRANCH   3  11
ATOM     11  C   UNL     1       1.995   8.052  18.949  0.00  0.00    +0.000 A 
ATOM     12  C   UNL     1       1.902   9.118  18.024  0.00  0.00    +0.000 A 
ATOM     13  C   UNL     1       1.349  10.347  18.399  0.00  0.00    +0.000 A 
ATOM     14  C   UNL     1       0.878  10.540  19.695  0.00  0.00    +0.000 A 
ATOM     15  C   UNL     1       0.955   9.504  20.624  0.00  0.00    +0.000 A 
ATOM     16  C   UNL     1       1.508   8.271  20.258  0.00  0.00    +0.000 A 
ENDBRANCH   3  11
BRANCH   1  17
ATOM     17  S   UNL     1       5.595   5.126  16.279  0.00  0.00    +0.000 S 
BRANCH  17  18
ATOM     18  C   UNL     1       6.886   6.034  17.192  0.00  0.00    +0.000 C 
BRANCH  18  20
ATOM     19  O   UNL     1       7.496   5.226  19.331  0.00  0.00    +0.000 OA
ATOM     20  C   UNL     1       7.572   5.068  18.123  0.00  0.00    +0.000 C 
BRANCH  20  21
ATOM     21  O   UNL     1       8.272   4.018  17.638  0.00  0.00    +0.000 OA
ATOM     22  H   UNL     1       8.297   3.814  16.693  0.00  0.00    +0.000 HD
ENDBRANCH  20  21
ENDBRANCH  18  20
ENDBRANCH  17  18
ENDBRANCH   1  17
TORSDOF 5
ENDMDL
MODEL 4
REMARK VINA RESULT:      -7.7      1.476      1.577
REMARK  Name = 
REMARK  5 active torsions:
REMARK  status: ('A' for Active; 'I' for Inactive)
REMARK    1  A    between atoms: C_2  and  O_3
REMARK    2  A    between atoms: C_2  and  C_4
REMARK    3  A    between atoms: C_4  and  S_5
REMARK    4  A    between atoms: S_5  and  C_6
REMARK    5  A    between atoms: C_8  and  C_9
REMARK                            x       y       z     vdW  Elec       q    Type
REMARK                         _______ _______ _______ _____ _____    ______ ____
ROOT
ATOM      1  C   UNL     1       2.915   4.497  17.699  0.00  0.00    +0.000 A 
ATOM      2  C   UNL     1       2.210   5.564  18.280  0.00  0.00    +0.000 A 
ATOM      3  C   UNL     1       2.717   6.883  18.209  0.00  0.00    +0.000 A 
ATOM      4  N   UNL     1       3.908   7.086  17.578  0.00  0.00    +0.000 NA
ATOM      5  C   UNL     1       4.624   6.084  17.007  0.00  0.00    +0.000 A 
ATOM      6  C   UNL     1       5.856   6.369  16.406  0.00  0.00    +0.000 A 
ATOM      7  C   UNL     1       6.606   5.344  15.826  0.00  0.00    +0.000 A 
ATOM      8  C   UNL     1       6.129   4.033  15.838  0.00  0.00    +0.000 A 
ATOM      9  C   UNL     1       4.905   3.734  16.444  0.00  0.00    +0.000 A 
ATOM     10  C   UNL     1       4.141   4.755  17.044  0.00  0.00    +0.000 A 
ENDROOT
BRANCH   3  11
ATOM     11  C   UNL     1       2.018   8.065  18.818  0.00  0.00    +0.000 A 
ATOM     12  C   UNL     1       1.616   8.094  20.173  0.00  0.00    +0.000 A 
ATOM     13  C   UNL     1       0.969   9.214  20.705  0.00  0.00    +0.000 A 
ATOM     14  C   UNL     1       0.711  10.324  19.904  0.00  0.00    +0.000 A 
ATOM     15  C   UNL     1       1.100  10.320  18.566  0.00  0.00    +0.000 A 
ATOM     16  C   UNL     1       1.748   9.203  18.025  0.00  0.00    +0.000 A 
ENDBRANCH   3  11
BRANCH   1  17
ATOM     17  S   UNL     1       2.306   2.799  17.902  0.00  0.00    +0.000 S 
BRANCH  17  18
ATOM     18  C   UNL     1       2.853   2.470  19.611  0.00  0.00    +0.000 C 
BRANCH  18  20
ATOM     19  O   UNL     1       5.011   1.895  20.394  0.00  0.00    +0.000 OA
ATOM     20  C   UNL     1       4.148   1.703  19.552  0.00  0.00    +0.000 C 
BRANCH  20  21
ATOM     21  O   UNL     1       4.371   0.795  18.576  0.00  0.00    +0.000 OA
ATOM     22  H   UNL     1       4.892  -0.005  18.732  0.00  0.00    +0.000 HD
ENDBRANCH  20  21
ENDBRANCH  18  20
ENDBRANCH  17  18
ENDBRANCH   1  17
TORSDOF 5
ENDMDL
MODEL 5
REMARK VINA RESULT:      -7.7      2.912      3.971
REMARK  Name = 
REMARK  5 active torsions:
REMARK  status: ('A' for Active; 'I' for Inactive)
REMARK    1  A    between atoms: C_2  and  O_3
REMARK    2  A    between atoms: C_2  and  C_4
REMARK    3  A    between atoms: C_4  and  S_5
REMARK    4  A    between atoms: S_5  and  C_6
REMARK    5  A    between atoms: C_8  and  C_9
REMARK                            x       y       z     vdW  Elec       q    Type
REMARK                         _______ _______ _______ _____ _____    ______ ____
ROOT
ATOM      1  C   UNL     1       4.364   5.659  17.329  0.00  0.00    +0.000 A 
ATOM      2  C   UNL     1       3.819   6.896  17.712  0.00  0.00    +0.000 A 
ATOM      3  C   UNL     1       2.623   6.951  18.466  0.00  0.00    +0.000 A 
ATOM      4  N   UNL     1       2.012   5.780  18.798  0.00  0.00    +0.000 NA
ATOM      5  C   UNL     1       2.501   4.563  18.445  0.00  0.00    +0.000 A 
ATOM      6  C   UNL     1       1.795   3.405  18.796  0.00  0.00    +0.000 A 
ATOM      7  C   UNL     1       2.284   2.149  18.429  0.00  0.00    +0.000 A 
ATOM      8  C   UNL     1       3.478   2.043  17.717  0.00  0.00    +0.000 A 
ATOM      9  C   UNL     1       4.187   3.192  17.352  0.00  0.00    +0.000 A 
ATOM     10  C   UNL     1       3.702   4.467  17.705  0.00  0.00    +0.000 A 
ENDROOT
BRANCH   3  11
ATOM     11  C   UNL     1       1.984   8.240  18.897  0.00  0.00    +0.000 A 
ATOM     12  C   UNL     1       1.436   8.422  20.188  0.00  0.00    +0.000 A 
ATOM     13  C   UNL     1       0.850   9.638  20.554  0.00  0.00    +0.000 A 
ATOM     14  C   UNL     1       0.799  10.694  19.647  0.00  0.00    +0.000 A 
ATOM     15  C   UNL     1       1.334  10.541  18.370  0.00  0.00    +0.000 A 
ATOM     16  C   UNL     1       1.922   9.327  17.995  0.00  0.00    +0.000 A 
ENDBRANCH   3  11
BRANCH   1  17
ATOM     17  S   UNL     1       5.833   5.613  16.264  0.00  0.00    +0.000 S 
BRANCH  17  18
ATOM     18  C   UNL     1       7.069   6.325  17.400  0.00  0.00    +0.000 C 
BRANCH  18  20
ATOM     19  O   UNL     1       7.554   5.415  19.529  0.00  0.00    +0.000 OA
ATOM     20  C   UNL     1       7.545   5.233  18.322  0.00  0.00    +0.000 C 
BRANCH  20  21
ATOM     21  O   UNL     1       7.961   4.044  17.831  0.00  0.00    +0.000 OA
ATOM     22  H   UNL     1       8.714   3.571  18.211  0.00  0.00    +0.000 HD
ENDBRANCH  20  21
ENDBRANCH  18  20
ENDBRANCH  17  18
ENDBRANCH   1  17
TORSDOF 5
ENDMDL
MODEL 6
REMARK VINA RESULT:      -7.6      1.160      1.669
REMARK  Name = 
REMARK  5 active torsions:
REMARK  status: ('A' for Active; 'I' for Inactive)
REMARK    1  A    between atoms: C_2  and  O_3
REMARK    2  A    between atoms: C_2  and  C_4
REMARK    3  A    between atoms: C_4  and  S_5
REMARK    4  A    between atoms: S_5  and  C_6
REMARK    5  A    between atoms: C_8  and  C_9
REMARK                            x       y       z     vdW  Elec       q    Type
REMARK                         _______ _______ _______ _____ _____    ______ ____
ROOT
ATOM      1  C   UNL     1       3.221   4.332  17.580  0.00  0.00    +0.000 A 
ATOM      2  C   UNL     1       2.470   5.358  18.177  0.00  0.00    +0.000 A 
ATOM      3  C   UNL     1       2.900   6.703  18.094  0.00  0.00    +0.000 A 
ATOM      4  N   UNL     1       4.062   6.973  17.436  0.00  0.00    +0.000 NA
ATOM      5  C   UNL     1       4.821   6.012  16.849  0.00  0.00    +0.000 A 
ATOM      6  C   UNL     1       6.021   6.366  16.220  0.00  0.00    +0.000 A 
ATOM      7  C   UNL     1       6.815   5.385  15.622  0.00  0.00    +0.000 A 
ATOM      8  C   UNL     1       6.413   4.049  15.645  0.00  0.00    +0.000 A 
ATOM      9  C   UNL     1       5.222   3.682  16.279  0.00  0.00    +0.000 A 
ATOM     10  C   UNL     1       4.415   4.659  16.897  0.00  0.00    +0.000 A 
ENDROOT
BRANCH   3  11
ATOM     11  C   UNL     1       2.149   7.844  18.719  0.00  0.00    +0.000 A 
ATOM     12  C   UNL     1       1.744   8.981  17.982  0.00  0.00    +0.000 A 
ATOM     13  C   UNL     1       1.044  10.024  18.600  0.00  0.00    +0.000 A 
ATOM     14  C   UNL     1       0.734   9.956  19.956  0.00  0.00    +0.000 A 
ATOM     15  C   UNL     1       1.119   8.845  20.703  0.00  0.00    +0.000 A 
ATOM     16  C   UNL     1       1.821   7.797  20.094  0.00  0.00    +0.000 A 
ENDBRANCH   3  11
BRANCH   1  17
ATOM     17  S   UNL     1       2.714   2.602  17.797  0.00  0.00    +0.000 S 
BRANCH  17  18
ATOM     18  C   UNL     1       2.384   2.593  19.591  0.00  0.00    +0.000 C 
BRANCH  18  20
ATOM     19  O   UNL     1       3.698   2.210  21.521  0.00  0.00    +0.000 OA
ATOM     20  C   UNL     1       3.686   2.350  20.308  0.00  0.00    +0.000 C 
BRANCH  20  21
ATOM     21  O   UNL     1       4.851   2.278  19.625  0.00  0.00    +0.000 OA
ATOM     22  H   UNL     1       5.021   1.579  18.979  0.00  0.00    +0.000 HD
ENDBRANCH  20  21
ENDBRANCH  18  20
ENDBRANCH  17  18
ENDBRANCH   1  17
TORSDOF 5
ENDMDL
MODEL 7
REMARK VINA RESULT:      -7.6      1.306      1.843
REMARK  Name = 
REMARK  5 active torsions:
REMARK  status: ('A' for Active; 'I' for Inactive)
REMARK    1  A    between atoms: C_2  and  O_3
REMARK    2  A    between atoms: C_2  and  C_4
REMARK    3  A    between atoms: C_4  and  S_5
REMARK    4  A    between atoms: S_5  and  C_6
REMARK    5  A    between atoms: C_8  and  C_9
REMARK                            x       y       z     vdW  Elec       q    Type
REMARK                         _______ _______ _______ _____ _____    ______ ____
ROOT
ATOM      1  C   UNL     1       3.505   4.679  19.046  0.00  0.00    +0.000 A 
ATOM      2  C   UNL     1       2.715   5.695  19.607  0.00  0.00    +0.000 A 
ATOM      3  C   UNL     1       2.649   6.972  19.001  0.00  0.00    +0.000 A 
ATOM      4  N   UNL     1       3.380   7.191  17.873  0.00  0.00    +0.000 NA
ATOM      5  C   UNL     1       4.160   6.240  17.298  0.00  0.00    +0.000 A 
ATOM      6  C   UNL     1       4.908   6.553  16.156  0.00  0.00    +0.000 A 
ATOM      7  C   UNL     1       5.721   5.586  15.564  0.00  0.00    +0.000 A 
ATOM      8  C   UNL     1       5.789   4.301  16.104  0.00  0.00    +0.000 A 
ATOM      9  C   UNL     1       5.055   3.979  17.250  0.00  0.00    +0.000 A 
ATOM     10  C   UNL     1       4.238   4.947  17.866  0.00  0.00    +0.000 A 
ENDROOT
BRANCH   3  11
ATOM     11  C   UNL     1       1.833   8.103  19.557  0.00  0.00    +0.000 A 
ATOM     12  C   UNL     1       1.460   9.224  18.780  0.00  0.00    +0.000 A 
ATOM     13  C   UNL     1       0.697  10.259  19.333  0.00  0.00    +0.000 A 
ATOM     14  C   UNL     1       0.290  10.198  20.664  0.00  0.00    +0.000 A 
ATOM     15  C   UNL     1       0.642   9.102  21.449  0.00  0.00    +0.000 A 
ATOM     16  C   UNL     1       1.406   8.063  20.905  0.00  0.00    +0.000 A 
ENDBRANCH   3  11
BRANCH   1  17
ATOM     17  S   UNL     1       3.667   3.087  19.902  0.00  0.00    +0.000 S 
BRANCH  17  18
ATOM     18  C   UNL     1       1.907   2.641  20.075  0.00  0.00    +0.000 C 
BRANCH  18  20
ATOM     19  O   UNL     1       0.221   2.173  18.482  0.00  0.00    +0.000 OA
ATOM     20  C   UNL     1       1.413   2.145  18.741  0.00  0.00    +0.000 C 
BRANCH  20  21
ATOM     21  O   UNL     1       2.277   1.670  17.816  0.00  0.00    +0.000 OA
ATOM     22  H   UNL     1       3.212   1.523  18.018  0.00  0.00    +0.000 HD
ENDBRANCH  20  21
ENDBRANCH  18  20
ENDBRANCH  17  18
ENDBRANCH   1  17
TORSDOF 5
ENDMDL
MODEL 8
REMARK VINA RESULT:      -7.6      1.296      1.495
REMARK  Name = 
REMARK  5 active torsions:
REMARK  status: ('A' for Active; 'I' for Inactive)
REMARK    1  A    between atoms: C_2  and  O_3
REMARK    2  A    between atoms: C_2  and  C_4
REMARK    3  A    between atoms: C_4  and  S_5
REMARK    4  A    between atoms: S_5  and  C_6
REMARK    5  A    between atoms: C_8  and  C_9
REMARK                            x       y       z     vdW  Elec       q    Type
REMARK                         _______ _______ _______ _____ _____    ______ ____
ROOT
ATOM      1  C   UNL     1       3.520   4.665  19.026  0.00  0.00    +0.000 A 
ATOM      2  C   UNL     1       2.725   5.675  19.593  0.00  0.00    +0.000 A 
ATOM      3  C   UNL     1       2.655   6.955  18.995  0.00  0.00    +0.000 A 
ATOM      4  N   UNL     1       3.386   7.184  17.868  0.00  0.00    +0.000 NA
ATOM      5  C   UNL     1       4.170   6.239  17.289  0.00  0.00    +0.000 A 
ATOM      6  C   UNL     1       4.917   6.563  16.149  0.00  0.00    +0.000 A 
ATOM      7  C   UNL     1       5.735   5.602  15.551  0.00  0.00    +0.000 A 
ATOM      8  C   UNL     1       5.807   4.315  16.084  0.00  0.00    +0.000 A 
ATOM      9  C   UNL     1       5.074   3.982  17.227  0.00  0.00    +0.000 A 
ATOM     10  C   UNL     1       4.252   4.944  17.849  0.00  0.00    +0.000 A 
ENDROOT
BRANCH   3  11
ATOM     11  C   UNL     1       1.834   8.080  19.557  0.00  0.00    +0.000 A 
ATOM     12  C   UNL     1       1.357   8.080  20.888  0.00  0.00    +0.000 A 
ATOM     13  C   UNL     1       0.595   9.147  21.377  0.00  0.00    +0.000 A 
ATOM     14  C   UNL     1       0.297  10.232  20.556  0.00  0.00    +0.000 A 
ATOM     15  C   UNL     1       0.758  10.257  19.242  0.00  0.00    +0.000 A 
ATOM     16  C   UNL     1       1.519   9.193  18.744  0.00  0.00    +0.000 A 
ENDBRANCH   3  11
BRANCH   1  17
ATOM     17  S   UNL     1       3.687   3.068  19.873  0.00  0.00    +0.000 S 
BRANCH  17  18
ATOM     18  C   UNL     1       1.928   2.632  20.073  0.00  0.00    +0.000 C 
BRANCH  18  20
ATOM     19  O   UNL     1       0.210   2.153  18.517  0.00  0.00    +0.000 OA
ATOM     20  C   UNL     1       1.409   2.143  18.745  0.00  0.00    +0.000 C 
BRANCH  20  21
ATOM     21  O   UNL     1       2.258   1.694  17.793  0.00  0.00    +0.000 OA
ATOM     22  H   UNL     1       2.943   1.040  17.988  0.00  0.00    +0.000 HD
ENDBRANCH  20  21
ENDBRANCH  18  20
ENDBRANCH  17  18
ENDBRANCH   1  17
TORSDOF 5
ENDMDL
MODEL 9
REMARK VINA RESULT:      -7.6      0.936      1.579
REMARK  Name = 
REMARK  5 active torsions:
REMARK  status: ('A' for Active; 'I' for Inactive)
REMARK    1  A    between atoms: C_2  and  O_3
REMARK    2  A    between atoms: C_2  and  C_4
REMARK    3  A    between atoms: C_4  and  S_5
REMARK    4  A    between atoms: S_5  and  C_6
REMARK    5  A    between atoms: C_8  and  C_9
REMARK                            x       y       z     vdW  Elec       q    Type
REMARK                         _______ _______ _______ _____ _____    ______ ____
ROOT
ATOM      1  C   UNL     1       3.298   4.622  17.484  0.00  0.00    +0.000 A 
ATOM      2  C   UNL     1       2.451   5.600  18.032  0.00  0.00    +0.000 A 
ATOM      3  C   UNL     1       2.897   6.933  18.185  0.00  0.00    +0.000 A 
ATOM      4  N   UNL     1       4.169   7.238  17.802  0.00  0.00    +0.000 NA
ATOM      5  C   UNL     1       5.022   6.325  17.273  0.00  0.00    +0.000 A 
ATOM      6  C   UNL     1       6.326   6.709  16.934  0.00  0.00    +0.000 A 
ATOM      7  C   UNL     1       7.215   5.776  16.400  0.00  0.00    +0.000 A 
ATOM      8  C   UNL     1       6.808   4.457  16.195  0.00  0.00    +0.000 A 
ATOM      9  C   UNL     1       5.512   4.058  16.538  0.00  0.00    +0.000 A 
ATOM     10  C   UNL     1       4.606   4.986  17.089  0.00  0.00    +0.000 A 
ENDROOT
BRANCH   3  11
ATOM     11  C   UNL     1       2.045   8.022  18.773  0.00  0.00    +0.000 A 
ATOM     12  C   UNL     1       1.531   9.086  17.997  0.00  0.00    +0.000 A 
ATOM     13  C   UNL     1       0.739  10.081  18.580  0.00  0.00    +0.000 A 
ATOM     14  C   UNL     1       0.443  10.037  19.940  0.00  0.00    +0.000 A 
ATOM     15  C   UNL     1       0.937   8.997  20.726  0.00  0.00    +0.000 A 
ATOM     16  C   UNL     1       1.731   7.998  20.151  0.00  0.00    +0.000 A 
ENDBRANCH   3  11
BRANCH   1  17
ATOM     17  S   UNL     1       2.746   2.895  17.404  0.00  0.00    +0.000 S 
BRANCH  17  18
ATOM     18  C   UNL     1       2.442   2.579  19.175  0.00  0.00    +0.000 C 
BRANCH  18  20
ATOM     19  O   UNL     1       0.184   2.187  18.584  0.00  0.00    +0.000 OA
ATOM     20  C   UNL     1       0.956   2.638  19.416  0.00  0.00    +0.000 C 
BRANCH  20  21
ATOM     21  O   UNL     1       0.459   3.181  20.549  0.00  0.00    +0.000 OA
ATOM     22  H   UNL     1       0.288   4.130  20.628  0.00  0.00    +0.000 HD
ENDBRANCH  20  21
ENDBRANCH  18  20
ENDBRANCH  17  18
ENDBRANCH   1  17
TORSDOF 5
ENDMDL
