MODEL 1
REMARK VINA RESULT:      -9.0      0.000      0.000
REMARK  Name = 
REMARK  3 active torsions:
REMARK  status: ('A' for Active; 'I' for Inactive)
REMARK    1  A    between atoms: C_1  and  N_2
REMARK    2  A    between atoms: C_12  and  C_13
REMARK    3  A    between atoms: C_18  and  C_19
REMARK                            x       y       z     vdW  Elec       q    Type
REMARK                         _______ _______ _______ _____ _____    ______ ____
ROOT
ATOM      1  C   UNL     1      -0.896  14.821  23.431  0.00  0.00    +0.000 C 
ATOM      2  N   UNL     1      -0.490  13.470  23.068  0.00  0.00    +0.000 NA
ATOM      3  C   UNL     1       0.010  13.379  21.655  0.00  0.00    +0.000 C 
ATOM      4  C   UNL     1      -0.898  12.301  21.004  0.00  0.00    +0.000 C 
ATOM      5  C   UNL     1      -2.231  12.641  21.676  0.00  0.00    +0.000 C 
ATOM      6  C   UNL     1      -1.637  12.513  23.080  0.00  0.00    +0.000 C 
ATOM      7  C   UNL     1      -1.060  11.064  23.016  0.00  0.00    +0.000 C 
ATOM      8  N   UNL     1      -0.622  10.995  21.621  0.00  0.00    +0.000 N 
ATOM      9  C   UNL     1       0.143  10.018  21.063  0.00  0.00    +0.000 A 
ATOM     10  C   UNL     1       0.459   8.864  21.772  0.00  0.00    +0.000 A 
ATOM     11  C   UNL     1       1.216   7.853  21.180  0.00  0.00    +0.000 A 
ATOM     12  C   UNL     1       1.678   7.989  19.870  0.00  0.00    +0.000 A 
ATOM     13  C   UNL     1       1.303   9.171  19.236  0.00  0.00    +0.000 A 
ATOM     14  N   UNL     1       0.560  10.167  19.791  0.00  0.00    +0.000 NA
ENDROOT
BRANCH  12  15
ATOM     15  C   UNL     1       2.534   6.965  19.234  0.00  0.00    +0.000 A 
ATOM     16  C   UNL     1       2.643   5.663  19.750  0.00  0.00    +0.000 A 
ATOM     17  C   UNL     1       3.420   4.670  19.131  0.00  0.00    +0.000 A 
ATOM     18  C   UNL     1       4.104   5.020  17.964  0.00  0.00    +0.000 A 
ATOM     19  N   UNL     1       4.912   4.269  17.143  0.00  0.00    +0.000 N 
ATOM     20  C   UNL     1       5.364   5.031  16.091  0.00  0.00    +0.000 A 
ATOM     21  C   UNL     1       4.851   6.302  16.253  0.00  0.00    +0.000 A 
ATOM     22  C   UNL     1       4.046   6.299  17.421  0.00  0.00    +0.000 A 
ATOM     23  C   UNL     1       3.256   7.271  18.061  0.00  0.00    +0.000 A 
ATOM     24  H   UNL     1       5.128   3.290  17.284  0.00  0.00    +0.000 HD
BRANCH  20  25
ATOM     25  C   UNL     1       6.229   4.460  15.035  0.00  0.00    +0.000 C 
ATOM     26  F   UNL     1       7.484   4.973  15.088  0.00  0.00    +0.000 F 
ATOM     27  F   UNL     1       6.344   3.115  15.154  0.00  0.00    +0.000 F 
ATOM     28  F   UNL     1       5.748   4.715  13.794  0.00  0.00    +0.000 F 
ENDBRANCH  20  25
ENDBRANCH  12  15
TORSDOF 2
ENDMDL
MODEL 2
REMARK VINA RESULT:      -8.5      5.705     10.294
REMARK  Name = 
REMARK  3 active torsions:
REMARK  status: ('A' for Active; 'I' for Inactive)
REMARK    1  A    between atoms: C_1  and  N_2
REMARK    2  A    between atoms: C_12  and  C_13
REMARK    3  A    between atoms: C_18  and  C_19
REMARK                            x       y       z     vdW  Elec       q    Type
REMARK                         _______ _______ _______ _____ _____    ______ ____
ROOT
ATOM      1  C   UNL     1       7.758   4.494  17.910  0.00  0.00    +0.000 C 
ATOM      2  N   UNL     1       6.628   5.413  17.871  0.00  0.00    +0.000 NA
ATOM      3  C   UNL     1       5.896   5.483  19.181  0.00  0.00    +0.000 C 
ATOM      4  C   UNL     1       4.434   5.111  18.815  0.00  0.00    +0.000 C 
ATOM      5  C   UNL     1       4.695   4.032  17.760  0.00  0.00    +0.000 C 
ATOM      6  C   UNL     1       5.568   4.965  16.919  0.00  0.00    +0.000 C 
ATOM      7  C   UNL     1       4.582   6.155  16.695  0.00  0.00    +0.000 C 
ATOM      8  N   UNL     1       3.860   6.168  17.969  0.00  0.00    +0.000 N 
ATOM      9  C   UNL     1       3.011   7.137  18.405  0.00  0.00    +0.000 A 
ATOM     10  C   UNL     1       2.619   8.174  17.566  0.00  0.00    +0.000 A 
ATOM     11  C   UNL     1       1.721   9.145  18.012  0.00  0.00    +0.000 A 
ATOM     12  C   UNL     1       1.212   9.096  19.311  0.00  0.00    +0.000 A 
ATOM     13  C   UNL     1       1.652   8.017  20.072  0.00  0.00    +0.000 A 
ATOM     14  N   UNL     1       2.521   7.056  19.656  0.00  0.00    +0.000 NA
ENDROOT
BRANCH  12  15
ATOM     15  C   UNL     1       0.308  10.143  19.834  0.00  0.00    +0.000 A 
ATOM     16  C   UNL     1      -0.208  11.158  19.013  0.00  0.00    +0.000 A 
ATOM     17  C   UNL     1      -1.100  12.132  19.489  0.00  0.00    +0.000 A 
ATOM     18  C   UNL     1      -1.466  12.069  20.836  0.00  0.00    +0.000 A 
ATOM     19  N   UNL     1      -2.319  12.860  21.569  0.00  0.00    +0.000 N 
ATOM     20  C   UNL     1      -2.387  12.414  22.868  0.00  0.00    +0.000 A 
ATOM     21  C   UNL     1      -1.541  11.329  22.975  0.00  0.00    +0.000 A 
ATOM     22  C   UNL     1      -0.970  11.097  21.698  0.00  0.00    +0.000 A 
ATOM     23  C   UNL     1      -0.081  10.132  21.191  0.00  0.00    +0.000 A 
ATOM     24  H   UNL     1      -2.839  13.646  21.198  0.00  0.00    +0.000 HD
BRANCH  20  25
ATOM     25  C   UNL     1      -3.261  13.067  23.867  0.00  0.00    +0.000 C 
ATOM     26  F   UNL     1      -3.900  12.155  24.643  0.00  0.00    +0.000 F 
ATOM     27  F   UNL     1      -2.557  13.873  24.699  0.00  0.00    +0.000 F 
ATOM     28  F   UNL     1      -4.217  13.829  23.282  0.00  0.00    +0.000 F 
ENDBRANCH  20  25
ENDBRANCH  12  15
TORSDOF 2
ENDMDL
MODEL 3
REMARK VINA RESULT:      -8.2      5.569      9.759
REMARK  Name = 
REMARK  3 active torsions:
REMARK  status: ('A' for Active; 'I' for Inactive)
REMARK    1  A    between atoms: C_1  and  N_2
REMARK    2  A    between atoms: C_12  and  C_13
REMARK    3  A    between atoms: C_18  and  C_19
REMARK                            x       y       z     vdW  Elec       q    Type
REMARK                         _______ _______ _______ _____ _____    ______ ____
ROOT
ATOM      1  C   UNL     1       3.442   1.557  17.983  0.00  0.00    +0.000 C 
ATOM      2  N   UNL     1       3.018   2.874  18.439  0.00  0.00    +0.000 NA
ATOM      3  C   UNL     1       3.061   3.904  17.348  0.00  0.00    +0.000 C 
ATOM      4  C   UNL     1       3.989   5.013  17.913  0.00  0.00    +0.000 C 
ATOM      5  C   UNL     1       5.017   4.145  18.643  0.00  0.00    +0.000 C 
ATOM      6  C   UNL     1       3.941   3.439  19.469  0.00  0.00    +0.000 C 
ATOM      7  C   UNL     1       3.237   4.665  20.131  0.00  0.00    +0.000 C 
ATOM      8  N   UNL     1       3.333   5.659  19.059  0.00  0.00    +0.000 N 
ATOM      9  C   UNL     1       2.700   6.862  19.016  0.00  0.00    +0.000 A 
ATOM     10  C   UNL     1       1.994   7.339  20.115  0.00  0.00    +0.000 A 
ATOM     11  C   UNL     1       1.376   8.589  20.072  0.00  0.00    +0.000 A 
ATOM     12  C   UNL     1       1.447   9.376  18.922  0.00  0.00    +0.000 A 
ATOM     13  C   UNL     1       2.184   8.822  17.878  0.00  0.00    +0.000 A 
ATOM     14  N   UNL     1       2.800   7.609  17.900  0.00  0.00    +0.000 NA
ENDROOT
BRANCH  12  15
ATOM     15  C   UNL     1       0.753  10.677  18.821  0.00  0.00    +0.000 A 
ATOM     16  C   UNL     1      -0.646  10.768  18.740  0.00  0.00    +0.000 A 
ATOM     17  C   UNL     1      -1.320  11.999  18.687  0.00  0.00    +0.000 A 
ATOM     18  C   UNL     1      -0.544  13.161  18.710  0.00  0.00    +0.000 A 
ATOM     19  N   UNL     1      -0.915  14.484  18.690  0.00  0.00    +0.000 N 
ATOM     20  C   UNL     1       0.196  15.294  18.743  0.00  0.00    +0.000 A 
ATOM     21  C   UNL     1       1.303  14.470  18.776  0.00  0.00    +0.000 A 
ATOM     22  C   UNL     1       0.845  13.128  18.771  0.00  0.00    +0.000 A 
ATOM     23  C   UNL     1       1.491  11.879  18.827  0.00  0.00    +0.000 A 
ATOM     24  H   UNL     1      -1.872  14.816  18.659  0.00  0.00    +0.000 HD
BRANCH  20  25
ATOM     25  C   UNL     1       0.081  16.768  18.767  0.00  0.00    +0.000 C 
ATOM     26  F   UNL     1      -0.814  17.213  17.849  0.00  0.00    +0.000 F 
ATOM     27  F   UNL     1      -0.332  17.220  19.976  0.00  0.00    +0.000 F 
ATOM     28  F   UNL     1       1.263  17.372  18.493  0.00  0.00    +0.000 F 
ENDBRANCH  20  25
ENDBRANCH  12  15
TORSDOF 2
ENDMDL
MODEL 4
REMARK VINA RESULT:      -8.2      5.632     10.223
REMARK  Name = 
REMARK  3 active torsions:
REMARK  status: ('A' for Active; 'I' for Inactive)
REMARK    1  A    between atoms: C_1  and  N_2
REMARK    2  A    between atoms: C_12  and  C_13
REMARK    3  A    between atoms: C_18  and  C_19
REMARK                            x       y       z     vdW  Elec       q    Type
REMARK                         _______ _______ _______ _____ _____    ______ ____
ROOT
ATOM      1  C   UNL     1       7.562   4.547  17.379  0.00  0.00    +0.000 C 
ATOM      2  N   UNL     1       6.444   5.445  17.634  0.00  0.00    +0.000 NA
ATOM      3  C   UNL     1       5.782   5.182  18.956  0.00  0.00    +0.000 C 
ATOM      4  C   UNL     1       4.298   4.913  18.587  0.00  0.00    +0.000 C 
ATOM      5  C   UNL     1       4.490   4.136  17.282  0.00  0.00    +0.000 C 
ATOM      6  C   UNL     1       5.330   5.251  16.657  0.00  0.00    +0.000 C 
ATOM      7  C   UNL     1       4.349   6.458  16.794  0.00  0.00    +0.000 C 
ATOM      8  N   UNL     1       3.695   6.149  18.067  0.00  0.00    +0.000 N 
ATOM      9  C   UNL     1       2.882   6.975  18.777  0.00  0.00    +0.000 A 
ATOM     10  C   UNL     1       2.459   8.191  18.249  0.00  0.00    +0.000 A 
ATOM     11  C   UNL     1       1.599   9.017  18.973  0.00  0.00    +0.000 A 
ATOM     12  C   UNL     1       1.157   8.642  20.242  0.00  0.00    +0.000 A 
ATOM     13  C   UNL     1       1.623   7.406  20.683  0.00  0.00    +0.000 A 
ATOM     14  N   UNL     1       2.456   6.581  19.992  0.00  0.00    +0.000 NA
ENDROOT
BRANCH  12  15
ATOM     15  C   UNL     1       0.295   9.521  21.061  0.00  0.00    +0.000 A 
ATOM     16  C   UNL     1       0.065   9.276  22.424  0.00  0.00    +0.000 A 
ATOM     17  C   UNL     1      -0.717  10.128  23.222  0.00  0.00    +0.000 A 
ATOM     18  C   UNL     1      -1.281  11.249  22.608  0.00  0.00    +0.000 A 
ATOM     19  N   UNL     1      -2.064  12.253  23.126  0.00  0.00    +0.000 N 
ATOM     20  C   UNL     1      -2.380  13.166  22.148  0.00  0.00    +0.000 A 
ATOM     21  C   UNL     1      -1.806  12.726  20.973  0.00  0.00    +0.000 A 
ATOM     22  C   UNL     1      -1.101  11.529  21.257  0.00  0.00    +0.000 A 
ATOM     23  C   UNL     1      -0.309  10.659  20.485  0.00  0.00    +0.000 A 
ATOM     24  H   UNL     1      -2.350  12.320  24.096  0.00  0.00    +0.000 HD
BRANCH  20  25
ATOM     25  C   UNL     1      -3.190  14.369  22.443  0.00  0.00    +0.000 C 
ATOM     26  F   UNL     1      -3.596  14.391  23.737  0.00  0.00    +0.000 F 
ATOM     27  F   UNL     1      -2.490  15.510  22.226  0.00  0.00    +0.000 F 
ATOM     28  F   UNL     1      -4.305  14.429  21.675  0.00  0.00    +0.000 F 
ENDBRANCH  20  25
ENDBRANCH  12  15
TORSDOF 2
ENDMDL
MODEL 5
REMARK VINA RESULT:      -8.1      1.480      2.379
REMARK  Name = 
REMARK  3 active torsions:
REMARK  status: ('A' for Active; 'I' for Inactive)
REMARK    1  A    between atoms: C_1  and  N_2
REMARK    2  A    between atoms: C_12  and  C_13
REMARK    3  A    between atoms: C_18  and  C_19
REMARK                            x       y       z     vdW  Elec       q    Type
REMARK                         _______ _______ _______ _____ _____    ______ ____
ROOT
ATOM      1  C   UNL     1      -4.740  13.998  23.414  0.00  0.00    +0.000 C 
ATOM      2  N   UNL     1      -3.787  13.237  22.617  0.00  0.00    +0.000 NA
ATOM      3  C   UNL     1      -3.026  12.232  23.432  0.00  0.00    +0.000 C 
ATOM      4  C   UNL     1      -1.538  12.604  23.195  0.00  0.00    +0.000 C 
ATOM      5  C   UNL     1      -1.652  14.130  23.163  0.00  0.00    +0.000 C 
ATOM      6  C   UNL     1      -2.705  14.100  22.054  0.00  0.00    +0.000 C 
ATOM      7  C   UNL     1      -1.948  13.278  20.963  0.00  0.00    +0.000 C 
ATOM      8  N   UNL     1      -1.189  12.339  21.791  0.00  0.00    +0.000 N 
ATOM      9  C   UNL     1      -0.502  11.251  21.353  0.00  0.00    +0.000 A 
ATOM     10  C   UNL     1      -0.327  11.015  19.993  0.00  0.00    +0.000 A 
ATOM     11  C   UNL     1       0.408   9.913  19.554  0.00  0.00    +0.000 A 
ATOM     12  C   UNL     1       0.969   9.024  20.472  0.00  0.00    +0.000 A 
ATOM     13  C   UNL     1       0.752   9.347  21.809  0.00  0.00    +0.000 A 
ATOM     14  N   UNL     1       0.045  10.420  22.260  0.00  0.00    +0.000 NA
ENDROOT
BRANCH  12  15
ATOM     15  C   UNL     1       1.701   7.814  20.040  0.00  0.00    +0.000 A 
ATOM     16  C   UNL     1       1.599   6.597  20.733  0.00  0.00    +0.000 A 
ATOM     17  C   UNL     1       2.255   5.430  20.309  0.00  0.00    +0.000 A 
ATOM     18  C   UNL     1       3.037   5.514  19.154  0.00  0.00    +0.000 A 
ATOM     19  N   UNL     1       3.768   4.552  18.498  0.00  0.00    +0.000 N 
ATOM     20  C   UNL     1       4.373   5.087  17.385  0.00  0.00    +0.000 A 
ATOM     21  C   UNL     1       4.039   6.425  17.339  0.00  0.00    +0.000 A 
ATOM     22  C   UNL     1       3.187   6.697  18.439  0.00  0.00    +0.000 A 
ATOM     23  C   UNL     1       2.514   7.849  18.887  0.00  0.00    +0.000 A 
ATOM     24  H   UNL     1       3.836   3.583  18.784  0.00  0.00    +0.000 HD
BRANCH  20  25
ATOM     25  C   UNL     1       5.198   4.260  16.477  0.00  0.00    +0.000 C 
ATOM     26  F   UNL     1       4.840   2.952  16.532  0.00  0.00    +0.000 F 
ATOM     27  F   UNL     1       5.070   4.652  15.186  0.00  0.00    +0.000 F 
ATOM     28  F   UNL     1       6.515   4.325  16.790  0.00  0.00    +0.000 F 
ENDBRANCH  20  25
ENDBRANCH  12  15
TORSDOF 2
ENDMDL
MODEL 6
REMARK VINA RESULT:      -8.1      1.273      2.024
REMARK  Name = 
REMARK  3 active torsions:
REMARK  status: ('A' for Active; 'I' for Inactive)
REMARK    1  A    between atoms: C_1  and  N_2
REMARK    2  A    between atoms: C_12  and  C_13
REMARK    3  A    between atoms: C_18  and  C_19
REMARK                            x       y       z     vdW  Elec       q    Type
REMARK                         _______ _______ _______ _____ _____    ______ ____
ROOT
ATOM      1  C   UNL     1      -4.321  13.426  22.691  0.00  0.00    +0.000 C 
ATOM      2  N   UNL     1      -3.402  12.703  21.822  0.00  0.00    +0.000 NA
ATOM      3  C   UNL     1      -2.408  11.881  22.590  0.00  0.00    +0.000 C 
ATOM      4  C   UNL     1      -1.030  12.397  22.094  0.00  0.00    +0.000 C 
ATOM      5  C   UNL     1      -1.345  13.889  21.954  0.00  0.00    +0.000 C 
ATOM      6  C   UNL     1      -2.534  13.624  21.028  0.00  0.00    +0.000 C 
ATOM      7  C   UNL     1      -1.841  12.790  19.905  0.00  0.00    +0.000 C 
ATOM      8  N   UNL     1      -0.855  12.034  20.680  0.00  0.00    +0.000 N 
ATOM      9  C   UNL     1      -0.102  10.994  20.232  0.00  0.00    +0.000 A 
ATOM     10  C   UNL     1      -0.096  10.643  18.886  0.00  0.00    +0.000 A 
ATOM     11  C   UNL     1       0.705   9.595  18.430  0.00  0.00    +0.000 A 
ATOM     12  C   UNL     1       1.504   8.876  19.320  0.00  0.00    +0.000 A 
ATOM     13  C   UNL     1       1.440   9.305  20.643  0.00  0.00    +0.000 A 
ATOM     14  N   UNL     1       0.673  10.328  21.109  0.00  0.00    +0.000 NA
ENDROOT
BRANCH  12  15
ATOM     15  C   UNL     1       2.316   7.721  18.882  0.00  0.00    +0.000 A 
ATOM     16  C   UNL     1       2.187   6.454  19.473  0.00  0.00    +0.000 A 
ATOM     17  C   UNL     1       2.922   5.340  19.036  0.00  0.00    +0.000 A 
ATOM     18  C   UNL     1       3.814   5.529  17.977  0.00  0.00    +0.000 A 
ATOM     19  N   UNL     1       4.641   4.639  17.335  0.00  0.00    +0.000 N 
ATOM     20  C   UNL     1       5.336   5.271  16.331  0.00  0.00    +0.000 A 
ATOM     21  C   UNL     1       4.963   6.600  16.346  0.00  0.00    +0.000 A 
ATOM     22  C   UNL     1       3.995   6.767  17.368  0.00  0.00    +0.000 A 
ATOM     23  C   UNL     1       3.241   7.863  17.825  0.00  0.00    +0.000 A 
ATOM     24  H   UNL     1       4.712   3.653  17.557  0.00  0.00    +0.000 HD
BRANCH  20  25
ATOM     25  C   UNL     1       6.277   4.536  15.457  0.00  0.00    +0.000 C 
ATOM     26  F   UNL     1       5.875   3.256  15.258  0.00  0.00    +0.000 F 
ATOM     27  F   UNL     1       6.382   5.114  14.236  0.00  0.00    +0.000 F 
ATOM     28  F   UNL     1       7.523   4.483  15.987  0.00  0.00    +0.000 F 
ENDBRANCH  20  25
ENDBRANCH  12  15
TORSDOF 2
ENDMDL
MODEL 7
REMARK VINA RESULT:      -8.1      1.117      1.427
REMARK  Name = 
REMARK  3 active torsions:
REMARK  status: ('A' for Active; 'I' for Inactive)
REMARK    1  A    between atoms: C_1  and  N_2
REMARK    2  A    between atoms: C_12  and  C_13
REMARK    3  A    between atoms: C_18  and  C_19
REMARK                            x       y       z     vdW  Elec       q    Type
REMARK                         _______ _______ _______ _____ _____    ______ ____
ROOT
ATOM      1  C   UNL     1       0.412  16.037  22.207  0.00  0.00    +0.000 C 
ATOM      2  N   UNL     1       0.584  14.614  21.943  0.00  0.00    +0.000 NA
ATOM      3  C   UNL     1       1.066  14.342  20.547  0.00  0.00    +0.000 C 
ATOM      4  C   UNL     1      -0.010  13.390  19.957  0.00  0.00    +0.000 C 
ATOM      5  C   UNL     1      -1.267  13.997  20.584  0.00  0.00    +0.000 C 
ATOM      6  C   UNL     1      -0.709  13.869  22.003  0.00  0.00    +0.000 C 
ATOM      7  C   UNL     1      -0.387  12.342  22.046  0.00  0.00    +0.000 C 
ATOM      8  N   UNL     1       0.039  12.103  20.665  0.00  0.00    +0.000 N 
ATOM      9  C   UNL     1       0.628  10.974  20.187  0.00  0.00    +0.000 A 
ATOM     10  C   UNL     1       0.741   9.835  20.978  0.00  0.00    +0.000 A 
ATOM     11  C   UNL     1       1.317   8.672  20.467  0.00  0.00    +0.000 A 
ATOM     12  C   UNL     1       1.800   8.637  19.158  0.00  0.00    +0.000 A 
ATOM     13  C   UNL     1       1.634   9.818  18.439  0.00  0.00    +0.000 A 
ATOM     14  N   UNL     1       1.069  10.961  18.914  0.00  0.00    +0.000 NA
ENDROOT
BRANCH  12  15
ATOM     15  C   UNL     1       2.471   7.440  18.606  0.00  0.00    +0.000 A 
ATOM     16  C   UNL     1       2.130   6.141  19.015  0.00  0.00    +0.000 A 
ATOM     17  C   UNL     1       2.731   4.996  18.468  0.00  0.00    +0.000 A 
ATOM     18  C   UNL     1       3.707   5.186  17.486  0.00  0.00    +0.000 A 
ATOM     19  N   UNL     1       4.443   4.273  16.769  0.00  0.00    +0.000 N 
ATOM     20  C   UNL     1       5.283   4.919  15.892  0.00  0.00    +0.000 A 
ATOM     21  C   UNL     1       5.096   6.275  16.067  0.00  0.00    +0.000 A 
ATOM     22  C   UNL     1       4.096   6.450  17.057  0.00  0.00    +0.000 A 
ATOM     23  C   UNL     1       3.473   7.579  17.622  0.00  0.00    +0.000 A 
ATOM     24  H   UNL     1       4.363   3.267  16.860  0.00  0.00    +0.000 HD
BRANCH  20  25
ATOM     25  C   UNL     1       6.167   4.171  14.971  0.00  0.00    +0.000 C 
ATOM     26  F   UNL     1       6.237   2.857  15.305  0.00  0.00    +0.000 F 
ATOM     27  F   UNL     1       5.726   4.233  13.691  0.00  0.00    +0.000 F 
ATOM     28  F   UNL     1       7.434   4.652  14.985  0.00  0.00    +0.000 F 
ENDBRANCH  20  25
ENDBRANCH  12  15
TORSDOF 2
ENDMDL
MODEL 8
REMARK VINA RESULT:      -8.0      5.678      9.683
REMARK  Name = 
REMARK  3 active torsions:
REMARK  status: ('A' for Active; 'I' for Inactive)
REMARK    1  A    between atoms: C_1  and  N_2
REMARK    2  A    between atoms: C_12  and  C_13
REMARK    3  A    between atoms: C_18  and  C_19
REMARK                            x       y       z     vdW  Elec       q    Type
REMARK                         _______ _______ _______ _____ _____    ______ ____
ROOT
ATOM      1  C   UNL     1       2.508   1.790  18.534  0.00  0.00    +0.000 C 
ATOM      2  N   UNL     1       2.206   3.162  18.920  0.00  0.00    +0.000 NA
ATOM      3  C   UNL     1       2.379   4.132  17.786  0.00  0.00    +0.000 C 
ATOM      4  C   UNL     1       3.398   5.169  18.331  0.00  0.00    +0.000 C 
ATOM      5  C   UNL     1       4.316   4.239  19.129  0.00  0.00    +0.000 C 
ATOM      6  C   UNL     1       3.154   3.680  19.952  0.00  0.00    +0.000 C 
ATOM      7  C   UNL     1       2.559   4.999  20.538  0.00  0.00    +0.000 C 
ATOM      8  N   UNL     1       2.780   5.928  19.428  0.00  0.00    +0.000 N 
ATOM      9  C   UNL     1       2.271   7.184  19.314  0.00  0.00    +0.000 A 
ATOM     10  C   UNL     1       1.589   7.778  20.370  0.00  0.00    +0.000 A 
ATOM     11  C   UNL     1       1.099   9.080  20.255  0.00  0.00    +0.000 A 
ATOM     12  C   UNL     1       1.278   9.802  19.073  0.00  0.00    +0.000 A 
ATOM     13  C   UNL     1       1.982   9.130  18.077  0.00  0.00    +0.000 A 
ATOM     14  N   UNL     1       2.474   7.865  18.170  0.00  0.00    +0.000 NA
ENDROOT
BRANCH  12  15
ATOM     15  C   UNL     1       0.719  11.159  18.896  0.00  0.00    +0.000 A 
ATOM     16  C   UNL     1      -0.655  11.377  18.701  0.00  0.00    +0.000 A 
ATOM     17  C   UNL     1      -1.203  12.663  18.574  0.00  0.00    +0.000 A 
ATOM     18  C   UNL     1      -0.326  13.749  18.641  0.00  0.00    +0.000 A 
ATOM     19  N   UNL     1      -0.568  15.100  18.568  0.00  0.00    +0.000 N 
ATOM     20  C   UNL     1       0.607  15.804  18.697  0.00  0.00    +0.000 A 
ATOM     21  C   UNL     1       1.625  14.883  18.833  0.00  0.00    +0.000 A 
ATOM     22  C   UNL     1       1.045  13.589  18.813  0.00  0.00    +0.000 A 
ATOM     23  C   UNL     1       1.564  12.287  18.942  0.00  0.00    +0.000 A 
ATOM     24  H   UNL     1      -1.484  15.517  18.456  0.00  0.00    +0.000 HD
BRANCH  20  25
ATOM     25  C   UNL     1       0.629  17.283  18.687  0.00  0.00    +0.000 C 
ATOM     26  F   UNL     1       1.892  17.761  18.553  0.00  0.00    +0.000 F 
ATOM     27  F   UNL     1      -0.099  17.789  17.663  0.00  0.00    +0.000 F 
ATOM     28  F   UNL     1       0.128  17.804  19.834  0.00  0.00    +0.000 F 
ENDBRANCH  20  25
ENDBRANCH  12  15
TORSDOF 2
ENDMDL
MODEL 9
REMARK VINA RESULT:      -7.8      1.139      1.572
REMARK  Name = 
REMARK  3 active torsions:
REMARK  status: ('A' for Active; 'I' for Inactive)
REMARK    1  A    between atoms: C_1  and  N_2
REMARK    2  A    between atoms: C_12  and  C_13
REMARK    3  A    between atoms: C_18  and  C_19
REMARK                            x       y       z     vdW  Elec       q    Type
REMARK                         _______ _______ _______ _____ _____    ______ ____
ROOT
ATOM      1  C   UNL     1      -0.828  16.224  23.300  0.00  0.00    +0.000 C 
ATOM      2  N   UNL     1      -0.577  14.806  23.075  0.00  0.00    +0.000 NA
ATOM      3  C   UNL     1      -0.011  14.530  21.712  0.00  0.00    +0.000 C 
ATOM      4  C   UNL     1      -1.009  13.518  21.088  0.00  0.00    +0.000 C 
ATOM      5  C   UNL     1      -2.325  14.077  21.636  0.00  0.00    +0.000 C 
ATOM      6  C   UNL     1      -1.836  14.002  23.084  0.00  0.00    +0.000 C 
ATOM      7  C   UNL     1      -1.447  12.493  23.177  0.00  0.00    +0.000 C 
ATOM      8  N   UNL     1      -0.939  12.248  21.825  0.00  0.00    +0.000 N 
ATOM      9  C   UNL     1      -0.274  11.139  21.403  0.00  0.00    +0.000 A 
ATOM     10  C   UNL     1      -0.151  10.022  22.223  0.00  0.00    +0.000 A 
ATOM     11  C   UNL     1       0.504   8.878  21.767  0.00  0.00    +0.000 A 
ATOM     12  C   UNL     1       1.056   8.840  20.486  0.00  0.00    +0.000 A 
ATOM     13  C   UNL     1       0.874   9.998  19.735  0.00  0.00    +0.000 A 
ATOM     14  N   UNL     1       0.233  11.122  20.155  0.00  0.00    +0.000 NA
ENDROOT
BRANCH  12  15
ATOM     15  C   UNL     1       1.810   7.666  19.996  0.00  0.00    +0.000 A 
ATOM     16  C   UNL     1       1.758   6.424  20.649  0.00  0.00    +0.000 A 
ATOM     17  C   UNL     1       2.436   5.291  20.169  0.00  0.00    +0.000 A 
ATOM     18  C   UNL     1       3.187   5.436  19.000  0.00  0.00    +0.000 A 
ATOM     19  N   UNL     1       3.930   4.518  18.295  0.00  0.00    +0.000 N 
ATOM     20  C   UNL     1       4.493   5.108  17.187  0.00  0.00    +0.000 A 
ATOM     21  C   UNL     1       4.121   6.437  17.195  0.00  0.00    +0.000 A 
ATOM     22  C   UNL     1       3.288   6.647  18.324  0.00  0.00    +0.000 A 
ATOM     23  C   UNL     1       2.594   7.763  18.827  0.00  0.00    +0.000 A 
ATOM     24  H   UNL     1       4.031   3.542  18.546  0.00  0.00    +0.000 HD
BRANCH  20  25
ATOM     25  C   UNL     1       5.318   4.336  16.232  0.00  0.00    +0.000 C 
ATOM     26  F   UNL     1       5.030   3.011  16.283  0.00  0.00    +0.000 F 
ATOM     27  F   UNL     1       5.116   4.739  14.955  0.00  0.00    +0.000 F 
ATOM     28  F   UNL     1       6.642   4.464  16.490  0.00  0.00    +0.000 F 
ENDBRANCH  20  25
ENDBRANCH  12  15
TORSDOF 2
ENDMDL
