MODEL 1
REMARK VINA RESULT:      -7.1      0.000      0.000
REMARK  Name = 
REMARK  7 active torsions:
REMARK  status: ('A' for Active; 'I' for Inactive)
REMARK    1  A    between atoms: C_2  and  C_11
REMARK    2  A    between atoms: N_3  and  C_4
REMARK    3  A    between atoms: C_14  and  N_15
REMARK    4  A    between atoms: N_15  and  C_16
REMARK    5  A    between atoms: N_15  and  C_19
REMARK    6  A    between atoms: C_16  and  C_17
REMARK    7  A    between atoms: C_19  and  C_20
REMARK                            x       y       z     vdW  Elec       q    Type
REMARK                         _______ _______ _______ _____ _____    ______ ____
ROOT
ATOM      1  C   UNL     1       3.048   6.149  19.319  0.00  0.00    +0.000 A 
ATOM      2  C   UNL     1       3.701   5.004  19.777  0.00  0.00    +0.000 A 
ATOM      3  C   UNL     1       4.702   4.399  18.998  0.00  0.00    +0.000 A 
ATOM      4  C   UNL     1       5.089   4.913  17.753  0.00  0.00    +0.000 A 
ATOM      5  C   UNL     1       4.410   6.071  17.328  0.00  0.00    +0.000 A 
ATOM      6  C   UNL     1       3.417   6.693  18.093  0.00  0.00    +0.000 A 
ENDROOT
BRANCH   1   8
ATOM      7  O   UNL     1       1.291   6.047  20.847  0.00  0.00    +0.000 OA
ATOM      8  C   UNL     1       1.996   6.779  20.163  0.00  0.00    +0.000 C 
ATOM      9  N   UNL     1       1.886   8.154  20.032  0.00  0.00    +0.000 N 
ATOM     10  H   UNL     1       2.419   8.591  19.291  0.00  0.00    +0.000 HD
BRANCH   9  11
ATOM     11  C   UNL     1       0.960   8.989  20.693  0.00  0.00    +0.000 A 
ATOM     12  C   UNL     1       0.112   9.878  20.026  0.00  0.00    +0.000 A 
ATOM     13  C   UNL     1      -0.735  10.728  20.744  0.00  0.00    +0.000 A 
ATOM     14  C   UNL     1      -0.743  10.684  22.135  0.00  0.00    +0.000 A 
ATOM     15 BR   UNL     1      -1.846  11.873  23.104  0.00  0.00    +0.000 Br
ATOM     16  C   UNL     1       0.066   9.777  22.813  0.00  0.00    +0.000 A 
ATOM     17  C   UNL     1       0.908   8.923  22.092  0.00  0.00    +0.000 A 
ENDBRANCH   9  11
ENDBRANCH   1   8
BRANCH   4  18
ATOM     18  N   UNL     1       6.112   4.342  17.001  0.00  0.00    +0.000 N 
BRANCH  18  19
ATOM     19  C   UNL     1       5.845   3.655  15.719  0.00  0.00    +0.000 C 
BRANCH  19  20
ATOM     20  C   UNL     1       6.609   4.227  14.519  0.00  0.00    +0.000 C 
ATOM     21 CL   UNL     1       5.894   3.755  12.955  0.00  0.00    +0.000 Cl
ENDBRANCH  19  20
ENDBRANCH  18  19
BRANCH  18  22
ATOM     22  C   UNL     1       7.529   4.634  17.306  0.00  0.00    +0.000 C 
BRANCH  22  23
ATOM     23  C   UNL     1       7.674   5.546  18.531  0.00  0.00    +0.000 C 
ATOM     24 CL   UNL     1       7.785   7.253  18.033  0.00  0.00    +0.000 Cl
ENDBRANCH  22  23
ENDBRANCH  18  22
ENDBRANCH   4  18
TORSDOF 7
ENDMDL
MODEL 2
REMARK VINA RESULT:      -7.0      0.614      2.738
REMARK  Name = 
REMARK  7 active torsions:
REMARK  status: ('A' for Active; 'I' for Inactive)
REMARK    1  A    between atoms: C_2  and  C_11
REMARK    2  A    between atoms: N_3  and  C_4
REMARK    3  A    between atoms: C_14  and  N_15
REMARK    4  A    between atoms: N_15  and  C_16
REMARK    5  A    between atoms: N_15  and  C_19
REMARK    6  A    between atoms: C_16  and  C_17
REMARK    7  A    between atoms: C_19  and  C_20
REMARK                            x       y       z     vdW  Elec       q    Type
REMARK                         _______ _______ _______ _____ _____    ______ ____
ROOT
ATOM      1  C   UNL     1       2.888   6.422  19.335  0.00  0.00    +0.000 A 
ATOM      2  C   UNL     1       3.535   5.244  19.709  0.00  0.00    +0.000 A 
ATOM      3  C   UNL     1       4.507   4.671  18.871  0.00  0.00    +0.000 A 
ATOM      4  C   UNL     1       4.870   5.249  17.648  0.00  0.00    +0.000 A 
ATOM      5  C   UNL     1       4.197   6.439  17.307  0.00  0.00    +0.000 A 
ATOM      6  C   UNL     1       3.234   7.030  18.132  0.00  0.00    +0.000 A 
ENDROOT
BRANCH   1   8
ATOM      7  O   UNL     1       1.122   6.258  20.848  0.00  0.00    +0.000 OA
ATOM      8  C   UNL     1       1.868   7.018  20.240  0.00  0.00    +0.000 C 
ATOM      9  N   UNL     1       1.832   8.403  20.252  0.00  0.00    +0.000 N 
ATOM     10  H   UNL     1       2.391   8.884  19.559  0.00  0.00    +0.000 HD
BRANCH   9  11
ATOM     11  C   UNL     1       0.949   9.214  20.996  0.00  0.00    +0.000 A 
ATOM     12  C   UNL     1       0.743   9.068  22.370  0.00  0.00    +0.000 A 
ATOM     13  C   UNL     1      -0.197   9.859  23.037  0.00  0.00    +0.000 A 
ATOM     14  C   UNL     1      -0.930  10.808  22.330  0.00  0.00    +0.000 A 
ATOM     15 BR   UNL     1      -2.240  11.836  23.222  0.00  0.00    +0.000 Br
ATOM     16  C   UNL     1      -0.709  10.993  20.968  0.00  0.00    +0.000 A 
ATOM     17  C   UNL     1       0.238  10.204  20.305  0.00  0.00    +0.000 A 
ENDBRANCH   9  11
ENDBRANCH   1   8
BRANCH   4  18
ATOM     18  N   UNL     1       5.863   4.708  16.838  0.00  0.00    +0.000 N 
BRANCH  18  19
ATOM     19  C   UNL     1       7.288   4.729  17.233  0.00  0.00    +0.000 C 
BRANCH  19  20
ATOM     20  C   UNL     1       7.710   5.971  18.027  0.00  0.00    +0.000 C 
ATOM     21 CL   UNL     1       7.859   5.656  19.776  0.00  0.00    +0.000 Cl
ENDBRANCH  19  20
ENDBRANCH  18  19
BRANCH  18  22
ATOM     22  C   UNL     1       5.516   3.847  15.686  0.00  0.00    +0.000 C 
BRANCH  22  23
ATOM     23  C   UNL     1       6.436   4.101  14.484  0.00  0.00    +0.000 C 
ATOM     24 CL   UNL     1       5.649   3.585  12.972  0.00  0.00    +0.000 Cl
ENDBRANCH  22  23
ENDBRANCH  18  22
ENDBRANCH   4  18
TORSDOF 7
ENDMDL
MODEL 3
REMARK VINA RESULT:      -6.9      1.693      2.882
REMARK  Name = 
REMARK  7 active torsions:
REMARK  status: ('A' for Active; 'I' for Inactive)
REMARK    1  A    between atoms: C_2  and  C_11
REMARK    2  A    between atoms: N_3  and  C_4
REMARK    3  A    between atoms: C_14  and  N_15
REMARK    4  A    between atoms: N_15  and  C_16
REMARK    5  A    between atoms: N_15  and  C_19
REMARK    6  A    between atoms: C_16  and  C_17
REMARK    7  A    between atoms: C_19  and  C_20
REMARK                            x       y       z     vdW  Elec       q    Type
REMARK                         _______ _______ _______ _____ _____    ______ ____
ROOT
ATOM      1  C   UNL     1       2.143   8.041  18.932  0.00  0.00    +0.000 A 
ATOM      2  C   UNL     1       2.238   6.920  19.758  0.00  0.00    +0.000 A 
ATOM      3  C   UNL     1       3.106   5.865  19.426  0.00  0.00    +0.000 A 
ATOM      4  C   UNL     1       3.906   5.893  18.276  0.00  0.00    +0.000 A 
ATOM      5  C   UNL     1       3.785   7.042  17.471  0.00  0.00    +0.000 A 
ATOM      6  C   UNL     1       2.934   8.106  17.789  0.00  0.00    +0.000 A 
ENDROOT
BRANCH   1   8
ATOM      7  O   UNL     1       0.584   9.693  18.411  0.00  0.00    +0.000 OA
ATOM      8  C   UNL     1       1.225   9.151  19.305  0.00  0.00    +0.000 C 
ATOM      9  N   UNL     1       1.240   9.499  20.645  0.00  0.00    +0.000 N 
ATOM     10  H   UNL     1       1.957   9.078  21.223  0.00  0.00    +0.000 HD
BRANCH   9  11
ATOM     11  C   UNL     1       0.490  10.527  21.255  0.00  0.00    +0.000 A 
ATOM     12  C   UNL     1       0.642  11.881  20.941  0.00  0.00    +0.000 A 
ATOM     13  C   UNL     1      -0.083  12.857  21.631  0.00  0.00    +0.000 A 
ATOM     14  C   UNL     1      -0.972  12.480  22.633  0.00  0.00    +0.000 A 
ATOM     15 BR   UNL     1      -1.909  13.804  23.603  0.00  0.00    +0.000 Br
ATOM     16  C   UNL     1      -1.165  11.134  22.931  0.00  0.00    +0.000 A 
ATOM     17  C   UNL     1      -0.442  10.159  22.234  0.00  0.00    +0.000 A 
ENDBRANCH   9  11
ENDBRANCH   1   8
BRANCH   4  18
ATOM     18  N   UNL     1       4.799   4.870  17.970  0.00  0.00    +0.000 N 
BRANCH  18  19
ATOM     19  C   UNL     1       5.919   4.519  18.869  0.00  0.00    +0.000 C 
BRANCH  19  20
ATOM     20  C   UNL     1       6.869   5.680  19.186  0.00  0.00    +0.000 C 
ATOM     21 CL   UNL     1       7.486   6.490  17.722  0.00  0.00    +0.000 Cl
ENDBRANCH  19  20
ENDBRANCH  18  19
BRANCH  18  22
ATOM     22  C   UNL     1       4.508   3.914  16.879  0.00  0.00    +0.000 C 
BRANCH  22  23
ATOM     23  C   UNL     1       5.648   3.852  15.854  0.00  0.00    +0.000 C 
ATOM     24 CL   UNL     1       5.704   5.349  14.889  0.00  0.00    +0.000 Cl
ENDBRANCH  22  23
ENDBRANCH  18  22
ENDBRANCH   4  18
TORSDOF 7
ENDMDL
MODEL 4
REMARK VINA RESULT:      -6.9      1.745      3.393
REMARK  Name = 
REMARK  7 active torsions:
REMARK  status: ('A' for Active; 'I' for Inactive)
REMARK    1  A    between atoms: C_2  and  C_11
REMARK    2  A    between atoms: N_3  and  C_4
REMARK    3  A    between atoms: C_14  and  N_15
REMARK    4  A    between atoms: N_15  and  C_16
REMARK    5  A    between atoms: N_15  and  C_19
REMARK    6  A    between atoms: C_16  and  C_17
REMARK    7  A    between atoms: C_19  and  C_20
REMARK                            x       y       z     vdW  Elec       q    Type
REMARK                         _______ _______ _______ _____ _____    ______ ____
ROOT
ATOM      1  C   UNL     1       3.064   7.109  18.122  0.00  0.00    +0.000 A 
ATOM      2  C   UNL     1       4.020   7.746  17.329  0.00  0.00    +0.000 A 
ATOM      3  C   UNL     1       4.954   6.991  16.599  0.00  0.00    +0.000 A 
ATOM      4  C   UNL     1       4.963   5.590  16.626  0.00  0.00    +0.000 A 
ATOM      5  C   UNL     1       3.981   4.985  17.434  0.00  0.00    +0.000 A 
ATOM      6  C   UNL     1       3.037   5.718  18.160  0.00  0.00    +0.000 A 
ENDROOT
BRANCH   1   8
ATOM      7  O   UNL     1       1.779   7.562  20.013  0.00  0.00    +0.000 OA
ATOM      8  C   UNL     1       2.079   7.926  18.881  0.00  0.00    +0.000 C 
ATOM      9  N   UNL     1       1.549   9.001  18.186  0.00  0.00    +0.000 N 
ATOM     10  H   UNL     1       1.763   9.062  17.199  0.00  0.00    +0.000 HD
BRANCH   9  11
ATOM     11  C   UNL     1       0.583   9.914  18.660  0.00  0.00    +0.000 A 
ATOM     12  C   UNL     1       0.797  10.767  19.747  0.00  0.00    +0.000 A 
ATOM     13  C   UNL     1      -0.225  11.600  20.210  0.00  0.00    +0.000 A 
ATOM     14  C   UNL     1      -1.466  11.589  19.579  0.00  0.00    +0.000 A 
ATOM     15 BR   UNL     1      -2.864  12.673  20.242  0.00  0.00    +0.000 Br
ATOM     16  C   UNL     1      -1.683  10.775  18.471  0.00  0.00    +0.000 A 
ATOM     17  C   UNL     1      -0.656   9.948  18.006  0.00  0.00    +0.000 A 
ENDBRANCH   9  11
ENDBRANCH   1   8
BRANCH   4  18
ATOM     18  N   UNL     1       5.857   4.839  15.868  0.00  0.00    +0.000 N 
BRANCH  18  19
ATOM     19  C   UNL     1       7.296   4.771  16.204  0.00  0.00    +0.000 C 
BRANCH  19  20
ATOM     20  C   UNL     1       7.593   4.596  17.698  0.00  0.00    +0.000 C 
ATOM     21 CL   UNL     1       7.836   6.149  18.541  0.00  0.00    +0.000 Cl
ENDBRANCH  19  20
ENDBRANCH  18  19
BRANCH  18  22
ATOM     22  C   UNL     1       5.369   3.864  14.869  0.00  0.00    +0.000 C 
BRANCH  22  23
ATOM     23  C   UNL     1       6.250   3.843  13.613  0.00  0.00    +0.000 C 
ATOM     24 CL   UNL     1       5.301   3.351  12.188  0.00  0.00    +0.000 Cl
ENDBRANCH  22  23
ENDBRANCH  18  22
ENDBRANCH   4  18
TORSDOF 7
ENDMDL
MODEL 5
REMARK VINA RESULT:      -6.8      2.221      3.376
REMARK  Name = 
REMARK  7 active torsions:
REMARK  status: ('A' for Active; 'I' for Inactive)
REMARK    1  A    between atoms: C_2  and  C_11
REMARK    2  A    between atoms: N_3  and  C_4
REMARK    3  A    between atoms: C_14  and  N_15
REMARK    4  A    between atoms: N_15  and  C_16
REMARK    5  A    between atoms: N_15  and  C_19
REMARK    6  A    between atoms: C_16  and  C_17
REMARK    7  A    between atoms: C_19  and  C_20
REMARK                            x       y       z     vdW  Elec       q    Type
REMARK                         _______ _______ _______ _____ _____    ______ ____
ROOT
ATOM      1  C   UNL     1       2.041   8.229  19.037  0.00  0.00    +0.000 A 
ATOM      2  C   UNL     1       2.755   8.278  17.839  0.00  0.00    +0.000 A 
ATOM      3  C   UNL     1       3.610   7.223  17.478  0.00  0.00    +0.000 A 
ATOM      4  C   UNL     1       3.777   6.090  18.286  0.00  0.00    +0.000 A 
ATOM      5  C   UNL     1       3.037   6.076  19.484  0.00  0.00    +0.000 A 
ATOM      6  C   UNL     1       2.173   7.112  19.856  0.00  0.00    +0.000 A 
ENDROOT
BRANCH   1   8
ATOM      7  O   UNL     1       0.541   9.928  18.490  0.00  0.00    +0.000 OA
ATOM      8  C   UNL     1       1.134   9.353  19.397  0.00  0.00    +0.000 C 
ATOM      9  N   UNL     1       1.105   9.674  20.744  0.00  0.00    +0.000 N 
ATOM     10  H   UNL     1       1.788   9.225  21.340  0.00  0.00    +0.000 HD
BRANCH   9  11
ATOM     11  C   UNL     1       0.355  10.707  21.345  0.00  0.00    +0.000 A 
ATOM     12  C   UNL     1       0.490  12.056  21.004  0.00  0.00    +0.000 A 
ATOM     13  C   UNL     1      -0.233  13.038  21.686  0.00  0.00    +0.000 A 
ATOM     14  C   UNL     1      -1.104  12.673  22.708  0.00  0.00    +0.000 A 
ATOM     15 BR   UNL     1      -2.037  14.007  23.667  0.00  0.00    +0.000 Br
ATOM     16  C   UNL     1      -1.280  11.331  23.034  0.00  0.00    +0.000 A 
ATOM     17  C   UNL     1      -0.559  10.349  22.345  0.00  0.00    +0.000 A 
ENDBRANCH   9  11
ENDBRANCH   1   8
BRANCH   4  18
ATOM     18  N   UNL     1       4.588   5.024  17.909  0.00  0.00    +0.000 N 
BRANCH  18  19
ATOM     19  C   UNL     1       5.836   4.701  18.634  0.00  0.00    +0.000 C 
BRANCH  19  20
ATOM     20  C   UNL     1       7.121   4.986  17.848  0.00  0.00    +0.000 C 
ATOM     21 CL   UNL     1       7.358   6.722  17.516  0.00  0.00    +0.000 Cl
ENDBRANCH  19  20
ENDBRANCH  18  19
BRANCH  18  22
ATOM     22  C   UNL     1       4.104   4.007  16.951  0.00  0.00    +0.000 C 
BRANCH  22  23
ATOM     23  C   UNL     1       3.570   2.758  17.664  0.00  0.00    +0.000 C 
ATOM     24 CL   UNL     1       1.835   2.936  18.027  0.00  0.00    +0.000 Cl
ENDBRANCH  22  23
ENDBRANCH  18  22
ENDBRANCH   4  18
TORSDOF 7
ENDMDL
MODEL 6
REMARK VINA RESULT:      -6.8      1.339      2.013
REMARK  Name = 
REMARK  7 active torsions:
REMARK  status: ('A' for Active; 'I' for Inactive)
REMARK    1  A    between atoms: C_2  and  C_11
REMARK    2  A    between atoms: N_3  and  C_4
REMARK    3  A    between atoms: C_14  and  N_15
REMARK    4  A    between atoms: N_15  and  C_16
REMARK    5  A    between atoms: N_15  and  C_19
REMARK    6  A    between atoms: C_16  and  C_17
REMARK    7  A    between atoms: C_19  and  C_20
REMARK                            x       y       z     vdW  Elec       q    Type
REMARK                         _______ _______ _______ _____ _____    ______ ____
ROOT
ATOM      1  C   UNL     1       2.974   7.019  18.949  0.00  0.00    +0.000 A 
ATOM      2  C   UNL     1       3.566   7.438  17.757  0.00  0.00    +0.000 A 
ATOM      3  C   UNL     1       4.551   6.649  17.138  0.00  0.00    +0.000 A 
ATOM      4  C   UNL     1       4.971   5.425  17.675  0.00  0.00    +0.000 A 
ATOM      5  C   UNL     1       4.349   5.035  18.876  0.00  0.00    +0.000 A 
ATOM      6  C   UNL     1       3.360   5.801  19.503  0.00  0.00    +0.000 A 
ENDROOT
BRANCH   1   8
ATOM      7  O   UNL     1       1.450   7.486  20.649  0.00  0.00    +0.000 OA
ATOM      8  C   UNL     1       1.927   7.863  19.585  0.00  0.00    +0.000 C 
ATOM      9  N   UNL     1       1.553   8.981  18.857  0.00  0.00    +0.000 N 
ATOM     10  H   UNL     1       1.911   9.057  17.913  0.00  0.00    +0.000 HD
BRANCH   9  11
ATOM     11  C   UNL     1       0.571   9.928  19.216  0.00  0.00    +0.000 A 
ATOM     12  C   UNL     1       0.638  10.705  20.376  0.00  0.00    +0.000 A 
ATOM     13  C   UNL     1      -0.402  11.577  20.710  0.00  0.00    +0.000 A 
ATOM     14  C   UNL     1      -1.512  11.681  19.877  0.00  0.00    +0.000 A 
ATOM     15 BR   UNL     1      -2.943  12.817  20.360  0.00  0.00    +0.000 Br
ATOM     16  C   UNL     1      -1.577  10.944  18.698  0.00  0.00    +0.000 A 
ATOM     17  C   UNL     1      -0.531  10.078  18.363  0.00  0.00    +0.000 A 
ENDBRANCH   9  11
ENDBRANCH   1   8
BRANCH   4  18
ATOM     18  N   UNL     1       5.914   4.622  17.040  0.00  0.00    +0.000 N 
BRANCH  18  19
ATOM     19  C   UNL     1       5.568   3.800  15.860  0.00  0.00    +0.000 C 
BRANCH  19  20
ATOM     20  C   UNL     1       5.630   4.548  14.523  0.00  0.00    +0.000 C 
ATOM     21 CL   UNL     1       6.207   3.522  13.183  0.00  0.00    +0.000 Cl
ENDBRANCH  19  20
ENDBRANCH  18  19
BRANCH  18  22
ATOM     22  C   UNL     1       7.355   4.764  17.340  0.00  0.00    +0.000 C 
BRANCH  22  23
ATOM     23  C   UNL     1       7.594   5.551  18.635  0.00  0.00    +0.000 C 
ATOM     24 CL   UNL     1       8.011   7.245  18.272  0.00  0.00    +0.000 Cl
ENDBRANCH  22  23
ENDBRANCH  18  22
ENDBRANCH   4  18
TORSDOF 7
ENDMDL
MODEL 7
REMARK VINA RESULT:      -6.8      2.458      3.507
REMARK  Name = 
REMARK  7 active torsions:
REMARK  status: ('A' for Active; 'I' for Inactive)
REMARK    1  A    between atoms: C_2  and  C_11
REMARK    2  A    between atoms: N_3  and  C_4
REMARK    3  A    between atoms: C_14  and  N_15
REMARK    4  A    between atoms: N_15  and  C_16
REMARK    5  A    between atoms: N_15  and  C_19
REMARK    6  A    between atoms: C_16  and  C_17
REMARK    7  A    between atoms: C_19  and  C_20
REMARK                            x       y       z     vdW  Elec       q    Type
REMARK                         _______ _______ _______ _____ _____    ______ ____
ROOT
ATOM      1  C   UNL     1       2.473   7.923  18.475  0.00  0.00    +0.000 A 
ATOM      2  C   UNL     1       2.412   7.031  19.546  0.00  0.00    +0.000 A 
ATOM      3  C   UNL     1       3.204   5.870  19.549  0.00  0.00    +0.000 A 
ATOM      4  C   UNL     1       4.079   5.563  18.498  0.00  0.00    +0.000 A 
ATOM      5  C   UNL     1       4.114   6.489  17.438  0.00  0.00    +0.000 A 
ATOM      6  C   UNL     1       3.342   7.655  17.421  0.00  0.00    +0.000 A 
ENDROOT
BRANCH   1   8
ATOM      7  O   UNL     1       1.722   9.926  17.548  0.00  0.00    +0.000 OA
ATOM      8  C   UNL     1       1.633   9.152  18.495  0.00  0.00    +0.000 C 
ATOM      9  N   UNL     1       0.868   9.321  19.638  0.00  0.00    +0.000 N 
ATOM     10  H   UNL     1       1.042   8.686  20.407  0.00  0.00    +0.000 HD
BRANCH   9  11
ATOM     11  C   UNL     1       0.010  10.404  19.922  0.00  0.00    +0.000 A 
ATOM     12  C   UNL     1      -1.154  10.675  19.198  0.00  0.00    +0.000 A 
ATOM     13  C   UNL     1      -1.925  11.804  19.486  0.00  0.00    +0.000 A 
ATOM     14  C   UNL     1      -1.538  12.665  20.510  0.00  0.00    +0.000 A 
ATOM     15 BR   UNL     1      -2.549  14.221  20.860  0.00  0.00    +0.000 Br
ATOM     16  C   UNL     1      -0.402  12.388  21.266  0.00  0.00    +0.000 A 
ATOM     17  C   UNL     1       0.364  11.253  20.979  0.00  0.00    +0.000 A 
ENDBRANCH   9  11
ENDBRANCH   1   8
BRANCH   4  18
ATOM     18  N   UNL     1       4.897   4.437  18.520  0.00  0.00    +0.000 N 
BRANCH  18  19
ATOM     19  C   UNL     1       6.358   4.531  18.311  0.00  0.00    +0.000 C 
BRANCH  19  20
ATOM     20  C   UNL     1       7.069   5.533  19.228  0.00  0.00    +0.000 C 
ATOM     21 CL   UNL     1       7.849   6.861  18.330  0.00  0.00    +0.000 Cl
ENDBRANCH  19  20
ENDBRANCH  18  19
BRANCH  18  22
ATOM     22  C   UNL     1       4.388   3.142  19.023  0.00  0.00    +0.000 C 
BRANCH  22  23
ATOM     23  C   UNL     1       3.454   2.464  18.013  0.00  0.00    +0.000 C 
ATOM     24 CL   UNL     1       1.847   2.189  18.732  0.00  0.00    +0.000 Cl
ENDBRANCH  22  23
ENDBRANCH  18  22
ENDBRANCH   4  18
TORSDOF 7
ENDMDL
MODEL 8
REMARK VINA RESULT:      -6.8      1.259      2.733
REMARK  Name = 
REMARK  7 active torsions:
REMARK  status: ('A' for Active; 'I' for Inactive)
REMARK    1  A    between atoms: C_2  and  C_11
REMARK    2  A    between atoms: N_3  and  C_4
REMARK    3  A    between atoms: C_14  and  N_15
REMARK    4  A    between atoms: N_15  and  C_16
REMARK    5  A    between atoms: N_15  and  C_19
REMARK    6  A    between atoms: C_16  and  C_17
REMARK    7  A    between atoms: C_19  and  C_20
REMARK                            x       y       z     vdW  Elec       q    Type
REMARK                         _______ _______ _______ _____ _____    ______ ____
ROOT
ATOM      1  C   UNL     1       2.764   7.186  19.022  0.00  0.00    +0.000 A 
ATOM      2  C   UNL     1       3.230   6.000  19.591  0.00  0.00    +0.000 A 
ATOM      3  C   UNL     1       4.221   5.243  18.944  0.00  0.00    +0.000 A 
ATOM      4  C   UNL     1       4.783   5.640  17.723  0.00  0.00    +0.000 A 
ATOM      5  C   UNL     1       4.290   6.843  17.183  0.00  0.00    +0.000 A 
ATOM      6  C   UNL     1       3.311   7.616  17.816  0.00  0.00    +0.000 A 
ENDROOT
BRANCH   1   8
ATOM      7  O   UNL     1       1.257   7.524  20.767  0.00  0.00    +0.000 OA
ATOM      8  C   UNL     1       1.720   7.978  19.727  0.00  0.00    +0.000 C 
ATOM      9  N   UNL     1       1.333   9.142  19.083  0.00  0.00    +0.000 N 
ATOM     10  H   UNL     1       1.679   9.285  18.143  0.00  0.00    +0.000 HD
BRANCH   9  11
ATOM     11  C   UNL     1       0.350  10.055  19.519  0.00  0.00    +0.000 A 
ATOM     12  C   UNL     1      -0.824  10.322  18.808  0.00  0.00    +0.000 A 
ATOM     13  C   UNL     1      -1.725  11.289  19.260  0.00  0.00    +0.000 A 
ATOM     14  C   UNL     1      -1.460  11.989  20.433  0.00  0.00    +0.000 A 
ATOM     15 BR   UNL     1      -2.651  13.337  21.012  0.00  0.00    +0.000 Br
ATOM     16  C   UNL     1      -0.315  11.709  21.174  0.00  0.00    +0.000 A 
ATOM     17  C   UNL     1       0.582  10.735  20.723  0.00  0.00    +0.000 A 
ENDBRANCH   9  11
ENDBRANCH   1   8
BRANCH   4  18
ATOM     18  N   UNL     1       5.796   4.915  17.103  0.00  0.00    +0.000 N 
BRANCH  18  19
ATOM     19  C   UNL     1       7.092   4.662  17.769  0.00  0.00    +0.000 C 
BRANCH  19  20
ATOM     20  C   UNL     1       7.659   5.862  18.537  0.00  0.00    +0.000 C 
ATOM     21 CL   UNL     1       7.780   7.331  17.533  0.00  0.00    +0.000 Cl
ENDBRANCH  19  20
ENDBRANCH  18  19
BRANCH  18  22
ATOM     22  C   UNL     1       5.527   4.136  15.875  0.00  0.00    +0.000 C 
BRANCH  22  23
ATOM     23  C   UNL     1       6.394   4.604  14.699  0.00  0.00    +0.000 C 
ATOM     24 CL   UNL     1       6.021   3.665  13.232  0.00  0.00    +0.000 Cl
ENDBRANCH  22  23
ENDBRANCH  18  22
ENDBRANCH   4  18
TORSDOF 7
ENDMDL
MODEL 9
REMARK VINA RESULT:      -6.8      2.205      2.654
REMARK  Name = 
REMARK  7 active torsions:
REMARK  status: ('A' for Active; 'I' for Inactive)
REMARK    1  A    between atoms: C_2  and  C_11
REMARK    2  A    between atoms: N_3  and  C_4
REMARK    3  A    between atoms: C_14  and  N_15
REMARK    4  A    between atoms: N_15  and  C_16
REMARK    5  A    between atoms: N_15  and  C_19
REMARK    6  A    between atoms: C_16  and  C_17
REMARK    7  A    between atoms: C_19  and  C_20
REMARK                            x       y       z     vdW  Elec       q    Type
REMARK                         _______ _______ _______ _____ _____    ______ ____
ROOT
ATOM      1  C   UNL     1       2.230   7.871  18.971  0.00  0.00    +0.000 A 
ATOM      2  C   UNL     1       2.262   6.766  19.822  0.00  0.00    +0.000 A 
ATOM      3  C   UNL     1       3.045   5.644  19.499  0.00  0.00    +0.000 A 
ATOM      4  C   UNL     1       3.821   5.588  18.333  0.00  0.00    +0.000 A 
ATOM      5  C   UNL     1       3.764   6.724  17.503  0.00  0.00    +0.000 A 
ATOM      6  C   UNL     1       2.999   7.854  17.811  0.00  0.00    +0.000 A 
ENDROOT
BRANCH   1   8
ATOM      7  O   UNL     1       1.437  10.031  18.596  0.00  0.00    +0.000 OA
ATOM      8  C   UNL     1       1.401   9.053  19.335  0.00  0.00    +0.000 C 
ATOM      9  N   UNL     1       0.709   8.938  20.530  0.00  0.00    +0.000 N 
ATOM     10  H   UNL     1       0.926   8.140  21.113  0.00  0.00    +0.000 HD
BRANCH   9  11
ATOM     11  C   UNL     1      -0.122   9.916  21.116  0.00  0.00    +0.000 A 
ATOM     12  C   UNL     1      -0.695  10.970  20.399  0.00  0.00    +0.000 A 
ATOM     13  C   UNL     1      -1.455  11.945  21.052  0.00  0.00    +0.000 A 
ATOM     14  C   UNL     1      -1.652  11.863  22.428  0.00  0.00    +0.000 A 
ATOM     15 BR   UNL     1      -2.630  13.212  23.317  0.00  0.00    +0.000 Br
ATOM     16  C   UNL     1      -1.121  10.798  23.150  0.00  0.00    +0.000 A 
ATOM     17  C   UNL     1      -0.367   9.820  22.492  0.00  0.00    +0.000 A 
ENDBRANCH   9  11
ENDBRANCH   1   8
BRANCH   4  18
ATOM     18  N   UNL     1       4.631   4.498  18.034  0.00  0.00    +0.000 N 
BRANCH  18  19
ATOM     19  C   UNL     1       4.069   3.221  17.543  0.00  0.00    +0.000 C 
BRANCH  19  20
ATOM     20  C   UNL     1       3.693   2.225  18.647  0.00  0.00    +0.000 C 
ATOM     21 CL   UNL     1       1.933   2.115  18.909  0.00  0.00    +0.000 Cl
ENDBRANCH  19  20
ENDBRANCH  18  19
BRANCH  18  22
ATOM     22  C   UNL     1       6.099   4.652  17.928  0.00  0.00    +0.000 C 
BRANCH  22  23
ATOM     23  C   UNL     1       6.686   5.381  19.144  0.00  0.00    +0.000 C 
ATOM     24 CL   UNL     1       7.903   6.576  18.631  0.00  0.00    +0.000 Cl
ENDBRANCH  22  23
ENDBRANCH  18  22
ENDBRANCH   4  18
TORSDOF 7
ENDMDL
