MODEL 1
REMARK VINA RESULT:      -7.6      0.000      0.000
REMARK  Name = 
REMARK  7 active torsions:
REMARK  status: ('A' for Active; 'I' for Inactive)
REMARK    1  A    between atoms: C_1  and  N_2
REMARK    2  A    between atoms: N_2  and  C_19
REMARK    3  A    between atoms: C_3  and  C_5
REMARK    4  A    between atoms: C_19  and  C_20
REMARK    5  A    between atoms: C_19  and  C_27
REMARK    6  A    between atoms: C_20  and  N_21
REMARK    7  A    between atoms: C_24  and  O_25
REMARK                            x       y       z     vdW  Elec       q    Type
REMARK                         _______ _______ _______ _____ _____    ______ ____
ROOT
ATOM      1  C   UNL     1      -0.227  14.297  21.360  0.00  0.00    +0.000 C 
ATOM      2  N   UNL     1       0.308  13.638  20.176  0.00  0.00    +0.000 N 
ATOM      3  C   UNL     1       1.274  14.279  19.401  0.00  0.00    +0.000 C 
ATOM      4  O   UNL     1       1.789  13.695  18.458  0.00  0.00    +0.000 OA
ENDROOT
BRANCH   3   5
ATOM      5  C   UNL     1       1.764  15.723  19.633  0.00  0.00    +0.000 C 
ATOM      6  C   UNL     1       1.180  16.648  18.601  0.00  0.00    +0.000 A 
ATOM      7  C   UNL     1      -0.211  16.798  18.519  0.00  0.00    +0.000 A 
ATOM      8  C   UNL     1      -0.770  17.626  17.547  0.00  0.00    +0.000 A 
ATOM      9  C   UNL     1       0.055  18.295  16.640  0.00  0.00    +0.000 A 
ATOM     10  C   UNL     1       1.444  18.166  16.726  0.00  0.00    +0.000 A 
ATOM     11  C   UNL     1       2.014  17.363  17.717  0.00  0.00    +0.000 A 
ATOM     12  O   UNL     1       3.363  17.294  17.821  0.00  0.00    +0.000 OA
ATOM     13  C   UNL     1       4.004  16.634  18.817  0.00  0.00    +0.000 A 
ATOM     14  C   UNL     1       5.392  16.761  18.930  0.00  0.00    +0.000 A 
ATOM     15  C   UNL     1       6.077  16.115  19.961  0.00  0.00    +0.000 A 
ATOM     16  C   UNL     1       5.376  15.326  20.876  0.00  0.00    +0.000 A 
ATOM     17  C   UNL     1       3.987  15.180  20.763  0.00  0.00    +0.000 A 
ATOM     18  C   UNL     1       3.283  15.834  19.734  0.00  0.00    +0.000 A 
ENDBRANCH   3   5
BRANCH   2  19
ATOM     19  C   UNL     1      -0.325  12.344  19.809  0.00  0.00    +0.000 C 
BRANCH  19  20
ATOM     20  C   UNL     1      -0.288  11.322  20.962  0.00  0.00    +0.000 A 
ATOM     21  C   UNL     1      -1.110  11.402  22.112  0.00  0.00    +0.000 A 
ATOM     22  C   UNL     1      -0.996  10.457  23.135  0.00  0.00    +0.000 A 
ATOM     23  C   UNL     1      -0.057   9.432  23.041  0.00  0.00    +0.000 A 
ATOM     24  C   UNL     1       0.757   9.333  21.911  0.00  0.00    +0.000 A 
ATOM     25  C   UNL     1       0.632  10.258  20.874  0.00  0.00    +0.000 A 
ENDBRANCH  19  20
BRANCH  19  26
ATOM     26  C   UNL     1      -1.759  12.481  19.188  0.00  0.00    +0.000 C 
BRANCH  26  27
ATOM     27  N   UNL     1      -2.505  11.238  18.837  0.00  0.00    +0.000 NA
ATOM     28  C   UNL     1      -3.923  11.482  18.454  0.00  0.00    +0.000 C 
ATOM     29  C   UNL     1      -4.114  10.993  17.021  0.00  0.00    +0.000 C 
ATOM     30  C   UNL     1      -2.739  11.210  16.457  0.00  0.00    +0.000 C 
ATOM     31  C   UNL     1      -1.901  10.662  17.606  0.00  0.00    +0.000 C 
BRANCH  30  32
ATOM     32  O   UNL     1      -2.520  10.565  15.227  0.00  0.00    +0.000 OA
ATOM     33  H   UNL     1      -2.949  11.115  14.517  0.00  0.00    +0.000 HD
ENDBRANCH  30  32
ENDBRANCH  26  27
ENDBRANCH  19  26
ENDBRANCH   2  19
TORSDOF 6
ENDMDL
MODEL 2
REMARK VINA RESULT:      -7.3      1.612      2.245
REMARK  Name = 
REMARK  7 active torsions:
REMARK  status: ('A' for Active; 'I' for Inactive)
REMARK    1  A    between atoms: C_1  and  N_2
REMARK    2  A    between atoms: N_2  and  C_19
REMARK    3  A    between atoms: C_3  and  C_5
REMARK    4  A    between atoms: C_19  and  C_20
REMARK    5  A    between atoms: C_19  and  C_27
REMARK    6  A    between atoms: C_20  and  N_21
REMARK    7  A    between atoms: C_24  and  O_25
REMARK                            x       y       z     vdW  Elec       q    Type
REMARK                         _______ _______ _______ _____ _____    ______ ____
ROOT
ATOM      1  C   UNL     1      -0.319  12.762  20.784  0.00  0.00    +0.000 C 
ATOM      2  N   UNL     1       0.357  12.561  19.509  0.00  0.00    +0.000 N 
ATOM      3  C   UNL     1       1.286  13.500  19.061  0.00  0.00    +0.000 C 
ATOM      4  O   UNL     1       1.919  13.293  18.036  0.00  0.00    +0.000 OA
ENDROOT
BRANCH   3   5
ATOM      5  C   UNL     1       1.591  14.835  19.770  0.00  0.00    +0.000 C 
ATOM      6  C   UNL     1       1.117  15.993  18.936  0.00  0.00    +0.000 A 
ATOM      7  C   UNL     1      -0.245  16.107  18.626  0.00  0.00    +0.000 A 
ATOM      8  C   UNL     1      -0.697  17.156  17.827  0.00  0.00    +0.000 A 
ATOM      9  C   UNL     1       0.211  18.087  17.318  0.00  0.00    +0.000 A 
ATOM     10  C   UNL     1       1.568  17.993  17.637  0.00  0.00    +0.000 A 
ATOM     11  C   UNL     1       2.024  16.963  18.463  0.00  0.00    +0.000 A 
ATOM     12  O   UNL     1       3.334  16.919  18.808  0.00  0.00    +0.000 OA
ATOM     13  C   UNL     1       3.846  16.027  19.691  0.00  0.00    +0.000 A 
ATOM     14  C   UNL     1       5.174  16.171  20.105  0.00  0.00    +0.000 A 
ATOM     15  C   UNL     1       5.722  15.284  21.034  0.00  0.00    +0.000 A 
ATOM     16  C   UNL     1       4.946  14.239  21.543  0.00  0.00    +0.000 A 
ATOM     17  C   UNL     1       3.619  14.079  21.123  0.00  0.00    +0.000 A 
ATOM     18  C   UNL     1       3.051  14.972  20.194  0.00  0.00    +0.000 A 
ENDBRANCH   3   5
BRANCH   2  19
ATOM     19  C   UNL     1      -0.100  11.398  18.705  0.00  0.00    +0.000 C 
BRANCH  19  20
ATOM     20  C   UNL     1       0.744  10.135  18.966  0.00  0.00    +0.000 A 
ATOM     21  C   UNL     1       1.524   9.489  17.976  0.00  0.00    +0.000 A 
ATOM     22  C   UNL     1       2.237   8.327  18.278  0.00  0.00    +0.000 A 
ATOM     23  C   UNL     1       2.173   7.778  19.557  0.00  0.00    +0.000 A 
ATOM     24  C   UNL     1       1.415   8.404  20.548  0.00  0.00    +0.000 A 
ATOM     25  C   UNL     1       0.721   9.580  20.262  0.00  0.00    +0.000 A 
ENDBRANCH  19  20
BRANCH  19  26
ATOM     26  C   UNL     1      -1.639  11.110  18.803  0.00  0.00    +0.000 C 
BRANCH  26  27
ATOM     27  N   UNL     1      -2.563  11.865  17.909  0.00  0.00    +0.000 NA
ATOM     28  C   UNL     1      -2.823  11.186  16.610  0.00  0.00    +0.000 C 
ATOM     29  C   UNL     1      -4.320  10.904  16.517  0.00  0.00    +0.000 C 
ATOM     30  C   UNL     1      -4.671  10.739  17.968  0.00  0.00    +0.000 C 
ATOM     31  C   UNL     1      -3.902  11.916  18.554  0.00  0.00    +0.000 C 
BRANCH  30  32
ATOM     32  O   UNL     1      -6.054  10.769  18.225  0.00  0.00    +0.000 OA
ATOM     33  H   UNL     1      -6.521  10.454  17.405  0.00  0.00    +0.000 HD
ENDBRANCH  30  32
ENDBRANCH  26  27
ENDBRANCH  19  26
ENDBRANCH   2  19
TORSDOF 6
ENDMDL
MODEL 3
REMARK VINA RESULT:      -7.2      3.559      6.710
REMARK  Name = 
REMARK  7 active torsions:
REMARK  status: ('A' for Active; 'I' for Inactive)
REMARK    1  A    between atoms: C_1  and  N_2
REMARK    2  A    between atoms: N_2  and  C_19
REMARK    3  A    between atoms: C_3  and  C_5
REMARK    4  A    between atoms: C_19  and  C_20
REMARK    5  A    between atoms: C_19  and  C_27
REMARK    6  A    between atoms: C_20  and  N_21
REMARK    7  A    between atoms: C_24  and  O_25
REMARK                            x       y       z     vdW  Elec       q    Type
REMARK                         _______ _______ _______ _____ _____    ______ ____
ROOT
ATOM      1  C   UNL     1      -1.308  11.538  21.376  0.00  0.00    +0.000 C 
ATOM      2  N   UNL     1      -1.886  12.576  20.534  0.00  0.00    +0.000 N 
ATOM      3  C   UNL     1      -2.893  13.399  21.038  0.00  0.00    +0.000 C 
ATOM      4  O   UNL     1      -3.320  14.326  20.366  0.00  0.00    +0.000 OA
ENDROOT
BRANCH   3   5
ATOM      5  C   UNL     1      -3.548  13.229  22.424  0.00  0.00    +0.000 C 
ATOM      6  C   UNL     1      -5.047  13.237  22.301  0.00  0.00    +0.000 A 
ATOM      7  C   UNL     1      -5.680  12.250  21.533  0.00  0.00    +0.000 A 
ATOM      8  C   UNL     1      -7.066  12.261  21.382  0.00  0.00    +0.000 A 
ATOM      9  C   UNL     1      -7.826  13.267  21.981  0.00  0.00    +0.000 A 
ATOM     10  C   UNL     1      -7.205  14.244  22.765  0.00  0.00    +0.000 A 
ATOM     11  C   UNL     1      -5.821  14.222  22.948  0.00  0.00    +0.000 A 
ATOM     12  O   UNL     1      -5.243  15.143  23.756  0.00  0.00    +0.000 OA
ATOM     13  C   UNL     1      -3.927  15.133  24.082  0.00  0.00    +0.000 A 
ATOM     14  C   UNL     1      -3.462  16.025  25.053  0.00  0.00    +0.000 A 
ATOM     15  C   UNL     1      -2.118  16.021  25.429  0.00  0.00    +0.000 A 
ATOM     16  C   UNL     1      -1.228  15.129  24.824  0.00  0.00    +0.000 A 
ATOM     17  C   UNL     1      -1.681  14.241  23.840  0.00  0.00    +0.000 A 
ATOM     18  C   UNL     1      -3.036  14.229  23.458  0.00  0.00    +0.000 A 
ENDBRANCH   3   5
BRANCH   2  19
ATOM     19  C   UNL     1      -1.429  12.598  19.119  0.00  0.00    +0.000 C 
BRANCH  19  20
ATOM     20  C   UNL     1      -0.130  13.407  18.934  0.00  0.00    +0.000 A 
ATOM     21  C   UNL     1       1.144  12.820  18.737  0.00  0.00    +0.000 A 
ATOM     22  C   UNL     1       2.283  13.619  18.611  0.00  0.00    +0.000 A 
ATOM     23  C   UNL     1       2.179  15.006  18.695  0.00  0.00    +0.000 A 
ATOM     24  C   UNL     1       0.931  15.603  18.882  0.00  0.00    +0.000 A 
ATOM     25  C   UNL     1      -0.215  14.814  18.982  0.00  0.00    +0.000 A 
ENDBRANCH  19  20
BRANCH  19  26
ATOM     26  C   UNL     1      -1.343  11.183  18.448  0.00  0.00    +0.000 C 
BRANCH  26  27
ATOM     27  N   UNL     1      -2.610  10.511  18.038  0.00  0.00    +0.000 NA
ATOM     28  C   UNL     1      -3.751  11.450  17.860  0.00  0.00    +0.000 C 
ATOM     29  C   UNL     1      -4.220  11.351  16.410  0.00  0.00    +0.000 C 
ATOM     30  C   UNL     1      -2.938  10.989  15.718  0.00  0.00    +0.000 C 
ATOM     31  C   UNL     1      -2.416   9.931  16.682  0.00  0.00    +0.000 C 
BRANCH  30  32
ATOM     32  O   UNL     1      -3.114  10.530  14.401  0.00  0.00    +0.000 OA
ATOM     33  H   UNL     1      -2.616  11.145  13.797  0.00  0.00    +0.000 HD
ENDBRANCH  30  32
ENDBRANCH  26  27
ENDBRANCH  19  26
ENDBRANCH   2  19
TORSDOF 6
ENDMDL
MODEL 4
REMARK VINA RESULT:      -7.1      0.783      1.051
REMARK  Name = 
REMARK  7 active torsions:
REMARK  status: ('A' for Active; 'I' for Inactive)
REMARK    1  A    between atoms: C_1  and  N_2
REMARK    2  A    between atoms: N_2  and  C_19
REMARK    3  A    between atoms: C_3  and  C_5
REMARK    4  A    between atoms: C_19  and  C_20
REMARK    5  A    between atoms: C_19  and  C_27
REMARK    6  A    between atoms: C_20  and  N_21
REMARK    7  A    between atoms: C_24  and  O_25
REMARK                            x       y       z     vdW  Elec       q    Type
REMARK                         _______ _______ _______ _____ _____    ______ ____
ROOT
ATOM      1  C   UNL     1      -0.174  14.314  21.609  0.00  0.00    +0.000 C 
ATOM      2  N   UNL     1       0.183  13.667  20.354  0.00  0.00    +0.000 N 
ATOM      3  C   UNL     1       1.076  14.290  19.481  0.00  0.00    +0.000 C 
ATOM      4  O   UNL     1       1.445  13.712  18.469  0.00  0.00    +0.000 OA
ENDROOT
BRANCH   3   5
ATOM      5  C   UNL     1       1.654  15.704  19.685  0.00  0.00    +0.000 C 
ATOM      6  C   UNL     1       1.027  16.673  18.722  0.00  0.00    +0.000 A 
ATOM      7  C   UNL     1      -0.357  16.892  18.768  0.00  0.00    +0.000 A 
ATOM      8  C   UNL     1      -0.960  17.762  17.861  0.00  0.00    +0.000 A 
ATOM      9  C   UNL     1      -0.188  18.405  16.891  0.00  0.00    +0.000 A 
ATOM     10  C   UNL     1       1.195  18.208  16.850  0.00  0.00    +0.000 A 
ATOM     11  C   UNL     1       1.812  17.363  17.774  0.00  0.00    +0.000 A 
ATOM     12  O   UNL     1       3.159  17.227  17.755  0.00  0.00    +0.000 OA
ATOM     13  C   UNL     1       3.854  16.520  18.681  0.00  0.00    +0.000 A 
ATOM     14  C   UNL     1       5.252  16.579  18.669  0.00  0.00    +0.000 A 
ATOM     15  C   UNL     1       5.994  15.884  19.625  0.00  0.00    +0.000 A 
ATOM     16  C   UNL     1       5.341  15.114  20.591  0.00  0.00    +0.000 A 
ATOM     17  C   UNL     1       3.942  15.037  20.602  0.00  0.00    +0.000 A 
ATOM     18  C   UNL     1       3.180  15.741  19.649  0.00  0.00    +0.000 A 
ENDBRANCH   3   5
BRANCH   2  19
ATOM     19  C   UNL     1      -0.548  12.413  20.036  0.00  0.00    +0.000 C 
BRANCH  19  20
ATOM     20  C   UNL     1      -0.344  11.325  21.109  0.00  0.00    +0.000 A 
ATOM     21  C   UNL     1      -1.083  11.260  22.316  0.00  0.00    +0.000 A 
ATOM     22  C   UNL     1      -0.818  10.264  23.259  0.00  0.00    +0.000 A 
ATOM     23  C   UNL     1       0.191   9.331  23.028  0.00  0.00    +0.000 A 
ATOM     24  C   UNL     1       0.925   9.375  21.841  0.00  0.00    +0.000 A 
ATOM     25  C   UNL     1       0.649  10.351  20.883  0.00  0.00    +0.000 A 
ENDBRANCH  19  20
BRANCH  19  26
ATOM     26  C   UNL     1      -2.064  12.620  19.687  0.00  0.00    +0.000 C 
BRANCH  26  27
ATOM     27  N   UNL     1      -2.517  12.342  18.293  0.00  0.00    +0.000 NA
ATOM     28  C   UNL     1      -1.493  11.657  17.459  0.00  0.00    +0.000 C 
ATOM     29  C   UNL     1      -2.069  10.315  17.014  0.00  0.00    +0.000 C 
ATOM     30  C   UNL     1      -2.984  10.000  18.163  0.00  0.00    +0.000 C 
ATOM     31  C   UNL     1      -3.636  11.364  18.352  0.00  0.00    +0.000 C 
BRANCH  30  32
ATOM     32  O   UNL     1      -3.891   8.960  17.898  0.00  0.00    +0.000 OA
ATOM     33  H   UNL     1      -4.149   9.020  16.939  0.00  0.00    +0.000 HD
ENDBRANCH  30  32
ENDBRANCH  26  27
ENDBRANCH  19  26
ENDBRANCH   2  19
TORSDOF 6
ENDMDL
MODEL 5
REMARK VINA RESULT:      -7.0      4.915      8.668
REMARK  Name = 
REMARK  7 active torsions:
REMARK  status: ('A' for Active; 'I' for Inactive)
REMARK    1  A    between atoms: C_1  and  N_2
REMARK    2  A    between atoms: N_2  and  C_19
REMARK    3  A    between atoms: C_3  and  C_5
REMARK    4  A    between atoms: C_19  and  C_20
REMARK    5  A    between atoms: C_19  and  C_27
REMARK    6  A    between atoms: C_20  and  N_21
REMARK    7  A    between atoms: C_24  and  O_25
REMARK                            x       y       z     vdW  Elec       q    Type
REMARK                         _______ _______ _______ _____ _____    ______ ____
ROOT
ATOM      1  C   UNL     1       1.408   8.611  17.310  0.00  0.00    +0.000 C 
ATOM      2  N   UNL     1       1.501   8.589  18.764  0.00  0.00    +0.000 N 
ATOM      3  C   UNL     1       2.134   7.522  19.402  0.00  0.00    +0.000 C 
ATOM      4  O   UNL     1       2.292   7.541  20.614  0.00  0.00    +0.000 OA
ENDROOT
BRANCH   3   5
ATOM      5  C   UNL     1       2.666   6.265  18.685  0.00  0.00    +0.000 C 
ATOM      6  C   UNL     1       2.316   5.028  19.464  0.00  0.00    +0.000 A 
ATOM      7  C   UNL     1       0.968   4.713  19.689  0.00  0.00    +0.000 A 
ATOM      8  C   UNL     1       0.627   3.588  20.438  0.00  0.00    +0.000 A 
ATOM      9  C   UNL     1       1.628   2.780  20.981  0.00  0.00    +0.000 A 
ATOM     10  C   UNL     1       2.974   3.075  20.745  0.00  0.00    +0.000 A 
ATOM     11  C   UNL     1       3.324   4.182  19.971  0.00  0.00    +0.000 A 
ATOM     12  O   UNL     1       4.631   4.421  19.706  0.00  0.00    +0.000 OA
ATOM     13  C   UNL     1       5.060   5.402  18.874  0.00  0.00    +0.000 A 
ATOM     14  C   UNL     1       6.416   5.460  18.537  0.00  0.00    +0.000 A 
ATOM     15  C   UNL     1       6.883   6.442  17.662  0.00  0.00    +0.000 A 
ATOM     16  C   UNL     1       5.996   7.381  17.130  0.00  0.00    +0.000 A 
ATOM     17  C   UNL     1       4.638   7.340  17.472  0.00  0.00    +0.000 A 
ATOM     18  C   UNL     1       4.152   6.349  18.347  0.00  0.00    +0.000 A 
ENDBRANCH   3   5
BRANCH   2  19
ATOM     19  C   UNL     1       0.787   9.678  19.480  0.00  0.00    +0.000 C 
BRANCH  19  20
ATOM     20  C   UNL     1       1.484  11.043  19.320  0.00  0.00    +0.000 A 
ATOM     21  C   UNL     1       2.216  11.425  18.169  0.00  0.00    +0.000 A 
ATOM     22  C   UNL     1       2.851  12.667  18.110  0.00  0.00    +0.000 A 
ATOM     23  C   UNL     1       2.786  13.540  19.194  0.00  0.00    +0.000 A 
ATOM     24  C   UNL     1       2.064  13.185  20.334  0.00  0.00    +0.000 A 
ATOM     25  C   UNL     1       1.405  11.956  20.391  0.00  0.00    +0.000 A 
ENDBRANCH  19  20
BRANCH  19  26
ATOM     26  C   UNL     1      -0.748   9.759  19.164  0.00  0.00    +0.000 C 
BRANCH  26  27
ATOM     27  N   UNL     1      -1.191  10.566  17.990  0.00  0.00    +0.000 NA
ATOM     28  C   UNL     1      -2.179   9.865  17.125  0.00  0.00    +0.000 C 
ATOM     29  C   UNL     1      -3.462  10.691  17.109  0.00  0.00    +0.000 C 
ATOM     30  C   UNL     1      -3.405  11.334  18.466  0.00  0.00    +0.000 C 
ATOM     31  C   UNL     1      -1.940  11.750  18.492  0.00  0.00    +0.000 C 
BRANCH  30  32
ATOM     32  O   UNL     1      -4.308  12.400  18.627  0.00  0.00    +0.000 OA
ATOM     33  H   UNL     1      -3.924  13.023  19.300  0.00  0.00    +0.000 HD
ENDBRANCH  30  32
ENDBRANCH  26  27
ENDBRANCH  19  26
ENDBRANCH   2  19
TORSDOF 6
ENDMDL
MODEL 6
REMARK VINA RESULT:      -7.0      5.078      9.134
REMARK  Name = 
REMARK  7 active torsions:
REMARK  status: ('A' for Active; 'I' for Inactive)
REMARK    1  A    between atoms: C_1  and  N_2
REMARK    2  A    between atoms: N_2  and  C_19
REMARK    3  A    between atoms: C_3  and  C_5
REMARK    4  A    between atoms: C_19  and  C_20
REMARK    5  A    between atoms: C_19  and  C_27
REMARK    6  A    between atoms: C_20  and  N_21
REMARK    7  A    between atoms: C_24  and  O_25
REMARK                            x       y       z     vdW  Elec       q    Type
REMARK                         _______ _______ _______ _____ _____    ______ ____
ROOT
ATOM      1  C   UNL     1       1.542   8.605  17.455  0.00  0.00    +0.000 C 
ATOM      2  N   UNL     1       1.627   8.507  18.906  0.00  0.00    +0.000 N 
ATOM      3  C   UNL     1       2.200   7.378  19.494  0.00  0.00    +0.000 C 
ATOM      4  O   UNL     1       2.353   7.331  20.705  0.00  0.00    +0.000 OA
ENDROOT
BRANCH   3   5
ATOM      5  C   UNL     1       2.668   6.131  18.717  0.00  0.00    +0.000 C 
ATOM      6  C   UNL     1       2.325   4.880  19.476  0.00  0.00    +0.000 A 
ATOM      7  C   UNL     1       0.982   4.589  19.755  0.00  0.00    +0.000 A 
ATOM      8  C   UNL     1       0.649   3.450  20.486  0.00  0.00    +0.000 A 
ATOM      9  C   UNL     1       1.654   2.604  20.959  0.00  0.00    +0.000 A 
ATOM     10  C   UNL     1       2.994   2.876  20.670  0.00  0.00    +0.000 A 
ATOM     11  C   UNL     1       3.335   3.997  19.911  0.00  0.00    +0.000 A 
ATOM     12  O   UNL     1       4.634   4.214  19.593  0.00  0.00    +0.000 OA
ATOM     13  C   UNL     1       5.047   5.210  18.770  0.00  0.00    +0.000 A 
ATOM     14  C   UNL     1       6.388   5.247  18.372  0.00  0.00    +0.000 A 
ATOM     15  C   UNL     1       6.837   6.244  17.504  0.00  0.00    +0.000 A 
ATOM     16  C   UNL     1       5.949   7.217  17.040  0.00  0.00    +0.000 A 
ATOM     17  C   UNL     1       4.608   7.197  17.445  0.00  0.00    +0.000 A 
ATOM     18  C   UNL     1       4.139   6.192  18.312  0.00  0.00    +0.000 A 
ENDBRANCH   3   5
BRANCH   2  19
ATOM     19  C   UNL     1       0.967   9.596  19.673  0.00  0.00    +0.000 C 
BRANCH  19  20
ATOM     20  C   UNL     1      -0.205  10.232  18.901  0.00  0.00    +0.000 A 
ATOM     21  C   UNL     1      -1.352   9.515  18.479  0.00  0.00    +0.000 A 
ATOM     22  C   UNL     1      -2.361  10.152  17.752  0.00  0.00    +0.000 A 
ATOM     23  C   UNL     1      -2.240  11.499  17.418  0.00  0.00    +0.000 A 
ATOM     24  C   UNL     1      -1.120  12.224  17.831  0.00  0.00    +0.000 A 
ATOM     25  C   UNL     1      -0.121  11.602  18.580  0.00  0.00    +0.000 A 
ENDBRANCH  19  20
BRANCH  19  26
ATOM     26  C   UNL     1       0.566   9.202  21.137  0.00  0.00    +0.000 C 
BRANCH  26  27
ATOM     27  N   UNL     1       0.712  10.224  22.214  0.00  0.00    +0.000 NA
ATOM     28  C   UNL     1       0.718  11.624  21.711  0.00  0.00    +0.000 C 
ATOM     29  C   UNL     1      -0.464  12.356  22.342  0.00  0.00    +0.000 C 
ATOM     30  C   UNL     1      -1.436  11.226  22.525  0.00  0.00    +0.000 C 
ATOM     31  C   UNL     1      -0.495  10.166  23.082  0.00  0.00    +0.000 C 
BRANCH  30  32
ATOM     32  O   UNL     1      -2.516  11.538  23.370  0.00  0.00    +0.000 OA
ATOM     33  H   UNL     1      -3.254  11.888  22.802  0.00  0.00    +0.000 HD
ENDBRANCH  30  32
ENDBRANCH  26  27
ENDBRANCH  19  26
ENDBRANCH   2  19
TORSDOF 6
ENDMDL
MODEL 7
REMARK VINA RESULT:      -7.0      1.257      1.502
REMARK  Name = 
REMARK  7 active torsions:
REMARK  status: ('A' for Active; 'I' for Inactive)
REMARK    1  A    between atoms: C_1  and  N_2
REMARK    2  A    between atoms: N_2  and  C_19
REMARK    3  A    between atoms: C_3  and  C_5
REMARK    4  A    between atoms: C_19  and  C_20
REMARK    5  A    between atoms: C_19  and  C_27
REMARK    6  A    between atoms: C_20  and  N_21
REMARK    7  A    between atoms: C_24  and  O_25
REMARK                            x       y       z     vdW  Elec       q    Type
REMARK                         _______ _______ _______ _____ _____    ______ ____
ROOT
ATOM      1  C   UNL     1      -0.916  15.015  21.385  0.00  0.00    +0.000 C 
ATOM      2  N   UNL     1      -0.512  14.186  20.257  0.00  0.00    +0.000 N 
ATOM      3  C   UNL     1       0.567  14.573  19.463  0.00  0.00    +0.000 C 
ATOM      4  O   UNL     1       0.964  13.838  18.570  0.00  0.00    +0.000 OA
ENDROOT
BRANCH   3   5
ATOM      5  C   UNL     1       1.329  15.905  19.613  0.00  0.00    +0.000 C 
ATOM      6  C   UNL     1       0.894  16.881  18.555  0.00  0.00    +0.000 A 
ATOM      7  C   UNL     1      -0.445  17.291  18.504  0.00  0.00    +0.000 A 
ATOM      8  C   UNL     1      -0.872  18.170  17.510  0.00  0.00    +0.000 A 
ATOM      9  C   UNL     1       0.031  18.631  16.550  0.00  0.00    +0.000 A 
ATOM     10  C   UNL     1       1.373  18.243  16.604  0.00  0.00    +0.000 A 
ATOM     11  C   UNL     1       1.816  17.388  17.615  0.00  0.00    +0.000 A 
ATOM     12  O   UNL     1       3.130  17.066  17.685  0.00  0.00    +0.000 OA
ATOM     13  C   UNL     1       3.670  16.337  18.693  0.00  0.00    +0.000 A 
ATOM     14  C   UNL     1       5.061  16.202  18.761  0.00  0.00    +0.000 A 
ATOM     15  C   UNL     1       5.648  15.480  19.801  0.00  0.00    +0.000 A 
ATOM     16  C   UNL     1       4.844  14.877  20.772  0.00  0.00    +0.000 A 
ATOM     17  C   UNL     1       3.449  14.995  20.704  0.00  0.00    +0.000 A 
ATOM     18  C   UNL     1       2.845  15.728  19.666  0.00  0.00    +0.000 A 
ENDBRANCH   3   5
BRANCH   2  19
ATOM     19  C   UNL     1      -1.385  13.020  19.960  0.00  0.00    +0.000 C 
BRANCH  19  20
ATOM     20  C   UNL     1      -1.017  11.781  20.799  0.00  0.00    +0.000 A 
ATOM     21  C   UNL     1      -1.216  11.689  22.198  0.00  0.00    +0.000 A 
ATOM     22  C   UNL     1      -0.825  10.545  22.898  0.00  0.00    +0.000 A 
ATOM     23  C   UNL     1      -0.218   9.486  22.227  0.00  0.00    +0.000 A 
ATOM     24  C   UNL     1      -0.021   9.555  20.847  0.00  0.00    +0.000 A 
ATOM     25  C   UNL     1      -0.432  10.683  20.136  0.00  0.00    +0.000 A 
ENDBRANCH  19  20
BRANCH  19  26
ATOM     26  C   UNL     1      -2.921  13.334  20.013  0.00  0.00    +0.000 C 
BRANCH  26  27
ATOM     27  N   UNL     1      -3.879  12.193  20.067  0.00  0.00    +0.000 NA
ATOM     28  C   UNL     1      -5.255  12.588  20.476  0.00  0.00    +0.000 C 
ATOM     29  C   UNL     1      -6.206  12.233  19.335  0.00  0.00    +0.000 C 
ATOM     30  C   UNL     1      -5.295  12.375  18.149  0.00  0.00    +0.000 C 
ATOM     31  C   UNL     1      -4.059  11.666  18.688  0.00  0.00    +0.000 C 
BRANCH  30  32
ATOM     32  O   UNL     1      -5.811  11.814  16.967  0.00  0.00    +0.000 OA
ATOM     33  H   UNL     1      -5.856  10.828  17.095  0.00  0.00    +0.000 HD
ENDBRANCH  30  32
ENDBRANCH  26  27
ENDBRANCH  19  26
ENDBRANCH   2  19
TORSDOF 6
ENDMDL
MODEL 8
REMARK VINA RESULT:      -6.9      2.083      3.258
REMARK  Name = 
REMARK  7 active torsions:
REMARK  status: ('A' for Active; 'I' for Inactive)
REMARK    1  A    between atoms: C_1  and  N_2
REMARK    2  A    between atoms: N_2  and  C_19
REMARK    3  A    between atoms: C_3  and  C_5
REMARK    4  A    between atoms: C_19  and  C_20
REMARK    5  A    between atoms: C_19  and  C_27
REMARK    6  A    between atoms: C_20  and  N_21
REMARK    7  A    between atoms: C_24  and  O_25
REMARK                            x       y       z     vdW  Elec       q    Type
REMARK                         _______ _______ _______ _____ _____    ______ ____
ROOT
ATOM      1  C   UNL     1       1.194  11.875  20.481  0.00  0.00    +0.000 C 
ATOM      2  N   UNL     1       0.361  12.014  19.294  0.00  0.00    +0.000 N 
ATOM      3  C   UNL     1       0.045  13.284  18.812  0.00  0.00    +0.000 C 
ATOM      4  O   UNL     1      -0.579  13.404  17.768  0.00  0.00    +0.000 OA
ENDROOT
BRANCH   3   5
ATOM      5  C   UNL     1       0.423  14.604  19.513  0.00  0.00    +0.000 C 
ATOM      6  C   UNL     1      -0.809  15.302  20.019  0.00  0.00    +0.000 A 
ATOM      7  C   UNL     1      -1.621  14.664  20.968  0.00  0.00    +0.000 A 
ATOM      8  C   UNL     1      -2.784  15.283  21.424  0.00  0.00    +0.000 A 
ATOM      9  C   UNL     1      -3.153  16.533  20.922  0.00  0.00    +0.000 A 
ATOM     10  C   UNL     1      -2.340  17.184  19.991  0.00  0.00    +0.000 A 
ATOM     11  C   UNL     1      -1.157  16.586  19.553  0.00  0.00    +0.000 A 
ATOM     12  O   UNL     1      -0.353  17.256  18.692  0.00  0.00    +0.000 OA
ATOM     13  C   UNL     1       0.865  16.806  18.301  0.00  0.00    +0.000 A 
ATOM     14  C   UNL     1       1.687  17.647  17.544  0.00  0.00    +0.000 A 
ATOM     15  C   UNL     1       2.956  17.222  17.148  0.00  0.00    +0.000 A 
ATOM     16  C   UNL     1       3.405  15.946  17.497  0.00  0.00    +0.000 A 
ATOM     17  C   UNL     1       2.584  15.090  18.243  0.00  0.00    +0.000 A 
ATOM     18  C   UNL     1       1.304  15.510  18.657  0.00  0.00    +0.000 A 
ENDBRANCH   3   5
BRANCH   2  19
ATOM     19  C   UNL     1      -0.205  10.754  18.744  0.00  0.00    +0.000 C 
BRANCH  19  20
ATOM     20  C   UNL     1       0.699   9.535  19.016  0.00  0.00    +0.000 A 
ATOM     21  C   UNL     1       0.777   8.875  20.266  0.00  0.00    +0.000 A 
ATOM     22  C   UNL     1       1.646   7.797  20.448  0.00  0.00    +0.000 A 
ATOM     23  C   UNL     1       2.462   7.370  19.402  0.00  0.00    +0.000 A 
ATOM     24  C   UNL     1       2.394   8.004  18.160  0.00  0.00    +0.000 A 
ATOM     25  C   UNL     1       1.510   9.064  17.963  0.00  0.00    +0.000 A 
ENDBRANCH  19  20
BRANCH  19  26
ATOM     26  C   UNL     1      -1.696  10.484  19.150  0.00  0.00    +0.000 C 
BRANCH  26  27
ATOM     27  N   UNL     1      -2.574   9.754  18.190  0.00  0.00    +0.000 NA
ATOM     28  C   UNL     1      -3.971  10.267  18.153  0.00  0.00    +0.000 C 
ATOM     29  C   UNL     1      -4.255  10.755  16.734  0.00  0.00    +0.000 C 
ATOM     30  C   UNL     1      -2.883  11.183  16.298  0.00  0.00    +0.000 C 
ATOM     31  C   UNL     1      -2.070  10.002  16.813  0.00  0.00    +0.000 C 
BRANCH  30  32
ATOM     32  O   UNL     1      -2.770  11.399  14.913  0.00  0.00    +0.000 OA
ATOM     33  H   UNL     1      -3.689  11.400  14.531  0.00  0.00    +0.000 HD
ENDBRANCH  30  32
ENDBRANCH  26  27
ENDBRANCH  19  26
ENDBRANCH   2  19
TORSDOF 6
ENDMDL
MODEL 9
REMARK VINA RESULT:      -6.8      2.210      3.925
REMARK  Name = 
REMARK  7 active torsions:
REMARK  status: ('A' for Active; 'I' for Inactive)
REMARK    1  A    between atoms: C_1  and  N_2
REMARK    2  A    between atoms: N_2  and  C_19
REMARK    3  A    between atoms: C_3  and  C_5
REMARK    4  A    between atoms: C_19  and  C_20
REMARK    5  A    between atoms: C_19  and  C_27
REMARK    6  A    between atoms: C_20  and  N_21
REMARK    7  A    between atoms: C_24  and  O_25
REMARK                            x       y       z     vdW  Elec       q    Type
REMARK                         _______ _______ _______ _____ _____    ______ ____
ROOT
ATOM      1  C   UNL     1      -0.135  12.753  21.663  0.00  0.00    +0.000 C 
ATOM      2  N   UNL     1      -0.503  12.594  20.263  0.00  0.00    +0.000 N 
ATOM      3  C   UNL     1      -0.242  13.622  19.356  0.00  0.00    +0.000 C 
ATOM      4  O   UNL     1      -0.469  13.459  18.166  0.00  0.00    +0.000 OA
ENDROOT
BRANCH   3   5
ATOM      5  C   UNL     1       0.322  15.004  19.740  0.00  0.00    +0.000 C 
ATOM      6  C   UNL     1      -0.722  16.069  19.551  0.00  0.00    +0.000 A 
ATOM      7  C   UNL     1      -1.915  16.002  20.286  0.00  0.00    +0.000 A 
ATOM      8  C   UNL     1      -2.907  16.963  20.100  0.00  0.00    +0.000 A 
ATOM      9  C   UNL     1      -2.724  17.985  19.166  0.00  0.00    +0.000 A 
ATOM     10  C   UNL     1      -1.530  18.071  18.443  0.00  0.00    +0.000 A 
ATOM     11  C   UNL     1      -0.518  17.131  18.647  0.00  0.00    +0.000 A 
ATOM     12  O   UNL     1       0.653  17.261  17.979  0.00  0.00    +0.000 OA
ATOM     13  C   UNL     1       1.731  16.467  18.193  0.00  0.00    +0.000 A 
ATOM     14  C   UNL     1       2.943  16.787  17.575  0.00  0.00    +0.000 A 
ATOM     15  C   UNL     1       4.076  16.003  17.797  0.00  0.00    +0.000 A 
ATOM     16  C   UNL     1       3.998  14.885  18.631  0.00  0.00    +0.000 A 
ATOM     17  C   UNL     1       2.784  14.547  19.244  0.00  0.00    +0.000 A 
ATOM     18  C   UNL     1       1.636  15.335  19.036  0.00  0.00    +0.000 A 
ENDBRANCH   3   5
BRANCH   2  19
ATOM     19  C   UNL     1      -1.260  11.361  19.923  0.00  0.00    +0.000 C 
BRANCH  19  20
ATOM     20  C   UNL     1      -2.627  11.669  19.282  0.00  0.00    +0.000 A 
ATOM     21  C   UNL     1      -3.620  12.476  19.889  0.00  0.00    +0.000 A 
ATOM     22  C   UNL     1      -4.851  12.682  19.262  0.00  0.00    +0.000 A 
ATOM     23  C   UNL     1      -5.122  12.080  18.035  0.00  0.00    +0.000 A 
ATOM     24  C   UNL     1      -4.153  11.287  17.417  0.00  0.00    +0.000 A 
ATOM     25  C   UNL     1      -2.912  11.097  18.025  0.00  0.00    +0.000 A 
ENDBRANCH  19  20
BRANCH  19  26
ATOM     26  C   UNL     1      -0.443  10.310  19.095  0.00  0.00    +0.000 C 
BRANCH  26  27
ATOM     27  N   UNL     1       0.979  10.059  19.468  0.00  0.00    +0.000 NA
ATOM     28  C   UNL     1       1.197   8.749  20.142  0.00  0.00    +0.000 C 
ATOM     29  C   UNL     1       2.160   7.933  19.285  0.00  0.00    +0.000 C 
ATOM     30  C   UNL     1       1.840   8.459  17.914  0.00  0.00    +0.000 C 
ATOM     31  C   UNL     1       1.780   9.950  18.219  0.00  0.00    +0.000 C 
BRANCH  30  32
ATOM     32  O   UNL     1       2.788   8.109  16.937  0.00  0.00    +0.000 OA
ATOM     33  H   UNL     1       3.666   8.486  17.218  0.00  0.00    +0.000 HD
ENDBRANCH  30  32
ENDBRANCH  26  27
ENDBRANCH  19  26
ENDBRANCH   2  19
TORSDOF 6
ENDMDL
