MODEL 1
REMARK VINA RESULT:      -6.2      0.000      0.000
REMARK  Name = 
REMARK  6 active torsions:
REMARK  status: ('A' for Active; 'I' for Inactive)
REMARK    1  A    between atoms: C_1  and  C_2
REMARK    2  A    between atoms: C_2  and  N_3
REMARK    3  A    between atoms: C_6  and  C_7
REMARK    4  A    between atoms: C_10  and  O_11
REMARK    5  A    between atoms: N_16  and  C_17
REMARK    6  A    between atoms: C_25  and  C_26
REMARK                            x       y       z     vdW  Elec       q    Type
REMARK                         _______ _______ _______ _____ _____    ______ ____
ROOT
ATOM      1  N   UNL     1       6.631  15.929  19.815  0.00  0.00    +0.000 N 
ATOM      2  C   UNL     1       7.526  16.975  19.620  0.00  0.00    +0.000 C 
ATOM      3  O   UNL     1       7.262  17.923  18.873  0.00  0.00    +0.000 OA
ATOM      4  C   UNL     1       8.860  16.925  20.334  0.00  0.00    +0.000 C 
ATOM      5  C   UNL     1       9.655  15.790  19.722  0.00  0.00    +0.000 C 
ATOM      6  O   UNL     1      10.620  16.083  19.006  0.00  0.00    +0.000 OA
ATOM      7  N   UNL     1       9.252  14.474  19.996  0.00  0.00    +0.000 N 
ATOM      8  C   UNL     1       8.106  14.173  20.814  0.00  0.00    +0.000 A 
ATOM      9  C   UNL     1       8.249  13.193  21.824  0.00  0.00    +0.000 A 
ATOM     10  C   UNL     1       7.230  12.917  22.749  0.00  0.00    +0.000 A 
ATOM     11  C   UNL     1       6.005  13.568  22.610  0.00  0.00    +0.000 A 
ATOM     12  C   UNL     1       5.828  14.515  21.603  0.00  0.00    +0.000 A 
ATOM     13  C   UNL     1       6.872  14.860  20.723  0.00  0.00    +0.000 A 
ENDROOT
BRANCH   4  14
ATOM     14  C   UNL     1       8.884  17.041  21.862  0.00  0.00    +0.000 A 
ATOM     15  C   UNL     1       7.803  17.614  22.564  0.00  0.00    +0.000 A 
ATOM     16  C   UNL     1       7.795  17.677  23.960  0.00  0.00    +0.000 A 
ATOM     17  C   UNL     1       8.853  17.134  24.674  0.00  0.00    +0.000 A 
ATOM     18  C   UNL     1       9.909  16.521  24.013  0.00  0.00    +0.000 A 
ATOM     19  C   UNL     1       9.924  16.468  22.615  0.00  0.00    +0.000 A 
BRANCH  17  20
ATOM     20  O   UNL     1       8.882  17.167  26.035  0.00  0.00    +0.000 OA
ATOM     21  H   UNL     1       8.052  17.554  26.353  0.00  0.00    +0.000 HD
ENDBRANCH  17  20
ENDBRANCH   4  14
BRANCH   7  22
ATOM     22  C   UNL     1      10.063  13.362  19.540  0.00  0.00    +0.000 A 
ATOM     23  C   UNL     1      11.246  13.001  20.205  0.00  0.00    +0.000 A 
ATOM     24  C   UNL     1      12.070  11.975  19.731  0.00  0.00    +0.000 A 
ATOM     25  C   UNL     1      11.722  11.280  18.579  0.00  0.00    +0.000 A 
ATOM     26  C   UNL     1      10.545  11.602  17.910  0.00  0.00    +0.000 A 
ATOM     27  C   UNL     1       9.722  12.634  18.386  0.00  0.00    +0.000 A 
ENDBRANCH   7  22
BRANCH  10  28
ATOM     28  C   UNL     1       7.471  12.005  23.927  0.00  0.00    +0.000 C 
ATOM     29  F   UNL     1       6.387  11.252  24.262  0.00  0.00    +0.000 F 
ATOM     30  F   UNL     1       8.478  11.119  23.689  0.00  0.00    +0.000 F 
ATOM     31  F   UNL     1       7.823  12.680  25.053  0.00  0.00    +0.000 F 
ENDBRANCH  10  28
BRANCH   1  33
ATOM     32  C   UNL     1       5.480  14.895  17.886  0.00  0.00    +0.000 C 
ATOM     33  C   UNL     1       5.397  15.918  19.013  0.00  0.00    +0.000 C 
ENDBRANCH   1  33
TORSDOF 5
ENDMDL
MODEL 2
REMARK VINA RESULT:      -6.2      0.126      1.085
REMARK  Name = 
REMARK  6 active torsions:
REMARK  status: ('A' for Active; 'I' for Inactive)
REMARK    1  A    between atoms: C_1  and  C_2
REMARK    2  A    between atoms: C_2  and  N_3
REMARK    3  A    between atoms: C_6  and  C_7
REMARK    4  A    between atoms: C_10  and  O_11
REMARK    5  A    between atoms: N_16  and  C_17
REMARK    6  A    between atoms: C_25  and  C_26
REMARK                            x       y       z     vdW  Elec       q    Type
REMARK                         _______ _______ _______ _____ _____    ______ ____
ROOT
ATOM      1  N   UNL     1       6.590  15.891  19.824  0.00  0.00    +0.000 N 
ATOM      2  C   UNL     1       7.476  16.941  19.613  0.00  0.00    +0.000 C 
ATOM      3  O   UNL     1       7.197  17.884  18.865  0.00  0.00    +0.000 OA
ATOM      4  C   UNL     1       8.820  16.902  20.310  0.00  0.00    +0.000 C 
ATOM      5  C   UNL     1       9.613  15.769  19.693  0.00  0.00    +0.000 C 
ATOM      6  O   UNL     1      10.568  16.064  18.963  0.00  0.00    +0.000 OA
ATOM      7  N   UNL     1       9.222  14.451  19.979  0.00  0.00    +0.000 N 
ATOM      8  C   UNL     1       8.088  14.148  20.814  0.00  0.00    +0.000 A 
ATOM      9  C   UNL     1       8.250  13.175  21.826  0.00  0.00    +0.000 A 
ATOM     10  C   UNL     1       7.245  12.897  22.766  0.00  0.00    +0.000 A 
ATOM     11  C   UNL     1       6.014  13.540  22.639  0.00  0.00    +0.000 A 
ATOM     12  C   UNL     1       5.819  14.481  21.630  0.00  0.00    +0.000 A 
ATOM     13  C   UNL     1       6.850  14.827  20.735  0.00  0.00    +0.000 A 
ENDROOT
BRANCH   4  14
ATOM     14  C   UNL     1       8.863  17.027  21.836  0.00  0.00    +0.000 A 
ATOM     15  C   UNL     1       9.948  16.511  22.576  0.00  0.00    +0.000 A 
ATOM     16  C   UNL     1      10.021  16.666  23.964  0.00  0.00    +0.000 A 
ATOM     17  C   UNL     1       9.025  17.372  24.625  0.00  0.00    +0.000 A 
ATOM     18  C   UNL     1       7.970  17.932  23.918  0.00  0.00    +0.000 A 
ATOM     19  C   UNL     1       7.890  17.767  22.530  0.00  0.00    +0.000 A 
BRANCH  17  20
ATOM     20  O   UNL     1       9.061  17.553  25.974  0.00  0.00    +0.000 OA
ATOM     21  H   UNL     1       9.345  18.462  26.157  0.00  0.00    +0.000 HD
ENDBRANCH  17  20
ENDBRANCH   4  14
BRANCH   7  22
ATOM     22  C   UNL     1      10.034  13.342  19.519  0.00  0.00    +0.000 A 
ATOM     23  C   UNL     1      11.219  12.981  20.180  0.00  0.00    +0.000 A 
ATOM     24  C   UNL     1      12.043  11.958  19.701  0.00  0.00    +0.000 A 
ATOM     25  C   UNL     1      11.694  11.265  18.548  0.00  0.00    +0.000 A 
ATOM     26  C   UNL     1      10.514  11.588  17.883  0.00  0.00    +0.000 A 
ATOM     27  C   UNL     1       9.691  12.616  18.363  0.00  0.00    +0.000 A 
ENDBRANCH   7  22
BRANCH  10  28
ATOM     28  C   UNL     1       7.507  11.992  23.946  0.00  0.00    +0.000 C 
ATOM     29  F   UNL     1       8.499  11.086  23.726  0.00  0.00    +0.000 F 
ATOM     30  F   UNL     1       7.883  12.692  25.052  0.00  0.00    +0.000 F 
ATOM     31  F   UNL     1       6.412  11.273  24.310  0.00  0.00    +0.000 F 
ENDBRANCH  10  28
BRANCH   1  33
ATOM     32  C   UNL     1       5.447  14.893  17.871  0.00  0.00    +0.000 C 
ATOM     33  C   UNL     1       5.346  15.868  19.039  0.00  0.00    +0.000 C 
ENDBRANCH   1  33
TORSDOF 5
ENDMDL
MODEL 3
REMARK VINA RESULT:      -6.1      0.168      1.399
REMARK  Name = 
REMARK  6 active torsions:
REMARK  status: ('A' for Active; 'I' for Inactive)
REMARK    1  A    between atoms: C_1  and  C_2
REMARK    2  A    between atoms: C_2  and  N_3
REMARK    3  A    between atoms: C_6  and  C_7
REMARK    4  A    between atoms: C_10  and  O_11
REMARK    5  A    between atoms: N_16  and  C_17
REMARK    6  A    between atoms: C_25  and  C_26
REMARK                            x       y       z     vdW  Elec       q    Type
REMARK                         _______ _______ _______ _____ _____    ______ ____
ROOT
ATOM      1  N   UNL     1       6.586  15.926  19.903  0.00  0.00    +0.000 N 
ATOM      2  C   UNL     1       7.447  17.000  19.710  0.00  0.00    +0.000 C 
ATOM      3  O   UNL     1       7.138  17.958  18.993  0.00  0.00    +0.000 OA
ATOM      4  C   UNL     1       8.800  16.970  20.388  0.00  0.00    +0.000 C 
ATOM      5  C   UNL     1       9.609  15.871  19.729  0.00  0.00    +0.000 C 
ATOM      6  O   UNL     1      10.547  16.207  18.995  0.00  0.00    +0.000 OA
ATOM      7  N   UNL     1       9.249  14.538  19.982  0.00  0.00    +0.000 N 
ATOM      8  C   UNL     1       8.133  14.187  20.822  0.00  0.00    +0.000 A 
ATOM      9  C   UNL     1       8.329  13.189  21.804  0.00  0.00    +0.000 A 
ATOM     10  C   UNL     1       7.342  12.865  22.748  0.00  0.00    +0.000 A 
ATOM     11  C   UNL     1       6.097  13.484  22.656  0.00  0.00    +0.000 A 
ATOM     12  C   UNL     1       5.869  14.450  21.677  0.00  0.00    +0.000 A 
ATOM     13  C   UNL     1       6.880  14.843  20.779  0.00  0.00    +0.000 A 
ENDROOT
BRANCH   4  14
ATOM     14  C   UNL     1       8.862  17.052  21.917  0.00  0.00    +0.000 A 
ATOM     15  C   UNL     1       9.993  16.592  22.623  0.00  0.00    +0.000 A 
ATOM     16  C   UNL     1      10.080  16.711  24.014  0.00  0.00    +0.000 A 
ATOM     17  C   UNL     1       9.049  17.324  24.711  0.00  0.00    +0.000 A 
ATOM     18  C   UNL     1       7.945  17.830  24.039  0.00  0.00    +0.000 A 
ATOM     19  C   UNL     1       7.852  17.701  22.648  0.00  0.00    +0.000 A 
BRANCH  17  20
ATOM     20  O   UNL     1       9.096  17.467  26.065  0.00  0.00    +0.000 OA
ATOM     21  H   UNL     1       9.250  16.597  26.463  0.00  0.00    +0.000 HD
ENDBRANCH  17  20
ENDBRANCH   4  14
BRANCH   7  22
ATOM     22  C   UNL     1      10.077  13.460  19.479  0.00  0.00    +0.000 A 
ATOM     23  C   UNL     1       9.699  12.715  18.350  0.00  0.00    +0.000 A 
ATOM     24  C   UNL     1      10.456  11.629  17.901  0.00  0.00    +0.000 A 
ATOM     25  C   UNL     1      11.619  11.268  18.570  0.00  0.00    +0.000 A 
ATOM     26  C   UNL     1      12.030  12.001  19.680  0.00  0.00    +0.000 A 
ATOM     27  C   UNL     1      11.267  13.087  20.131  0.00  0.00    +0.000 A 
ENDBRANCH   7  22
BRANCH  10  28
ATOM     28  C   UNL     1       7.639  11.932  23.898  0.00  0.00    +0.000 C 
ATOM     29  F   UNL     1       8.204  12.553  24.970  0.00  0.00    +0.000 F 
ATOM     30  F   UNL     1       6.512  11.330  24.370  0.00  0.00    +0.000 F 
ATOM     31  F   UNL     1       8.486  10.926  23.555  0.00  0.00    +0.000 F 
ENDBRANCH  10  28
BRANCH   1  33
ATOM     32  C   UNL     1       5.425  14.933  17.958  0.00  0.00    +0.000 C 
ATOM     33  C   UNL     1       5.332  15.900  19.134  0.00  0.00    +0.000 C 
ENDBRANCH   1  33
TORSDOF 5
ENDMDL
MODEL 4
REMARK VINA RESULT:      -6.1      0.103      1.070
REMARK  Name = 
REMARK  6 active torsions:
REMARK  status: ('A' for Active; 'I' for Inactive)
REMARK    1  A    between atoms: C_1  and  C_2
REMARK    2  A    between atoms: C_2  and  N_3
REMARK    3  A    between atoms: C_6  and  C_7
REMARK    4  A    between atoms: C_10  and  O_11
REMARK    5  A    between atoms: N_16  and  C_17
REMARK    6  A    between atoms: C_25  and  C_26
REMARK                            x       y       z     vdW  Elec       q    Type
REMARK                         _______ _______ _______ _____ _____    ______ ____
ROOT
ATOM      1  N   UNL     1       6.612  15.995  19.849  0.00  0.00    +0.000 N 
ATOM      2  C   UNL     1       7.492  17.056  19.671  0.00  0.00    +0.000 C 
ATOM      3  O   UNL     1       7.207  18.020  18.951  0.00  0.00    +0.000 OA
ATOM      4  C   UNL     1       8.835  17.005  20.367  0.00  0.00    +0.000 C 
ATOM      5  C   UNL     1       9.636  15.896  19.717  0.00  0.00    +0.000 C 
ATOM      6  O   UNL     1      10.589  16.219  18.997  0.00  0.00    +0.000 OA
ATOM      7  N   UNL     1       9.253  14.568  19.963  0.00  0.00    +0.000 N 
ATOM      8  C   UNL     1       8.121  14.232  20.786  0.00  0.00    +0.000 A 
ATOM      9  C   UNL     1       8.288  13.229  21.769  0.00  0.00    +0.000 A 
ATOM     10  C   UNL     1       7.284  12.917  22.698  0.00  0.00    +0.000 A 
ATOM     11  C   UNL     1       6.049  13.556  22.590  0.00  0.00    +0.000 A 
ATOM     12  C   UNL     1       5.848  14.526  21.610  0.00  0.00    +0.000 A 
ATOM     13  C   UNL     1       6.878  14.906  20.726  0.00  0.00    +0.000 A 
ENDROOT
BRANCH   4  14
ATOM     14  C   UNL     1       8.876  17.083  21.897  0.00  0.00    +0.000 A 
ATOM     15  C   UNL     1       7.798  17.627  22.626  0.00  0.00    +0.000 A 
ATOM     16  C   UNL     1       7.805  17.655  24.023  0.00  0.00    +0.000 A 
ATOM     17  C   UNL     1       8.878  17.104  24.711  0.00  0.00    +0.000 A 
ATOM     18  C   UNL     1       9.931  16.519  24.023  0.00  0.00    +0.000 A 
ATOM     19  C   UNL     1       9.931  16.501  22.623  0.00  0.00    +0.000 A 
BRANCH  17  20
ATOM     20  O   UNL     1       8.922  17.103  26.072  0.00  0.00    +0.000 OA
ATOM     21  H   UNL     1       8.158  17.597  26.407  0.00  0.00    +0.000 HD
ENDBRANCH  17  20
ENDBRANCH   4  14
BRANCH   7  22
ATOM     22  C   UNL     1      10.072  13.479  19.469  0.00  0.00    +0.000 A 
ATOM     23  C   UNL     1       9.697  12.739  18.336  0.00  0.00    +0.000 A 
ATOM     24  C   UNL     1      10.445  11.642  17.896  0.00  0.00    +0.000 A 
ATOM     25  C   UNL     1      11.595  11.266  18.577  0.00  0.00    +0.000 A 
ATOM     26  C   UNL     1      12.004  11.993  19.692  0.00  0.00    +0.000 A 
ATOM     27  C   UNL     1      11.250  13.090  20.134  0.00  0.00    +0.000 A 
ENDBRANCH   7  22
BRANCH  10  28
ATOM     28  C   UNL     1       7.550  11.978  23.850  0.00  0.00    +0.000 C 
ATOM     29  F   UNL     1       8.462  11.009  23.562  0.00  0.00    +0.000 F 
ATOM     30  F   UNL     1       8.038  12.634  24.940  0.00  0.00    +0.000 F 
ATOM     31  F   UNL     1       6.431  11.331  24.271  0.00  0.00    +0.000 F 
ENDBRANCH  10  28
BRANCH   1  33
ATOM     32  C   UNL     1       5.412  14.925  17.970  0.00  0.00    +0.000 C 
ATOM     33  C   UNL     1       5.369  15.989  19.062  0.00  0.00    +0.000 C 
ENDBRANCH   1  33
TORSDOF 5
ENDMDL
MODEL 5
REMARK VINA RESULT:      -5.9      8.433     10.591
REMARK  Name = 
REMARK  6 active torsions:
REMARK  status: ('A' for Active; 'I' for Inactive)
REMARK    1  A    between atoms: C_1  and  C_2
REMARK    2  A    between atoms: C_2  and  N_3
REMARK    3  A    between atoms: C_6  and  C_7
REMARK    4  A    between atoms: C_10  and  O_11
REMARK    5  A    between atoms: N_16  and  C_17
REMARK    6  A    between atoms: C_25  and  C_26
REMARK                            x       y       z     vdW  Elec       q    Type
REMARK                         _______ _______ _______ _____ _____    ______ ____
ROOT
ATOM      1  N   UNL     1       1.047  13.080  19.535  0.00  0.00    +0.000 N 
ATOM      2  C   UNL     1       1.306  13.127  20.900  0.00  0.00    +0.000 C 
ATOM      3  O   UNL     1       2.093  13.950  21.382  0.00  0.00    +0.000 OA
ATOM      4  C   UNL     1       0.615  12.126  21.801  0.00  0.00    +0.000 C 
ATOM      5  C   UNL     1       1.187  10.761  21.478  0.00  0.00    +0.000 C 
ATOM      6  O   UNL     1       1.933  10.236  22.313  0.00  0.00    +0.000 OA
ATOM      7  N   UNL     1       0.843  10.170  20.252  0.00  0.00    +0.000 N 
ATOM      8  C   UNL     1      -0.009  10.824  19.292  0.00  0.00    +0.000 A 
ATOM      9  C   UNL     1      -1.061  10.075  18.718  0.00  0.00    +0.000 A 
ATOM     10  C   UNL     1      -2.016  10.655  17.869  0.00  0.00    +0.000 A 
ATOM     11  C   UNL     1      -1.868  11.994  17.509  0.00  0.00    +0.000 A 
ATOM     12  C   UNL     1      -0.821  12.746  18.038  0.00  0.00    +0.000 A 
ATOM     13  C   UNL     1       0.093  12.195  18.957  0.00  0.00    +0.000 A 
ENDROOT
BRANCH   4  14
ATOM     14  C   UNL     1      -0.905  12.216  21.975  0.00  0.00    +0.000 A 
ATOM     15  C   UNL     1      -1.557  11.538  23.026  0.00  0.00    +0.000 A 
ATOM     16  C   UNL     1      -2.936  11.656  23.223  0.00  0.00    +0.000 A 
ATOM     17  C   UNL     1      -3.675  12.485  22.391  0.00  0.00    +0.000 A 
ATOM     18  C   UNL     1      -3.054  13.203  21.378  0.00  0.00    +0.000 A 
ATOM     19  C   UNL     1      -1.675  13.076  21.172  0.00  0.00    +0.000 A 
BRANCH  17  20
ATOM     20  O   UNL     1      -5.019  12.636  22.552  0.00  0.00    +0.000 OA
ATOM     21  H   UNL     1      -5.319  12.023  23.241  0.00  0.00    +0.000 HD
ENDBRANCH  17  20
ENDBRANCH   4  14
BRANCH   7  22
ATOM     22  C   UNL     1       1.260   8.812  19.964  0.00  0.00    +0.000 A 
ATOM     23  C   UNL     1       1.034   7.770  20.878  0.00  0.00    +0.000 A 
ATOM     24  C   UNL     1       1.495   6.472  20.639  0.00  0.00    +0.000 A 
ATOM     25  C   UNL     1       2.190   6.184  19.470  0.00  0.00    +0.000 A 
ATOM     26  C   UNL     1       2.411   7.193  18.536  0.00  0.00    +0.000 A 
ATOM     27  C   UNL     1       1.951   8.495  18.780  0.00  0.00    +0.000 A 
ENDBRANCH   7  22
BRANCH  10  28
ATOM     28  C   UNL     1      -3.232   9.882  17.418  0.00  0.00    +0.000 C 
ATOM     29  F   UNL     1      -3.549   8.841  18.236  0.00  0.00    +0.000 F 
ATOM     30  F   UNL     1      -4.345  10.665  17.367  0.00  0.00    +0.000 F 
ATOM     31  F   UNL     1      -3.088   9.353  16.173  0.00  0.00    +0.000 F 
ENDBRANCH  10  28
BRANCH   1  33
ATOM     32  C   UNL     1       2.941  13.200  17.950  0.00  0.00    +0.000 C 
ATOM     33  C   UNL     1       1.824  13.964  18.654  0.00  0.00    +0.000 C 
ENDBRANCH   1  33
TORSDOF 5
ENDMDL
MODEL 6
REMARK VINA RESULT:      -5.8      7.619     10.489
REMARK  Name = 
REMARK  6 active torsions:
REMARK  status: ('A' for Active; 'I' for Inactive)
REMARK    1  A    between atoms: C_1  and  C_2
REMARK    2  A    between atoms: C_2  and  N_3
REMARK    3  A    between atoms: C_6  and  C_7
REMARK    4  A    between atoms: C_10  and  O_11
REMARK    5  A    between atoms: N_16  and  C_17
REMARK    6  A    between atoms: C_25  and  C_26
REMARK                            x       y       z     vdW  Elec       q    Type
REMARK                         _______ _______ _______ _____ _____    ______ ____
ROOT
ATOM      1  N   UNL     1       1.151   9.479  20.551  0.00  0.00    +0.000 N 
ATOM      2  C   UNL     1       1.279   9.524  19.168  0.00  0.00    +0.000 C 
ATOM      3  O   UNL     1       1.871   8.637  18.543  0.00  0.00    +0.000 OA
ATOM      4  C   UNL     1       0.691  10.705  18.426  0.00  0.00    +0.000 C 
ATOM      5  C   UNL     1       1.510  11.923  18.799  0.00  0.00    +0.000 C 
ATOM      6  O   UNL     1       2.258  12.401  17.937  0.00  0.00    +0.000 OA
ATOM      7  N   UNL     1       1.379  12.440  20.097  0.00  0.00    +0.000 N 
ATOM      8  C   UNL     1       0.516  11.840  21.082  0.00  0.00    +0.000 A 
ATOM      9  C   UNL     1      -0.341  12.689  21.820  0.00  0.00    +0.000 A 
ATOM     10  C   UNL     1      -1.303  12.190  22.712  0.00  0.00    +0.000 A 
ATOM     11  C   UNL     1      -1.351  10.816  22.945  0.00  0.00    +0.000 A 
ATOM     12  C   UNL     1      -0.496   9.961  22.253  0.00  0.00    +0.000 A 
ATOM     13  C   UNL     1       0.415  10.445  21.294  0.00  0.00    +0.000 A 
ENDROOT
BRANCH   4  14
ATOM     14  C   UNL     1      -0.832  10.876  18.401  0.00  0.00    +0.000 A 
ATOM     15  C   UNL     1      -1.424  12.138  18.617  0.00  0.00    +0.000 A 
ATOM     16  C   UNL     1      -2.809  12.313  18.545  0.00  0.00    +0.000 A 
ATOM     17  C   UNL     1      -3.617  11.233  18.219  0.00  0.00    +0.000 A 
ATOM     18  C   UNL     1      -3.060   9.990  17.954  0.00  0.00    +0.000 A 
ATOM     19  C   UNL     1      -1.674   9.811  18.037  0.00  0.00    +0.000 A 
BRANCH  17  20
ATOM     20  O   UNL     1      -4.970  11.361  18.130  0.00  0.00    +0.000 OA
ATOM     21  H   UNL     1      -5.176  12.250  17.803  0.00  0.00    +0.000 HD
ENDBRANCH  17  20
ENDBRANCH   4  14
BRANCH   7  22
ATOM     22  C   UNL     1       2.042  13.680  20.450  0.00  0.00    +0.000 A 
ATOM     23  C   UNL     1       1.551  14.921  20.012  0.00  0.00    +0.000 A 
ATOM     24  C   UNL     1       2.224  16.114  20.289  0.00  0.00    +0.000 A 
ATOM     25  C   UNL     1       3.404  16.094  21.022  0.00  0.00    +0.000 A 
ATOM     26  C   UNL     1       3.904  14.881  21.487  0.00  0.00    +0.000 A 
ATOM     27  C   UNL     1       3.230  13.684  21.205  0.00  0.00    +0.000 A 
ENDBRANCH   7  22
BRANCH  10  28
ATOM     28  C   UNL     1      -2.327  13.100  23.346  0.00  0.00    +0.000 C 
ATOM     29  F   UNL     1      -3.054  13.813  22.442  0.00  0.00    +0.000 F 
ATOM     30  F   UNL     1      -3.235  12.407  24.088  0.00  0.00    +0.000 F 
ATOM     31  F   UNL     1      -1.772  14.012  24.187  0.00  0.00    +0.000 F 
ENDBRANCH  10  28
BRANCH   1  33
ATOM     32  C   UNL     1       1.202   7.046  20.992  0.00  0.00    +0.000 C 
ATOM     33  C   UNL     1       1.843   8.401  21.274  0.00  0.00    +0.000 C 
ENDBRANCH   1  33
TORSDOF 5
ENDMDL
MODEL 7
REMARK VINA RESULT:      -5.8      7.634     10.498
REMARK  Name = 
REMARK  6 active torsions:
REMARK  status: ('A' for Active; 'I' for Inactive)
REMARK    1  A    between atoms: C_1  and  C_2
REMARK    2  A    between atoms: C_2  and  N_3
REMARK    3  A    between atoms: C_6  and  C_7
REMARK    4  A    between atoms: C_10  and  O_11
REMARK    5  A    between atoms: N_16  and  C_17
REMARK    6  A    between atoms: C_25  and  C_26
REMARK                            x       y       z     vdW  Elec       q    Type
REMARK                         _______ _______ _______ _____ _____    ______ ____
ROOT
ATOM      1  N   UNL     1       1.151   9.468  20.532  0.00  0.00    +0.000 N 
ATOM      2  C   UNL     1       1.276   9.525  19.149  0.00  0.00    +0.000 C 
ATOM      3  O   UNL     1       1.869   8.645  18.516  0.00  0.00    +0.000 OA
ATOM      4  C   UNL     1       0.681  10.710  18.418  0.00  0.00    +0.000 C 
ATOM      5  C   UNL     1       1.497  11.928  18.800  0.00  0.00    +0.000 C 
ATOM      6  O   UNL     1       2.242  12.415  17.940  0.00  0.00    +0.000 OA
ATOM      7  N   UNL     1       1.367  12.433  20.103  0.00  0.00    +0.000 N 
ATOM      8  C   UNL     1       0.508  11.822  21.084  0.00  0.00    +0.000 A 
ATOM      9  C   UNL     1      -0.350  12.662  21.830  0.00  0.00    +0.000 A 
ATOM     10  C   UNL     1      -1.308  12.152  22.721  0.00  0.00    +0.000 A 
ATOM     11  C   UNL     1      -1.352  10.776  22.942  0.00  0.00    +0.000 A 
ATOM     12  C   UNL     1      -0.494   9.929  22.241  0.00  0.00    +0.000 A 
ATOM     13  C   UNL     1       0.412  10.425  21.284  0.00  0.00    +0.000 A 
ENDROOT
BRANCH   4  14
ATOM     14  C   UNL     1      -0.841  10.876  18.398  0.00  0.00    +0.000 A 
ATOM     15  C   UNL     1      -1.437  12.137  18.607  0.00  0.00    +0.000 A 
ATOM     16  C   UNL     1      -2.823  12.307  18.539  0.00  0.00    +0.000 A 
ATOM     17  C   UNL     1      -3.629  11.223  18.224  0.00  0.00    +0.000 A 
ATOM     18  C   UNL     1      -3.069   9.979  17.965  0.00  0.00    +0.000 A 
ATOM     19  C   UNL     1      -1.682   9.805  18.045  0.00  0.00    +0.000 A 
BRANCH  17  20
ATOM     20  O   UNL     1      -4.983  11.346  18.139  0.00  0.00    +0.000 OA
ATOM     21  H   UNL     1      -5.386  10.825  18.851  0.00  0.00    +0.000 HD
ENDBRANCH  17  20
ENDBRANCH   4  14
BRANCH   7  22
ATOM     22  C   UNL     1       2.027  13.672  20.464  0.00  0.00    +0.000 A 
ATOM     23  C   UNL     1       3.192  13.677  21.248  0.00  0.00    +0.000 A 
ATOM     24  C   UNL     1       3.794  14.869  21.660  0.00  0.00    +0.000 A 
ATOM     25  C   UNL     1       3.245  16.091  21.288  0.00  0.00    +0.000 A 
ATOM     26  C   UNL     1       2.102  16.118  20.494  0.00  0.00    +0.000 A 
ATOM     27  C   UNL     1       1.498  14.920  20.086  0.00  0.00    +0.000 A 
ENDBRANCH   7  22
BRANCH  10  28
ATOM     28  C   UNL     1      -2.335  13.054  23.364  0.00  0.00    +0.000 C 
ATOM     29  F   UNL     1      -1.794  13.981  24.203  0.00  0.00    +0.000 F 
ATOM     30  F   UNL     1      -3.045  13.759  22.440  0.00  0.00    +0.000 F 
ATOM     31  F   UNL     1      -3.250  12.368  24.099  0.00  0.00    +0.000 F 
ENDBRANCH  10  28
BRANCH   1  33
ATOM     32  C   UNL     1       1.174   7.040  21.000  0.00  0.00    +0.000 C 
ATOM     33  C   UNL     1       1.847   8.386  21.245  0.00  0.00    +0.000 C 
ENDBRANCH   1  33
TORSDOF 5
ENDMDL
MODEL 8
REMARK VINA RESULT:      -5.8      2.147      5.517
REMARK  Name = 
REMARK  6 active torsions:
REMARK  status: ('A' for Active; 'I' for Inactive)
REMARK    1  A    between atoms: C_1  and  C_2
REMARK    2  A    between atoms: C_2  and  N_3
REMARK    3  A    between atoms: C_6  and  C_7
REMARK    4  A    between atoms: C_10  and  O_11
REMARK    5  A    between atoms: N_16  and  C_17
REMARK    6  A    between atoms: C_25  and  C_26
REMARK                            x       y       z     vdW  Elec       q    Type
REMARK                         _______ _______ _______ _____ _____    ______ ____
ROOT
ATOM      1  N   UNL     1       8.608  17.239  20.627  0.00  0.00    +0.000 N 
ATOM      2  C   UNL     1       8.356  17.465  19.279  0.00  0.00    +0.000 C 
ATOM      3  O   UNL     1       8.643  18.539  18.738  0.00  0.00    +0.000 OA
ATOM      4  C   UNL     1       7.696  16.366  18.474  0.00  0.00    +0.000 C 
ATOM      5  C   UNL     1       6.276  16.229  18.980  0.00  0.00    +0.000 C 
ATOM      6  O   UNL     1       5.361  16.622  18.246  0.00  0.00    +0.000 OA
ATOM      7  N   UNL     1       6.074  15.668  20.252  0.00  0.00    +0.000 N 
ATOM      8  C   UNL     1       7.167  15.246  21.089  0.00  0.00    +0.000 A 
ATOM      9  C   UNL     1       7.081  13.975  21.702  0.00  0.00    +0.000 A 
ATOM     10  C   UNL     1       8.144  13.424  22.435  0.00  0.00    +0.000 A 
ATOM     11  C   UNL     1       9.287  14.195  22.640  0.00  0.00    +0.000 A 
ATOM     12  C   UNL     1       9.384  15.464  22.072  0.00  0.00    +0.000 A 
ATOM     13  C   UNL     1       8.357  15.991  21.265  0.00  0.00    +0.000 A 
ENDROOT
BRANCH   4  14
ATOM     14  C   UNL     1       8.471  15.068  18.225  0.00  0.00    +0.000 A 
ATOM     15  C   UNL     1       7.799  13.877  17.878  0.00  0.00    +0.000 A 
ATOM     16  C   UNL     1       8.501  12.701  17.598  0.00  0.00    +0.000 A 
ATOM     17  C   UNL     1       9.888  12.711  17.628  0.00  0.00    +0.000 A 
ATOM     18  C   UNL     1      10.579  13.879  17.919  0.00  0.00    +0.000 A 
ATOM     19  C   UNL     1       9.877  15.055  18.211  0.00  0.00    +0.000 A 
BRANCH  17  20
ATOM     20  O   UNL     1      10.612  11.590  17.355  0.00  0.00    +0.000 OA
ATOM     21  H   UNL     1      11.293  11.813  16.702  0.00  0.00    +0.000 HD
ENDBRANCH  17  20
ENDBRANCH   4  14
BRANCH   7  22
ATOM     22  C   UNL     1       4.728  15.398  20.715  0.00  0.00    +0.000 A 
ATOM     23  C   UNL     1       4.172  16.105  21.794  0.00  0.00    +0.000 A 
ATOM     24  C   UNL     1       2.901  15.801  22.292  0.00  0.00    +0.000 A 
ATOM     25  C   UNL     1       2.152  14.784  21.713  0.00  0.00    +0.000 A 
ATOM     26  C   UNL     1       2.669  14.079  20.630  0.00  0.00    +0.000 A 
ATOM     27  C   UNL     1       3.945  14.383  20.135  0.00  0.00    +0.000 A 
ENDBRANCH   7  22
BRANCH  10  28
ATOM     28  C   UNL     1       8.099  11.995  22.921  0.00  0.00    +0.000 C 
ATOM     29  F   UNL     1       6.836  11.512  23.076  0.00  0.00    +0.000 F 
ATOM     30  F   UNL     1       8.718  11.142  22.058  0.00  0.00    +0.000 F 
ATOM     31  F   UNL     1       8.717  11.828  24.121  0.00  0.00    +0.000 F 
ENDBRANCH  10  28
BRANCH   1  33
ATOM     32  C   UNL     1       8.228  18.631  22.636  0.00  0.00    +0.000 C 
ATOM     33  C   UNL     1       9.122  18.359  21.431  0.00  0.00    +0.000 C 
ENDBRANCH   1  33
TORSDOF 5
ENDMDL
MODEL 9
REMARK VINA RESULT:      -5.8      8.490     11.143
REMARK  Name = 
REMARK  6 active torsions:
REMARK  status: ('A' for Active; 'I' for Inactive)
REMARK    1  A    between atoms: C_1  and  C_2
REMARK    2  A    between atoms: C_2  and  N_3
REMARK    3  A    between atoms: C_6  and  C_7
REMARK    4  A    between atoms: C_10  and  O_11
REMARK    5  A    between atoms: N_16  and  C_17
REMARK    6  A    between atoms: C_25  and  C_26
REMARK                            x       y       z     vdW  Elec       q    Type
REMARK                         _______ _______ _______ _____ _____    ______ ____
ROOT
ATOM      1  N   UNL     1      -3.082  13.603  22.176  0.00  0.00    +0.000 N 
ATOM      2  C   UNL     1      -2.105  13.600  23.165  0.00  0.00    +0.000 C 
ATOM      3  O   UNL     1      -2.350  13.972  24.318  0.00  0.00    +0.000 OA
ATOM      4  C   UNL     1      -0.709  13.145  22.799  0.00  0.00    +0.000 C 
ATOM      5  C   UNL     1      -0.126  14.188  21.867  0.00  0.00    +0.000 C 
ATOM      6  O   UNL     1       0.772  14.916  22.307  0.00  0.00    +0.000 OA
ATOM      7  N   UNL     1      -0.637  14.273  20.563  0.00  0.00    +0.000 N 
ATOM      8  C   UNL     1      -1.703  13.424  20.095  0.00  0.00    +0.000 A 
ATOM      9  C   UNL     1      -1.549  12.797  18.838  0.00  0.00    +0.000 A 
ATOM     10  C   UNL     1      -2.473  11.859  18.351  0.00  0.00    +0.000 A 
ATOM     11  C   UNL     1      -3.625  11.606  19.094  0.00  0.00    +0.000 A 
ATOM     12  C   UNL     1      -3.815  12.236  20.323  0.00  0.00    +0.000 A 
ATOM     13  C   UNL     1      -2.853  13.114  20.859  0.00  0.00    +0.000 A 
ENDROOT
BRANCH   4  14
ATOM     14  C   UNL     1      -0.486  11.677  22.420  0.00  0.00    +0.000 A 
ATOM     15  C   UNL     1       0.417  11.321  21.396  0.00  0.00    +0.000 A 
ATOM     16  C   UNL     1       0.664   9.982  21.079  0.00  0.00    +0.000 A 
ATOM     17  C   UNL     1       0.038   8.981  21.808  0.00  0.00    +0.000 A 
ATOM     18  C   UNL     1      -0.819   9.300  22.852  0.00  0.00    +0.000 A 
ATOM     19  C   UNL     1      -1.077  10.640  23.163  0.00  0.00    +0.000 A 
BRANCH  17  20
ATOM     20  O   UNL     1       0.256   7.664  21.537  0.00  0.00    +0.000 OA
ATOM     21  H   UNL     1       0.348   7.187  22.376  0.00  0.00    +0.000 HD
ENDBRANCH  17  20
ENDBRANCH   4  14
BRANCH   7  22
ATOM     22  C   UNL     1      -0.018  15.165  19.603  0.00  0.00    +0.000 A 
ATOM     23  C   UNL     1       1.309  14.976  19.182  0.00  0.00    +0.000 A 
ATOM     24  C   UNL     1       1.936  15.871  18.311  0.00  0.00    +0.000 A 
ATOM     25  C   UNL     1       1.244  16.976  17.831  0.00  0.00    +0.000 A 
ATOM     26  C   UNL     1      -0.079  17.178  18.214  0.00  0.00    +0.000 A 
ATOM     27  C   UNL     1      -0.705  16.281  19.091  0.00  0.00    +0.000 A 
ENDBRANCH   7  22
BRANCH  10  28
ATOM     28  C   UNL     1      -2.195  11.067  17.096  0.00  0.00    +0.000 C 
ATOM     29  F   UNL     1      -2.110  11.837  15.976  0.00  0.00    +0.000 F 
ATOM     30  F   UNL     1      -1.015  10.390  17.171  0.00  0.00    +0.000 F 
ATOM     31  F   UNL     1      -3.149  10.133  16.840  0.00  0.00    +0.000 F 
ENDBRANCH  10  28
BRANCH   1  33
ATOM     32  C   UNL     1      -4.552  15.575  21.924  0.00  0.00    +0.000 C 
ATOM     33  C   UNL     1      -4.396  14.174  22.506  0.00  0.00    +0.000 C 
ENDBRANCH   1  33
TORSDOF 5
ENDMDL
