MODEL 1
REMARK VINA RESULT:      -7.2      0.000      0.000
REMARK  Name = 
REMARK  8 active torsions:
REMARK  status: ('A' for Active; 'I' for Inactive)
REMARK    1  A    between atoms: C_1  and  C_2
REMARK    2  A    between atoms: C_2  and  C_3
REMARK    3  A    between atoms: C_2  and  C_4
REMARK    4  A    between atoms: C_4  and  C_5
REMARK    5  A    between atoms: C_4  and  C_13
REMARK    6  A    between atoms: C_5  and  C_6
REMARK    7  A    between atoms: N_8  and  S_9
REMARK    8  A    between atoms: S_9  and  C_10
REMARK                            x       y       z     vdW  Elec       q    Type
REMARK                         _______ _______ _______ _____ _____    ______ ____
ROOT
ATOM      1  C   UNL     1       3.221   5.479  18.488  0.00  0.00    +0.000 C 
ENDROOT
BRANCH   1   2
ATOM      2  C   UNL     1       2.503   6.810  18.751  0.00  0.00    +0.000 A 
ATOM      3  C   UNL     1       2.071   7.118  20.053  0.00  0.00    +0.000 A 
ATOM      4  C   UNL     1       1.529   8.371  20.361  0.00  0.00    +0.000 A 
ATOM      5  C   UNL     1       1.367   9.324  19.361  0.00  0.00    +0.000 A 
ATOM      6  C   UNL     1       1.744   9.023  18.056  0.00  0.00    +0.000 A 
ATOM      7  C   UNL     1       2.313   7.781  17.756  0.00  0.00    +0.000 A 
ENDBRANCH   1   2
BRANCH   1   9
ATOM      8  C   UNL     1       1.868   3.545  19.557  0.00  0.00    +0.000 C 
ATOM      9  C   UNL     1       2.215   4.297  18.266  0.00  0.00    +0.000 C 
ATOM     10  C   UNL     1       2.662   3.299  17.193  0.00  0.00    +0.000 C 
ENDBRANCH   1   9
BRANCH   1  11
ATOM     11  C   UNL     1       4.290   5.148  19.561  0.00  0.00    +0.000 C 
BRANCH  11  12
ATOM     12  C   UNL     1       5.705   5.225  19.019  0.00  0.00    +0.000 C 
ATOM     13  O   UNL     1       6.677   5.420  19.730  0.00  0.00    +0.000 OA
ATOM     14  N   UNL     1       5.792   5.138  17.620  0.00  0.00    +0.000 N 
ATOM     15  H   UNL     1       4.970   4.985  17.044  0.00  0.00    +0.000 HD
BRANCH  14  16
ATOM     16  S   UNL     1       7.183   5.191  16.721  0.00  0.00    +0.000 S 
ATOM     17  C   UNL     1       6.692   4.550  15.130  0.00  0.00    +0.000 C 
ATOM     18  O   UNL     1       7.604   6.569  16.588  0.00  0.00    +0.000 OA
ATOM     19  O   UNL     1       8.051   4.212  17.342  0.00  0.00    +0.000 OA
ENDBRANCH  14  16
ENDBRANCH  11  12
ENDBRANCH   1  11
TORSDOF 5
ENDMDL
MODEL 2
REMARK VINA RESULT:      -7.1      1.541      3.983
REMARK  Name = 
REMARK  8 active torsions:
REMARK  status: ('A' for Active; 'I' for Inactive)
REMARK    1  A    between atoms: C_1  and  C_2
REMARK    2  A    between atoms: C_2  and  C_3
REMARK    3  A    between atoms: C_2  and  C_4
REMARK    4  A    between atoms: C_4  and  C_5
REMARK    5  A    between atoms: C_4  and  C_13
REMARK    6  A    between atoms: C_5  and  C_6
REMARK    7  A    between atoms: N_8  and  S_9
REMARK    8  A    between atoms: S_9  and  C_10
REMARK                            x       y       z     vdW  Elec       q    Type
REMARK                         _______ _______ _______ _____ _____    ______ ____
ROOT
ATOM      1  C   UNL     1       2.991   6.059  18.863  0.00  0.00    +0.000 C 
ENDROOT
BRANCH   1   2
ATOM      2  C   UNL     1       2.323   4.910  19.629  0.00  0.00    +0.000 A 
ATOM      3  C   UNL     1       1.449   4.042  18.952  0.00  0.00    +0.000 A 
ATOM      4  C   UNL     1       0.920   2.909  19.581  0.00  0.00    +0.000 A 
ATOM      5  C   UNL     1       1.220   2.649  20.914  0.00  0.00    +0.000 A 
ATOM      6  C   UNL     1       2.044   3.521  21.617  0.00  0.00    +0.000 A 
ATOM      7  C   UNL     1       2.596   4.637  20.978  0.00  0.00    +0.000 A 
ENDBRANCH   1   2
BRANCH   1   9
ATOM      8  C   UNL     1       2.596   8.396  17.815  0.00  0.00    +0.000 C 
ATOM      9  C   UNL     1       2.084   7.337  18.799  0.00  0.00    +0.000 C 
ATOM     10  C   UNL     1       1.831   7.982  20.164  0.00  0.00    +0.000 C 
ENDBRANCH   1   9
BRANCH   1  11
ATOM     11  C   UNL     1       3.504   5.631  17.463  0.00  0.00    +0.000 C 
BRANCH  11  12
ATOM     12  C   UNL     1       5.018   5.602  17.380  0.00  0.00    +0.000 C 
ATOM     13  O   UNL     1       5.623   5.562  16.320  0.00  0.00    +0.000 OA
ATOM     14  N   UNL     1       5.663   5.541  18.625  0.00  0.00    +0.000 N 
ATOM     15  H   UNL     1       5.142   5.567  19.497  0.00  0.00    +0.000 HD
BRANCH  14  16
ATOM     16  S   UNL     1       7.301   5.494  18.879  0.00  0.00    +0.000 S 
ATOM     17  C   UNL     1       7.880   7.056  18.239  0.00  0.00    +0.000 C 
ATOM     18  O   UNL     1       7.553   5.420  20.302  0.00  0.00    +0.000 OA
ATOM     19  O   UNL     1       7.773   4.452  17.991  0.00  0.00    +0.000 OA
ENDBRANCH  14  16
ENDBRANCH  11  12
ENDBRANCH   1  11
TORSDOF 5
ENDMDL
MODEL 3
REMARK VINA RESULT:      -7.0      0.784      1.376
REMARK  Name = 
REMARK  8 active torsions:
REMARK  status: ('A' for Active; 'I' for Inactive)
REMARK    1  A    between atoms: C_1  and  C_2
REMARK    2  A    between atoms: C_2  and  C_3
REMARK    3  A    between atoms: C_2  and  C_4
REMARK    4  A    between atoms: C_4  and  C_5
REMARK    5  A    between atoms: C_4  and  C_13
REMARK    6  A    between atoms: C_5  and  C_6
REMARK    7  A    between atoms: N_8  and  S_9
REMARK    8  A    between atoms: S_9  and  C_10
REMARK                            x       y       z     vdW  Elec       q    Type
REMARK                         _______ _______ _______ _____ _____    ______ ____
ROOT
ATOM      1  C   UNL     1       2.852   5.875  18.654  0.00  0.00    +0.000 C 
ENDROOT
BRANCH   1   2
ATOM      2  C   UNL     1       2.288   7.280  18.900  0.00  0.00    +0.000 A 
ATOM      3  C   UNL     1       2.185   8.183  17.828  0.00  0.00    +0.000 A 
ATOM      4  C   UNL     1       1.560   9.426  17.982  0.00  0.00    +0.000 A 
ATOM      5  C   UNL     1       1.066   9.807  19.225  0.00  0.00    +0.000 A 
ATOM      6  C   UNL     1       1.200   8.948  20.312  0.00  0.00    +0.000 A 
ATOM      7  C   UNL     1       1.798   7.695  20.148  0.00  0.00    +0.000 A 
ENDBRANCH   1   2
BRANCH   1   9
ATOM      8  C   UNL     1       1.443   4.131  19.954  0.00  0.00    +0.000 C 
ATOM      9  C   UNL     1       1.726   4.785  18.595  0.00  0.00    +0.000 C 
ATOM     10  C   UNL     1       1.971   3.701  17.543  0.00  0.00    +0.000 C 
ENDBRANCH   1   9
BRANCH   1  11
ATOM     11  C   UNL     1       3.985   5.498  19.645  0.00  0.00    +0.000 C 
BRANCH  11  12
ATOM     12  C   UNL     1       5.158   4.822  18.961  0.00  0.00    +0.000 C 
ATOM     13  O   UNL     1       5.579   3.727  19.297  0.00  0.00    +0.000 OA
ATOM     14  N   UNL     1       5.769   5.598  17.963  0.00  0.00    +0.000 N 
ATOM     15  H   UNL     1       5.409   6.511  17.703  0.00  0.00    +0.000 HD
BRANCH  14  16
ATOM     16  S   UNL     1       7.069   5.153  17.036  0.00  0.00    +0.000 S 
ATOM     17  C   UNL     1       6.383   4.003  15.858  0.00  0.00    +0.000 C 
ATOM     18  O   UNL     1       7.576   6.321  16.348  0.00  0.00    +0.000 OA
ATOM     19  O   UNL     1       7.918   4.405  17.940  0.00  0.00    +0.000 OA
ENDBRANCH  14  16
ENDBRANCH  11  12
ENDBRANCH   1  11
TORSDOF 5
ENDMDL
MODEL 4
REMARK VINA RESULT:      -7.0      0.989      1.239
REMARK  Name = 
REMARK  8 active torsions:
REMARK  status: ('A' for Active; 'I' for Inactive)
REMARK    1  A    between atoms: C_1  and  C_2
REMARK    2  A    between atoms: C_2  and  C_3
REMARK    3  A    between atoms: C_2  and  C_4
REMARK    4  A    between atoms: C_4  and  C_5
REMARK    5  A    between atoms: C_4  and  C_13
REMARK    6  A    between atoms: C_5  and  C_6
REMARK    7  A    between atoms: N_8  and  S_9
REMARK    8  A    between atoms: S_9  and  C_10
REMARK                            x       y       z     vdW  Elec       q    Type
REMARK                         _______ _______ _______ _____ _____    ______ ____
ROOT
ATOM      1  C   UNL     1       3.014   5.458  18.553  0.00  0.00    +0.000 C 
ENDROOT
BRANCH   1   2
ATOM      2  C   UNL     1       2.331   6.800  18.845  0.00  0.00    +0.000 A 
ATOM      3  C   UNL     1       1.906   7.091  20.154  0.00  0.00    +0.000 A 
ATOM      4  C   UNL     1       1.395   8.350  20.488  0.00  0.00    +0.000 A 
ATOM      5  C   UNL     1       1.258   9.329  19.509  0.00  0.00    +0.000 A 
ATOM      6  C   UNL     1       1.629   9.047  18.198  0.00  0.00    +0.000 A 
ATOM      7  C   UNL     1       2.166   7.797  17.872  0.00  0.00    +0.000 A 
ENDBRANCH   1   2
BRANCH   1   9
ATOM      8  C   UNL     1       1.596   3.560  19.602  0.00  0.00    +0.000 C 
ATOM      9  C   UNL     1       1.979   4.304  18.317  0.00  0.00    +0.000 C 
ATOM     10  C   UNL     1       2.411   3.297  17.248  0.00  0.00    +0.000 C 
ENDBRANCH   1   9
BRANCH   1  11
ATOM     11  C   UNL     1       4.083   5.082  19.613  0.00  0.00    +0.000 C 
BRANCH  11  12
ATOM     12  C   UNL     1       5.500   5.240  19.095  0.00  0.00    +0.000 C 
ATOM     13  O   UNL     1       6.476   5.240  19.827  0.00  0.00    +0.000 OA
ATOM     14  N   UNL     1       5.586   5.470  17.713  0.00  0.00    +0.000 N 
ATOM     15  H   UNL     1       4.761   5.476  17.121  0.00  0.00    +0.000 HD
BRANCH  14  16
ATOM     16  S   UNL     1       6.980   5.687  16.842  0.00  0.00    +0.000 S 
ATOM     17  C   UNL     1       7.651   7.213  17.477  0.00  0.00    +0.000 C 
ATOM     18  O   UNL     1       7.885   4.594  17.125  0.00  0.00    +0.000 OA
ATOM     19  O   UNL     1       6.524   5.935  15.489  0.00  0.00    +0.000 OA
ENDBRANCH  14  16
ENDBRANCH  11  12
ENDBRANCH   1  11
TORSDOF 5
ENDMDL
MODEL 5
REMARK VINA RESULT:      -7.0      0.571      1.257
REMARK  Name = 
REMARK  8 active torsions:
REMARK  status: ('A' for Active; 'I' for Inactive)
REMARK    1  A    between atoms: C_1  and  C_2
REMARK    2  A    between atoms: C_2  and  C_3
REMARK    3  A    between atoms: C_2  and  C_4
REMARK    4  A    between atoms: C_4  and  C_5
REMARK    5  A    between atoms: C_4  and  C_13
REMARK    6  A    between atoms: C_5  and  C_6
REMARK    7  A    between atoms: N_8  and  S_9
REMARK    8  A    between atoms: S_9  and  C_10
REMARK                            x       y       z     vdW  Elec       q    Type
REMARK                         _______ _______ _______ _____ _____    ______ ____
ROOT
ATOM      1  C   UNL     1       3.273   5.007  18.870  0.00  0.00    +0.000 C 
ENDROOT
BRANCH   1   2
ATOM      2  C   UNL     1       2.756   6.449  18.957  0.00  0.00    +0.000 A 
ATOM      3  C   UNL     1       2.902   7.305  17.851  0.00  0.00    +0.000 A 
ATOM      4  C   UNL     1       2.333   8.584  17.843  0.00  0.00    +0.000 A 
ATOM      5  C   UNL     1       1.644   9.047  18.959  0.00  0.00    +0.000 A 
ATOM      6  C   UNL     1       1.528   8.234  20.082  0.00  0.00    +0.000 A 
ATOM      7  C   UNL     1       2.072   6.946  20.078  0.00  0.00    +0.000 A 
ENDBRANCH   1   2
BRANCH   1   9
ATOM      8  C   UNL     1       2.450   2.920  20.166  0.00  0.00    +0.000 C 
ATOM      9  C   UNL     1       2.130   3.954  19.079  0.00  0.00    +0.000 C 
ATOM     10  C   UNL     1       1.710   3.236  17.794  0.00  0.00    +0.000 C 
ENDBRANCH   1   9
BRANCH   1  11
ATOM     11  C   UNL     1       4.491   4.747  19.795  0.00  0.00    +0.000 C 
BRANCH  11  12
ATOM     12  C   UNL     1       5.815   5.016  19.106  0.00  0.00    +0.000 C 
ATOM     13  O   UNL     1       6.785   5.470  19.691  0.00  0.00    +0.000 OA
ATOM     14  N   UNL     1       5.805   4.777  17.723  0.00  0.00    +0.000 N 
ATOM     15  H   UNL     1       4.985   4.407  17.252  0.00  0.00    +0.000 HD
BRANCH  14  16
ATOM     16  S   UNL     1       7.082   4.976  16.686  0.00  0.00    +0.000 S 
ATOM     17  C   UNL     1       6.527   4.219  15.169  0.00  0.00    +0.000 C 
ATOM     18  O   UNL     1       7.303   6.391  16.479  0.00  0.00    +0.000 OA
ATOM     19  O   UNL     1       8.128   4.140  17.238  0.00  0.00    +0.000 OA
ENDBRANCH  14  16
ENDBRANCH  11  12
ENDBRANCH   1  11
TORSDOF 5
ENDMDL
MODEL 6
REMARK VINA RESULT:      -6.9      1.233      1.899
REMARK  Name = 
REMARK  8 active torsions:
REMARK  status: ('A' for Active; 'I' for Inactive)
REMARK    1  A    between atoms: C_1  and  C_2
REMARK    2  A    between atoms: C_2  and  C_3
REMARK    3  A    between atoms: C_2  and  C_4
REMARK    4  A    between atoms: C_4  and  C_5
REMARK    5  A    between atoms: C_4  and  C_13
REMARK    6  A    between atoms: C_5  and  C_6
REMARK    7  A    between atoms: N_8  and  S_9
REMARK    8  A    between atoms: S_9  and  C_10
REMARK                            x       y       z     vdW  Elec       q    Type
REMARK                         _______ _______ _______ _____ _____    ______ ____
ROOT
ATOM      1  C   UNL     1       2.894   4.216  19.067  0.00  0.00    +0.000 C 
ENDROOT
BRANCH   1   2
ATOM      2  C   UNL     1       2.638   5.728  19.120  0.00  0.00    +0.000 A 
ATOM      3  C   UNL     1       2.878   6.512  17.978  0.00  0.00    +0.000 A 
ATOM      4  C   UNL     1       2.538   7.869  17.944  0.00  0.00    +0.000 A 
ATOM      5  C   UNL     1       1.992   8.479  19.069  0.00  0.00    +0.000 A 
ATOM      6  C   UNL     1       1.790   7.732  20.226  0.00  0.00    +0.000 A 
ATOM      7  C   UNL     1       2.103   6.369  20.248  0.00  0.00    +0.000 A 
ENDBRANCH   1   2
BRANCH   1   9
ATOM      8  C   UNL     1       1.860   2.807  20.981  0.00  0.00    +0.000 C 
ATOM      9  C   UNL     1       1.663   3.388  19.574  0.00  0.00    +0.000 C 
ATOM     10  C   UNL     1       1.230   2.276  18.615  0.00  0.00    +0.000 C 
ENDBRANCH   1   9
BRANCH   1  11
ATOM     11  C   UNL     1       4.213   3.803  19.772  0.00  0.00    +0.000 C 
BRANCH  11  12
ATOM     12  C   UNL     1       5.441   4.391  19.105  0.00  0.00    +0.000 C 
ATOM     13  O   UNL     1       6.209   5.146  19.679  0.00  0.00    +0.000 OA
ATOM     14  N   UNL     1       5.574   4.061  17.747  0.00  0.00    +0.000 N 
ATOM     15  H   UNL     1       4.919   3.437  17.284  0.00  0.00    +0.000 HD
BRANCH  14  16
ATOM     16  S   UNL     1       6.796   4.543  16.737  0.00  0.00    +0.000 S 
ATOM     17  C   UNL     1       6.609   6.315  16.650  0.00  0.00    +0.000 C 
ATOM     18  O   UNL     1       8.066   4.210  17.345  0.00  0.00    +0.000 OA
ATOM     19  O   UNL     1       6.433   3.998  15.445  0.00  0.00    +0.000 OA
ENDBRANCH  14  16
ENDBRANCH  11  12
ENDBRANCH   1  11
TORSDOF 5
ENDMDL
MODEL 7
REMARK VINA RESULT:      -6.8      1.551      3.937
REMARK  Name = 
REMARK  8 active torsions:
REMARK  status: ('A' for Active; 'I' for Inactive)
REMARK    1  A    between atoms: C_1  and  C_2
REMARK    2  A    between atoms: C_2  and  C_3
REMARK    3  A    between atoms: C_2  and  C_4
REMARK    4  A    between atoms: C_4  and  C_5
REMARK    5  A    between atoms: C_4  and  C_13
REMARK    6  A    between atoms: C_5  and  C_6
REMARK    7  A    between atoms: N_8  and  S_9
REMARK    8  A    between atoms: S_9  and  C_10
REMARK                            x       y       z     vdW  Elec       q    Type
REMARK                         _______ _______ _______ _____ _____    ______ ____
ROOT
ATOM      1  C   UNL     1       2.852   6.136  18.909  0.00  0.00    +0.000 C 
ENDROOT
BRANCH   1   2
ATOM      2  C   UNL     1       2.232   4.960  19.675  0.00  0.00    +0.000 A 
ATOM      3  C   UNL     1       1.377   4.069  19.002  0.00  0.00    +0.000 A 
ATOM      4  C   UNL     1       0.893   2.915  19.627  0.00  0.00    +0.000 A 
ATOM      5  C   UNL     1       1.221   2.652  20.953  0.00  0.00    +0.000 A 
ATOM      6  C   UNL     1       2.028   3.544  21.652  0.00  0.00    +0.000 A 
ATOM      7  C   UNL     1       2.534   4.683  21.017  0.00  0.00    +0.000 A 
ENDBRANCH   1   2
BRANCH   1   9
ATOM      8  C   UNL     1       2.334   8.452  17.867  0.00  0.00    +0.000 C 
ATOM      9  C   UNL     1       1.917   7.395  18.897  0.00  0.00    +0.000 C 
ATOM     10  C   UNL     1       1.748   8.052  20.269  0.00  0.00    +0.000 C 
ENDBRANCH   1   9
BRANCH   1  11
ATOM     11  C   UNL     1       3.332   5.745  17.487  0.00  0.00    +0.000 C 
BRANCH  11  12
ATOM     12  C   UNL     1       4.761   5.238  17.472  0.00  0.00    +0.000 C 
ATOM     13  O   UNL     1       5.047   4.059  17.611  0.00  0.00    +0.000 OA
ATOM     14  N   UNL     1       5.731   6.247  17.367  0.00  0.00    +0.000 N 
ATOM     15  H   UNL     1       5.473   7.224  17.260  0.00  0.00    +0.000 HD
BRANCH  14  16
ATOM     16  S   UNL     1       7.373   6.027  17.326  0.00  0.00    +0.000 S 
ATOM     17  C   UNL     1       7.837   5.934  19.046  0.00  0.00    +0.000 C 
ATOM     18  O   UNL     1       7.662   4.771  16.668  0.00  0.00    +0.000 OA
ATOM     19  O   UNL     1       7.890   7.272  16.796  0.00  0.00    +0.000 OA
ENDBRANCH  14  16
ENDBRANCH  11  12
ENDBRANCH   1  11
TORSDOF 5
ENDMDL
MODEL 8
REMARK VINA RESULT:      -6.8      1.691      3.872
REMARK  Name = 
REMARK  8 active torsions:
REMARK  status: ('A' for Active; 'I' for Inactive)
REMARK    1  A    between atoms: C_1  and  C_2
REMARK    2  A    between atoms: C_2  and  C_3
REMARK    3  A    between atoms: C_2  and  C_4
REMARK    4  A    between atoms: C_4  and  C_5
REMARK    5  A    between atoms: C_4  and  C_13
REMARK    6  A    between atoms: C_5  and  C_6
REMARK    7  A    between atoms: N_8  and  S_9
REMARK    8  A    between atoms: S_9  and  C_10
REMARK                            x       y       z     vdW  Elec       q    Type
REMARK                         _______ _______ _______ _____ _____    ______ ____
ROOT
ATOM      1  C   UNL     1       2.756   6.466  19.070  0.00  0.00    +0.000 C 
ENDROOT
BRANCH   1   2
ATOM      2  C   UNL     1       2.254   5.104  19.566  0.00  0.00    +0.000 A 
ATOM      3  C   UNL     1       2.455   4.739  20.909  0.00  0.00    +0.000 A 
ATOM      4  C   UNL     1       1.903   3.565  21.433  0.00  0.00    +0.000 A 
ATOM      5  C   UNL     1       1.175   2.710  20.611  0.00  0.00    +0.000 A 
ATOM      6  C   UNL     1       1.004   3.029  19.267  0.00  0.00    +0.000 A 
ATOM      7  C   UNL     1       1.532   4.217  18.753  0.00  0.00    +0.000 A 
ENDBRANCH   1   2
BRANCH   1   9
ATOM      8  C   UNL     1       1.886   8.798  18.349  0.00  0.00    +0.000 C 
ATOM      9  C   UNL     1       1.702   7.605  19.295  0.00  0.00    +0.000 C 
ATOM     10  C   UNL     1       1.631   8.103  20.742  0.00  0.00    +0.000 C 
ENDBRANCH   1   9
BRANCH   1  11
ATOM     11  C   UNL     1       3.271   6.422  17.607  0.00  0.00    +0.000 C 
BRANCH  11  12
ATOM     12  C   UNL     1       4.712   5.960  17.510  0.00  0.00    +0.000 C 
ATOM     13  O   UNL     1       5.038   4.787  17.593  0.00  0.00    +0.000 OA
ATOM     14  N   UNL     1       5.647   7.001  17.399  0.00  0.00    +0.000 N 
ATOM     15  H   UNL     1       5.357   7.973  17.340  0.00  0.00    +0.000 HD
BRANCH  14  16
ATOM     16  S   UNL     1       7.291   6.833  17.277  0.00  0.00    +0.000 S 
ATOM     17  C   UNL     1       7.762   6.082  18.824  0.00  0.00    +0.000 C 
ATOM     18  O   UNL     1       7.591   5.937  16.182  0.00  0.00    +0.000 OA
ATOM     19  O   UNL     1       7.793   8.192  17.276  0.00  0.00    +0.000 OA
ENDBRANCH  14  16
ENDBRANCH  11  12
ENDBRANCH   1  11
TORSDOF 5
ENDMDL
MODEL 9
REMARK VINA RESULT:      -6.7      1.477      2.250
REMARK  Name = 
REMARK  8 active torsions:
REMARK  status: ('A' for Active; 'I' for Inactive)
REMARK    1  A    between atoms: C_1  and  C_2
REMARK    2  A    between atoms: C_2  and  C_3
REMARK    3  A    between atoms: C_2  and  C_4
REMARK    4  A    between atoms: C_4  and  C_5
REMARK    5  A    between atoms: C_4  and  C_13
REMARK    6  A    between atoms: C_5  and  C_6
REMARK    7  A    between atoms: N_8  and  S_9
REMARK    8  A    between atoms: S_9  and  C_10
REMARK                            x       y       z     vdW  Elec       q    Type
REMARK                         _______ _______ _______ _____ _____    ______ ____
ROOT
ATOM      1  C   UNL     1       2.410   4.458  18.939  0.00  0.00    +0.000 C 
ENDROOT
BRANCH   1   2
ATOM      2  C   UNL     1       2.246   5.973  19.123  0.00  0.00    +0.000 A 
ATOM      3  C   UNL     1       2.432   6.828  18.022  0.00  0.00    +0.000 A 
ATOM      4  C   UNL     1       2.169   8.200  18.116  0.00  0.00    +0.000 A 
ATOM      5  C   UNL     1       1.758   8.749  19.326  0.00  0.00    +0.000 A 
ATOM      6  C   UNL     1       1.614   7.928  20.441  0.00  0.00    +0.000 A 
ATOM      7  C   UNL     1       1.849   6.553  20.337  0.00  0.00    +0.000 A 
ENDBRANCH   1   2
BRANCH   1   9
ATOM      8  C   UNL     1       1.785   3.145  21.084  0.00  0.00    +0.000 C 
ATOM      9  C   UNL     1       1.314   3.646  19.713  0.00  0.00    +0.000 C 
ATOM     10  C   UNL     1       0.731   2.479  18.912  0.00  0.00    +0.000 C 
ENDBRANCH   1   9
BRANCH   1  11
ATOM     11  C   UNL     1       3.844   3.963  19.258  0.00  0.00    +0.000 C 
BRANCH  11  12
ATOM     12  C   UNL     1       4.811   4.198  18.114  0.00  0.00    +0.000 C 
ATOM     13  O   UNL     1       4.786   3.547  17.082  0.00  0.00    +0.000 OA
ATOM     14  N   UNL     1       5.789   5.171  18.375  0.00  0.00    +0.000 N 
ATOM     15  H   UNL     1       5.799   5.696  19.244  0.00  0.00    +0.000 HD
BRANCH  14  16
ATOM     16  S   UNL     1       6.988   5.657  17.339  0.00  0.00    +0.000 S 
ATOM     17  C   UNL     1       7.866   6.911  18.254  0.00  0.00    +0.000 C 
ATOM     18  O   UNL     1       7.863   4.535  17.075  0.00  0.00    +0.000 OA
ATOM     19  O   UNL     1       6.284   6.313  16.256  0.00  0.00    +0.000 OA
ENDBRANCH  14  16
ENDBRANCH  11  12
ENDBRANCH   1  11
TORSDOF 5
ENDMDL
