MODEL 1
REMARK VINA RESULT:      -7.8      0.000      0.000
REMARK  Name = 
REMARK  6 active torsions:
REMARK  status: ('A' for Active; 'I' for Inactive)
REMARK    1  A    between atoms: C_6  and  O_7
REMARK    2  A    between atoms: C_13  and  O_14
REMARK    3  A    between atoms: O_14  and  C_15
REMARK    4  A    between atoms: C_15  and  C_16
REMARK    5  A    between atoms: C_16  and  C_17
REMARK    6  A    between atoms: C_17  and  N_18
REMARK                            x       y       z     vdW  Elec       q    Type
REMARK                         _______ _______ _______ _____ _____    ______ ____
ROOT
ATOM      1  O   UNL     1       1.697   9.982  17.534  0.00  0.00    +0.000 OA
ATOM      2  C   UNL     1       1.778   9.165  18.445  0.00  0.00    +0.000 A 
ATOM      3  C   UNL     1       1.045   9.350  19.705  0.00  0.00    +0.000 A 
ATOM      4  C   UNL     1       0.230  10.470  19.899  0.00  0.00    +0.000 A 
ATOM      5  C   UNL     1      -0.457  10.625  21.104  0.00  0.00    +0.000 A 
ATOM      6  C   UNL     1      -0.318   9.658  22.096  0.00  0.00    +0.000 A 
ATOM      7  C   UNL     1       0.493   8.542  21.906  0.00  0.00    +0.000 A 
ATOM      8  C   UNL     1       1.181   8.382  20.702  0.00  0.00    +0.000 A 
ATOM      9  O   UNL     1       1.959   7.258  20.576  0.00  0.00    +0.000 OA
ATOM     10  C   UNL     1       2.644   7.066  19.397  0.00  0.00    +0.000 A 
ATOM     11  C   UNL     1       3.418   5.902  19.306  0.00  0.00    +0.000 A 
ATOM     12  C   UNL     1       4.147   5.635  18.143  0.00  0.00    +0.000 A 
ATOM     13  C   UNL     1       4.115   6.549  17.085  0.00  0.00    +0.000 A 
ATOM     14  C   UNL     1       3.337   7.705  17.167  0.00  0.00    +0.000 A 
ATOM     15  C   UNL     1       2.604   7.957  18.327  0.00  0.00    +0.000 A 
ENDROOT
BRANCH   6  16
ATOM     16  O   UNL     1      -0.973   9.773  23.286  0.00  0.00    +0.000 OA
ATOM     17  H   UNL     1      -0.683  10.588  23.727  0.00  0.00    +0.000 HD
ENDBRANCH   6  16
BRANCH  12  18
ATOM     18  O   UNL     1       4.958   4.551  17.946  0.00  0.00    +0.000 OA
BRANCH  18  19
ATOM     19  C   UNL     1       4.471   3.538  17.061  0.00  0.00    +0.000 C 
BRANCH  19  20
ATOM     20  C   UNL     1       3.970   2.366  17.909  0.00  0.00    +0.000 C 
BRANCH  20  21
ATOM     21  C   UNL     1       2.441   2.281  17.912  0.00  0.00    +0.000 C 
BRANCH  21  22
ATOM     22  N   UNL     1       1.919   2.117  19.272  0.00  0.00    +0.000 NA
ATOM     23  C   UNL     1       0.700   2.888  19.548  0.00  0.00    +0.000 C 
ATOM     24  C   UNL     1       1.025   3.811  20.711  0.00  0.00    +0.000 C 
ATOM     25  C   UNL     1       2.146   3.095  21.432  0.00  0.00    +0.000 C 
ATOM     26  C   UNL     1       2.914   2.429  20.303  0.00  0.00    +0.000 C 
ENDBRANCH  21  22
ENDBRANCH  20  21
ENDBRANCH  19  20
ENDBRANCH  18  19
ENDBRANCH  12  18
TORSDOF 6
ENDMDL
MODEL 2
REMARK VINA RESULT:      -7.6      5.081      7.860
REMARK  Name = 
REMARK  6 active torsions:
REMARK  status: ('A' for Active; 'I' for Inactive)
REMARK    1  A    between atoms: C_6  and  O_7
REMARK    2  A    between atoms: C_13  and  O_14
REMARK    3  A    between atoms: O_14  and  C_15
REMARK    4  A    between atoms: C_15  and  C_16
REMARK    5  A    between atoms: C_16  and  C_17
REMARK    6  A    between atoms: C_17  and  N_18
REMARK                            x       y       z     vdW  Elec       q    Type
REMARK                         _______ _______ _______ _____ _____    ______ ____
ROOT
ATOM      1  O   UNL     1       2.969   3.114  16.239  0.00  0.00    +0.000 OA
ATOM      2  C   UNL     1       3.354   3.695  17.247  0.00  0.00    +0.000 A 
ATOM      3  C   UNL     1       2.768   3.411  18.565  0.00  0.00    +0.000 A 
ATOM      4  C   UNL     1       1.748   2.463  18.702  0.00  0.00    +0.000 A 
ATOM      5  C   UNL     1       1.206   2.209  19.962  0.00  0.00    +0.000 A 
ATOM      6  C   UNL     1       1.690   2.907  21.066  0.00  0.00    +0.000 A 
ATOM      7  C   UNL     1       2.706   3.851  20.932  0.00  0.00    +0.000 A 
ATOM      8  C   UNL     1       3.252   4.107  19.673  0.00  0.00    +0.000 A 
ATOM      9  O   UNL     1       4.252   5.045  19.610  0.00  0.00    +0.000 OA
ATOM     10  C   UNL     1       4.819   5.315  18.385  0.00  0.00    +0.000 A 
ATOM     11  C   UNL     1       5.842   6.271  18.365  0.00  0.00    +0.000 A 
ATOM     12  C   UNL     1       6.467   6.605  17.160  0.00  0.00    +0.000 A 
ATOM     13  C   UNL     1       6.046   5.995  15.974  0.00  0.00    +0.000 A 
ATOM     14  C   UNL     1       5.033   5.035  15.989  0.00  0.00    +0.000 A 
ATOM     15  C   UNL     1       4.424   4.699  17.199  0.00  0.00    +0.000 A 
ENDROOT
BRANCH   6  16
ATOM     16  O   UNL     1       1.188   2.687  22.313  0.00  0.00    +0.000 OA
ATOM     17  H   UNL     1       0.480   2.025  22.255  0.00  0.00    +0.000 HD
ENDBRANCH   6  16
BRANCH  12  18
ATOM     18  O   UNL     1       7.455   7.540  17.010  0.00  0.00    +0.000 OA
BRANCH  18  19
ATOM     19  C   UNL     1       8.172   7.908  18.192  0.00  0.00    +0.000 C 
BRANCH  19  20
ATOM     20  C   UNL     1       8.427   9.417  18.144  0.00  0.00    +0.000 C 
BRANCH  20  21
ATOM     21  C   UNL     1       9.189   9.901  19.381  0.00  0.00    +0.000 C 
BRANCH  21  22
ATOM     22  N   UNL     1       9.632  11.290  19.223  0.00  0.00    +0.000 NA
ATOM     23  C   UNL     1      10.317  11.565  17.954  0.00  0.00    +0.000 C 
ATOM     24  C   UNL     1      11.705  12.070  18.312  0.00  0.00    +0.000 C 
ATOM     25  C   UNL     1      11.527  12.654  19.696  0.00  0.00    +0.000 C 
ATOM     26  C   UNL     1      10.489  11.741  20.325  0.00  0.00    +0.000 C 
ENDBRANCH  21  22
ENDBRANCH  20  21
ENDBRANCH  19  20
ENDBRANCH  18  19
ENDBRANCH  12  18
TORSDOF 6
ENDMDL
MODEL 3
REMARK VINA RESULT:      -7.3      1.742      3.086
REMARK  Name = 
REMARK  6 active torsions:
REMARK  status: ('A' for Active; 'I' for Inactive)
REMARK    1  A    between atoms: C_6  and  O_7
REMARK    2  A    between atoms: C_13  and  O_14
REMARK    3  A    between atoms: O_14  and  C_15
REMARK    4  A    between atoms: C_15  and  C_16
REMARK    5  A    between atoms: C_16  and  C_17
REMARK    6  A    between atoms: C_17  and  N_18
REMARK                            x       y       z     vdW  Elec       q    Type
REMARK                         _______ _______ _______ _____ _____    ______ ____
ROOT
ATOM      1  O   UNL     1       0.248   9.214  22.410  0.00  0.00    +0.000 OA
ATOM      2  C   UNL     1       0.496   9.528  21.251  0.00  0.00    +0.000 A 
ATOM      3  C   UNL     1       0.098  10.835  20.710  0.00  0.00    +0.000 A 
ATOM      4  C   UNL     1      -0.577  11.762  21.512  0.00  0.00    +0.000 A 
ATOM      5  C   UNL     1      -0.944  12.998  20.978  0.00  0.00    +0.000 A 
ATOM      6  C   UNL     1      -0.632  13.288  19.653  0.00  0.00    +0.000 A 
ATOM      7  C   UNL     1       0.040  12.367  18.853  0.00  0.00    +0.000 A 
ATOM      8  C   UNL     1       0.411  11.130  19.383  0.00  0.00    +0.000 A 
ATOM      9  O   UNL     1       1.075  10.269  18.544  0.00  0.00    +0.000 OA
ATOM     10  C   UNL     1       1.463   9.045  19.038  0.00  0.00    +0.000 A 
ATOM     11  C   UNL     1       2.145   8.201  18.153  0.00  0.00    +0.000 A 
ATOM     12  C   UNL     1       2.571   6.938  18.577  0.00  0.00    +0.000 A 
ATOM     13  C   UNL     1       2.287   6.517  19.880  0.00  0.00    +0.000 A 
ATOM     14  C   UNL     1       1.615   7.358  20.768  0.00  0.00    +0.000 A 
ATOM     15  C   UNL     1       1.206   8.621  20.340  0.00  0.00    +0.000 A 
ENDROOT
BRANCH   6  16
ATOM     16  O   UNL     1      -0.973  14.485  19.095  0.00  0.00    +0.000 OA
ATOM     17  H   UNL     1      -0.937  14.402  18.128  0.00  0.00    +0.000 HD
ENDBRANCH   6  16
BRANCH  12  18
ATOM     18  O   UNL     1       3.218   6.017  17.799  0.00  0.00    +0.000 OA
BRANCH  18  19
ATOM     19  C   UNL     1       4.365   5.385  18.377  0.00  0.00    +0.000 C 
BRANCH  19  20
ATOM     20  C   UNL     1       4.236   3.875  18.161  0.00  0.00    +0.000 C 
BRANCH  20  21
ATOM     21  C   UNL     1       4.458   3.096  19.461  0.00  0.00    +0.000 C 
BRANCH  21  22
ATOM     22  N   UNL     1       3.234   2.413  19.890  0.00  0.00    +0.000 NA
ATOM     23  C   UNL     1       2.131   2.489  18.924  0.00  0.00    +0.000 C 
ATOM     24  C   UNL     1       0.974   3.167  19.640  0.00  0.00    +0.000 C 
ATOM     25  C   UNL     1       1.233   2.867  21.099  0.00  0.00    +0.000 C 
ATOM     26  C   UNL     1       2.748   2.882  21.192  0.00  0.00    +0.000 C 
ENDBRANCH  21  22
ENDBRANCH  20  21
ENDBRANCH  19  20
ENDBRANCH  18  19
ENDBRANCH  12  18
TORSDOF 6
ENDMDL
MODEL 4
REMARK VINA RESULT:      -7.3      1.420      2.183
REMARK  Name = 
REMARK  6 active torsions:
REMARK  status: ('A' for Active; 'I' for Inactive)
REMARK    1  A    between atoms: C_6  and  O_7
REMARK    2  A    between atoms: C_13  and  O_14
REMARK    3  A    between atoms: O_14  and  C_15
REMARK    4  A    between atoms: C_15  and  C_16
REMARK    5  A    between atoms: C_16  and  C_17
REMARK    6  A    between atoms: C_17  and  N_18
REMARK                            x       y       z     vdW  Elec       q    Type
REMARK                         _______ _______ _______ _____ _____    ______ ____
ROOT
ATOM      1  O   UNL     1      -0.057  11.259  18.051  0.00  0.00    +0.000 OA
ATOM      2  C   UNL     1       0.097  10.624  19.088  0.00  0.00    +0.000 A 
ATOM      3  C   UNL     1      -0.566  11.025  20.336  0.00  0.00    +0.000 A 
ATOM      4  C   UNL     1      -1.398  12.151  20.372  0.00  0.00    +0.000 A 
ATOM      5  C   UNL     1      -2.018  12.513  21.568  0.00  0.00    +0.000 A 
ATOM      6  C   UNL     1      -1.798  11.747  22.710  0.00  0.00    +0.000 A 
ATOM      7  C   UNL     1      -0.970  10.627  22.677  0.00  0.00    +0.000 A 
ATOM      8  C   UNL     1      -0.349  10.259  21.482  0.00  0.00    +0.000 A 
ATOM      9  O   UNL     1       0.449   9.143  21.516  0.00  0.00    +0.000 OA
ATOM     10  C   UNL     1       1.070   8.748  20.353  0.00  0.00    +0.000 A 
ATOM     11  C   UNL     1       1.868   7.599  20.428  0.00  0.00    +0.000 A 
ATOM     12  C   UNL     1       2.535   7.134  19.290  0.00  0.00    +0.000 A 
ATOM     13  C   UNL     1       2.419   7.838  18.087  0.00  0.00    +0.000 A 
ATOM     14  C   UNL     1       1.618   8.978  18.005  0.00  0.00    +0.000 A 
ATOM     15  C   UNL     1       0.946   9.427  19.142  0.00  0.00    +0.000 A 
ENDROOT
BRANCH   6  16
ATOM     16  O   UNL     1      -2.386  12.068  23.897  0.00  0.00    +0.000 OA
ATOM     17  H   UNL     1      -2.001  12.897  24.224  0.00  0.00    +0.000 HD
ENDBRANCH   6  16
BRANCH  12  18
ATOM     18  O   UNL     1       3.362   6.045  19.245  0.00  0.00    +0.000 OA
BRANCH  18  19
ATOM     19  C   UNL     1       3.791   5.620  17.948  0.00  0.00    +0.000 C 
BRANCH  19  20
ATOM     20  C   UNL     1       3.028   4.341  17.590  0.00  0.00    +0.000 C 
BRANCH  20  21
ATOM     21  C   UNL     1       3.592   3.122  18.326  0.00  0.00    +0.000 C 
BRANCH  21  22
ATOM     22  N   UNL     1       2.634   2.602  19.308  0.00  0.00    +0.000 NA
ATOM     23  C   UNL     1       1.280   3.156  19.182  0.00  0.00    +0.000 C 
ATOM     24  C   UNL     1       0.960   3.826  20.508  0.00  0.00    +0.000 C 
ATOM     25  C   UNL     1       1.837   3.093  21.498  0.00  0.00    +0.000 C 
ATOM     26  C   UNL     1       3.086   2.783  20.692  0.00  0.00    +0.000 C 
ENDBRANCH  21  22
ENDBRANCH  20  21
ENDBRANCH  19  20
ENDBRANCH  18  19
ENDBRANCH  12  18
TORSDOF 6
ENDMDL
MODEL 5
REMARK VINA RESULT:      -7.2      5.108      7.844
REMARK  Name = 
REMARK  6 active torsions:
REMARK  status: ('A' for Active; 'I' for Inactive)
REMARK    1  A    between atoms: C_6  and  O_7
REMARK    2  A    between atoms: C_13  and  O_14
REMARK    3  A    between atoms: O_14  and  C_15
REMARK    4  A    between atoms: C_15  and  C_16
REMARK    5  A    between atoms: C_16  and  C_17
REMARK    6  A    between atoms: C_17  and  N_18
REMARK                            x       y       z     vdW  Elec       q    Type
REMARK                         _______ _______ _______ _____ _____    ______ ____
ROOT
ATOM      1  O   UNL     1       2.711   3.640  16.335  0.00  0.00    +0.000 OA
ATOM      2  C   UNL     1       3.187   3.962  17.418  0.00  0.00    +0.000 A 
ATOM      3  C   UNL     1       2.552   3.563  18.682  0.00  0.00    +0.000 A 
ATOM      4  C   UNL     1       1.380   2.799  18.680  0.00  0.00    +0.000 A 
ATOM      5  C   UNL     1       0.794   2.431  19.892  0.00  0.00    +0.000 A 
ATOM      6  C   UNL     1       1.388   2.832  21.086  0.00  0.00    +0.000 A 
ATOM      7  C   UNL     1       2.555   3.593  21.090  0.00  0.00    +0.000 A 
ATOM      8  C   UNL     1       3.146   3.961  19.880  0.00  0.00    +0.000 A 
ATOM      9  O   UNL     1       4.297   4.706  19.953  0.00  0.00    +0.000 OA
ATOM     10  C   UNL     1       4.909   5.079  18.778  0.00  0.00    +0.000 A 
ATOM     11  C   UNL     1       6.086   5.830  18.897  0.00  0.00    +0.000 A 
ATOM     12  C   UNL     1       6.767   6.251  17.750  0.00  0.00    +0.000 A 
ATOM     13  C   UNL     1       6.251   5.938  16.489  0.00  0.00    +0.000 A 
ATOM     14  C   UNL     1       5.084   5.183  16.365  0.00  0.00    +0.000 A 
ATOM     15  C   UNL     1       4.418   4.756  17.515  0.00  0.00    +0.000 A 
ENDROOT
BRANCH   6  16
ATOM     16  O   UNL     1       0.847   2.492  22.290  0.00  0.00    +0.000 OA
ATOM     17  H   UNL     1       0.161   3.140  22.521  0.00  0.00    +0.000 HD
ENDBRANCH   6  16
BRANCH  12  18
ATOM     18  O   UNL     1       7.905   7.010  17.738  0.00  0.00    +0.000 OA
BRANCH  18  19
ATOM     19  C   UNL     1       7.734   8.418  17.546  0.00  0.00    +0.000 C 
BRANCH  19  20
ATOM     20  C   UNL     1       8.623   9.148  18.556  0.00  0.00    +0.000 C 
BRANCH  20  21
ATOM     21  C   UNL     1       8.875  10.600  18.142  0.00  0.00    +0.000 C 
BRANCH  21  22
ATOM     22  N   UNL     1      10.194  11.061  18.589  0.00  0.00    +0.000 NA
ATOM     23  C   UNL     1      10.280  11.336  20.029  0.00  0.00    +0.000 C 
ATOM     24  C   UNL     1      10.679  12.796  20.168  0.00  0.00    +0.000 C 
ATOM     25  C   UNL     1      11.404  13.092  18.874  0.00  0.00    +0.000 C 
ATOM     26  C   UNL     1      10.660  12.244  17.858  0.00  0.00    +0.000 C 
ENDBRANCH  21  22
ENDBRANCH  20  21
ENDBRANCH  19  20
ENDBRANCH  18  19
ENDBRANCH  12  18
TORSDOF 6
ENDMDL
MODEL 6
REMARK VINA RESULT:      -7.0      3.217      7.817
REMARK  Name = 
REMARK  6 active torsions:
REMARK  status: ('A' for Active; 'I' for Inactive)
REMARK    1  A    between atoms: C_6  and  O_7
REMARK    2  A    between atoms: C_13  and  O_14
REMARK    3  A    between atoms: O_14  and  C_15
REMARK    4  A    between atoms: C_15  and  C_16
REMARK    5  A    between atoms: C_16  and  C_17
REMARK    6  A    between atoms: C_17  and  N_18
REMARK                            x       y       z     vdW  Elec       q    Type
REMARK                         _______ _______ _______ _____ _____    ______ ____
ROOT
ATOM      1  O   UNL     1       3.033   5.132  20.319  0.00  0.00    +0.000 OA
ATOM      2  C   UNL     1       3.099   5.998  19.454  0.00  0.00    +0.000 A 
ATOM      3  C   UNL     1       3.960   5.836  18.274  0.00  0.00    +0.000 A 
ATOM      4  C   UNL     1       4.732   4.681  18.108  0.00  0.00    +0.000 A 
ATOM      5  C   UNL     1       5.543   4.549  16.980  0.00  0.00    +0.000 A 
ATOM      6  C   UNL     1       5.571   5.573  16.037  0.00  0.00    +0.000 A 
ATOM      7  C   UNL     1       4.803   6.724  16.200  0.00  0.00    +0.000 A 
ATOM      8  C   UNL     1       3.989   6.859  17.326  0.00  0.00    +0.000 A 
ATOM      9  O   UNL     1       3.254   8.015  17.425  0.00  0.00    +0.000 OA
ATOM     10  C   UNL     1       2.434   8.177  18.518  0.00  0.00    +0.000 A 
ATOM     11  C   UNL     1       1.695   9.365  18.576  0.00  0.00    +0.000 A 
ATOM     12  C   UNL     1       0.841   9.607  19.656  0.00  0.00    +0.000 A 
ATOM     13  C   UNL     1       0.751   8.666  20.687  0.00  0.00    +0.000 A 
ATOM     14  C   UNL     1       1.479   7.477  20.630  0.00  0.00    +0.000 A 
ATOM     15  C   UNL     1       2.319   7.238  19.542  0.00  0.00    +0.000 A 
ENDROOT
BRANCH   6  16
ATOM     16  O   UNL     1       6.349   5.481  14.921  0.00  0.00    +0.000 OA
ATOM     17  H   UNL     1       7.111   4.911  15.116  0.00  0.00    +0.000 HD
ENDBRANCH   6  16
BRANCH  12  18
ATOM     18  O   UNL     1       0.092  10.738  19.838  0.00  0.00    +0.000 OA
BRANCH  18  19
ATOM     19  C   UNL     1       0.352  11.827  18.948  0.00  0.00    +0.000 C 
BRANCH  19  20
ATOM     20  C   UNL     1      -0.973  12.243  18.305  0.00  0.00    +0.000 C 
BRANCH  20  21
ATOM     21  C   UNL     1      -2.171  11.597  19.008  0.00  0.00    +0.000 C 
BRANCH  21  22
ATOM     22  N   UNL     1      -2.930  10.743  18.089  0.00  0.00    +0.000 NA
ATOM     23  C   UNL     1      -2.110  10.063  17.079  0.00  0.00    +0.000 C 
ATOM     24  C   UNL     1      -2.632  10.510  15.724  0.00  0.00    +0.000 C 
ATOM     25  C   UNL     1      -4.070  10.888  16.003  0.00  0.00    +0.000 C 
ATOM     26  C   UNL     1      -4.010  11.464  17.407  0.00  0.00    +0.000 C 
ENDBRANCH  21  22
ENDBRANCH  20  21
ENDBRANCH  19  20
ENDBRANCH  18  19
ENDBRANCH  12  18
TORSDOF 6
ENDMDL
MODEL 7
REMARK VINA RESULT:      -7.0      2.648      4.461
REMARK  Name = 
REMARK  6 active torsions:
REMARK  status: ('A' for Active; 'I' for Inactive)
REMARK    1  A    between atoms: C_6  and  O_7
REMARK    2  A    between atoms: C_13  and  O_14
REMARK    3  A    between atoms: O_14  and  C_15
REMARK    4  A    between atoms: C_15  and  C_16
REMARK    5  A    between atoms: C_16  and  C_17
REMARK    6  A    between atoms: C_17  and  N_18
REMARK                            x       y       z     vdW  Elec       q    Type
REMARK                         _______ _______ _______ _____ _____    ______ ____
ROOT
ATOM      1  O   UNL     1       0.497   8.883  22.151  0.00  0.00    +0.000 OA
ATOM      2  C   UNL     1       0.657   9.328  21.019  0.00  0.00    +0.000 A 
ATOM      3  C   UNL     1       0.081  10.619  20.616  0.00  0.00    +0.000 A 
ATOM      4  C   UNL     1      -0.669  11.378  21.521  0.00  0.00    +0.000 A 
ATOM      5  C   UNL     1      -1.206  12.601  21.116  0.00  0.00    +0.000 A 
ATOM      6  C   UNL     1      -0.986  13.045  19.815  0.00  0.00    +0.000 A 
ATOM      7  C   UNL     1      -0.240  12.291  18.913  0.00  0.00    +0.000 A 
ATOM      8  C   UNL     1       0.301  11.068  19.313  0.00  0.00    +0.000 A 
ATOM      9  O   UNL     1       1.030  10.376  18.379  0.00  0.00    +0.000 OA
ATOM     10  C   UNL     1       1.585   9.170  18.744  0.00  0.00    +0.000 A 
ATOM     11  C   UNL     1       2.329   8.501  17.764  0.00  0.00    +0.000 A 
ATOM     12  C   UNL     1       2.923   7.269  18.054  0.00  0.00    +0.000 A 
ATOM     13  C   UNL     1       2.746   6.701  19.320  0.00  0.00    +0.000 A 
ATOM     14  C   UNL     1       2.013   7.368  20.303  0.00  0.00    +0.000 A 
ATOM     15  C   UNL     1       1.435   8.603  20.008  0.00  0.00    +0.000 A 
ENDROOT
BRANCH   6  16
ATOM     16  O   UNL     1      -1.494  14.234  19.382  0.00  0.00    +0.000 OA
ATOM     17  H   UNL     1      -2.047  14.614  20.084  0.00  0.00    +0.000 HD
ENDBRANCH   6  16
BRANCH  12  18
ATOM     18  O   UNL     1       3.646   6.510  17.175  0.00  0.00    +0.000 OA
BRANCH  18  19
ATOM     19  C   UNL     1       3.826   5.132  17.517  0.00  0.00    +0.000 C 
BRANCH  19  20
ATOM     20  C   UNL     1       5.037   4.604  16.744  0.00  0.00    +0.000 C 
BRANCH  20  21
ATOM     21  C   UNL     1       5.794   5.733  16.038  0.00  0.00    +0.000 C 
BRANCH  21  22
ATOM     22  N   UNL     1       7.112   5.950  16.643  0.00  0.00    +0.000 NA
ATOM     23  C   UNL     1       7.513   4.915  17.604  0.00  0.00    +0.000 C 
ATOM     24  C   UNL     1       7.745   5.622  18.929  0.00  0.00    +0.000 C 
ATOM     25  C   UNL     1       8.087   7.038  18.524  0.00  0.00    +0.000 C 
ATOM     26  C   UNL     1       7.231   7.261  17.290  0.00  0.00    +0.000 C 
ENDBRANCH  21  22
ENDBRANCH  20  21
ENDBRANCH  19  20
ENDBRANCH  18  19
ENDBRANCH  12  18
TORSDOF 6
ENDMDL
MODEL 8
REMARK VINA RESULT:      -6.9      1.364      2.517
REMARK  Name = 
REMARK  6 active torsions:
REMARK  status: ('A' for Active; 'I' for Inactive)
REMARK    1  A    between atoms: C_6  and  O_7
REMARK    2  A    between atoms: C_13  and  O_14
REMARK    3  A    between atoms: O_14  and  C_15
REMARK    4  A    between atoms: C_15  and  C_16
REMARK    5  A    between atoms: C_16  and  C_17
REMARK    6  A    between atoms: C_17  and  N_18
REMARK                            x       y       z     vdW  Elec       q    Type
REMARK                         _______ _______ _______ _____ _____    ______ ____
ROOT
ATOM      1  O   UNL     1       0.795   8.239  21.846  0.00  0.00    +0.000 OA
ATOM      2  C   UNL     1       1.030   8.610  20.701  0.00  0.00    +0.000 A 
ATOM      3  C   UNL     1       0.446   9.846  20.162  0.00  0.00    +0.000 A 
ATOM      4  C   UNL     1      -0.400  10.637  20.949  0.00  0.00    +0.000 A 
ATOM      5  C   UNL     1      -0.944  11.806  20.416  0.00  0.00    +0.000 A 
ATOM      6  C   UNL     1      -0.635  12.167  19.107  0.00  0.00    +0.000 A 
ATOM      7  C   UNL     1       0.206  11.382  18.323  0.00  0.00    +0.000 A 
ATOM      8  C   UNL     1       0.754  10.212  18.852  0.00  0.00    +0.000 A 
ATOM      9  O   UNL     1       1.578   9.486  18.029  0.00  0.00    +0.000 OA
ATOM     10  C   UNL     1       2.142   8.331  18.522  0.00  0.00    +0.000 A 
ATOM     11  C   UNL     1       2.985   7.625  17.654  0.00  0.00    +0.000 A 
ATOM     12  C   UNL     1       3.594   6.440  18.078  0.00  0.00    +0.000 A 
ATOM     13  C   UNL     1       3.336   5.955  19.364  0.00  0.00    +0.000 A 
ATOM     14  C   UNL     1       2.505   6.660  20.236  0.00  0.00    +0.000 A 
ATOM     15  C   UNL     1       1.911   7.848  19.808  0.00  0.00    +0.000 A 
ENDROOT
BRANCH   6  16
ATOM     16  O   UNL     1      -1.146  13.302  18.552  0.00  0.00    +0.000 OA
ATOM     17  H   UNL     1      -1.703  13.751  19.209  0.00  0.00    +0.000 HD
ENDBRANCH   6  16
BRANCH  12  18
ATOM     18  O   UNL     1       4.410   5.651  17.315  0.00  0.00    +0.000 OA
BRANCH  18  19
ATOM     19  C   UNL     1       3.853   4.420  16.844  0.00  0.00    +0.000 C 
BRANCH  19  20
ATOM     20  C   UNL     1       4.046   3.362  17.935  0.00  0.00    +0.000 C 
BRANCH  20  21
ATOM     21  C   UNL     1       3.084   2.184  17.756  0.00  0.00    +0.000 C 
BRANCH  21  22
ATOM     22  N   UNL     1       2.344   1.908  18.992  0.00  0.00    +0.000 NA
ATOM     23  C   UNL     1       0.957   2.390  18.985  0.00  0.00    +0.000 C 
ATOM     24  C   UNL     1       0.830   3.362  20.146  0.00  0.00    +0.000 C 
ATOM     25  C   UNL     1       1.908   2.912  21.107  0.00  0.00    +0.000 C 
ATOM     26  C   UNL     1       3.016   2.433  20.185  0.00  0.00    +0.000 C 
ENDBRANCH  21  22
ENDBRANCH  20  21
ENDBRANCH  19  20
ENDBRANCH  18  19
ENDBRANCH  12  18
TORSDOF 6
ENDMDL
MODEL 9
REMARK VINA RESULT:      -6.9      5.386      8.302
REMARK  Name = 
REMARK  6 active torsions:
REMARK  status: ('A' for Active; 'I' for Inactive)
REMARK    1  A    between atoms: C_6  and  O_7
REMARK    2  A    between atoms: C_13  and  O_14
REMARK    3  A    between atoms: O_14  and  C_15
REMARK    4  A    between atoms: C_15  and  C_16
REMARK    5  A    between atoms: C_16  and  C_17
REMARK    6  A    between atoms: C_17  and  N_18
REMARK                            x       y       z     vdW  Elec       q    Type
REMARK                         _______ _______ _______ _____ _____    ______ ____
ROOT
ATOM      1  O   UNL     1       5.038   2.557  16.247  0.00  0.00    +0.000 OA
ATOM      2  C   UNL     1       4.693   3.489  16.965  0.00  0.00    +0.000 A 
ATOM      3  C   UNL     1       3.496   3.400  17.812  0.00  0.00    +0.000 A 
ATOM      4  C   UNL     1       2.713   2.240  17.821  0.00  0.00    +0.000 A 
ATOM      5  C   UNL     1       1.580   2.178  18.633  0.00  0.00    +0.000 A 
ATOM      6  C   UNL     1       1.246   3.275  19.423  0.00  0.00    +0.000 A 
ATOM      7  C   UNL     1       2.024   4.431  19.416  0.00  0.00    +0.000 A 
ATOM      8  C   UNL     1       3.159   4.497  18.607  0.00  0.00    +0.000 A 
ATOM      9  O   UNL     1       3.884   5.662  18.649  0.00  0.00    +0.000 OA
ATOM     10  C   UNL     1       5.015   5.757  17.870  0.00  0.00    +0.000 A 
ATOM     11  C   UNL     1       5.731   6.958  17.950  0.00  0.00    +0.000 A 
ATOM     12  C   UNL     1       6.889   7.135  17.186  0.00  0.00    +0.000 A 
ATOM     13  C   UNL     1       7.310   6.115  16.327  0.00  0.00    +0.000 A 
ATOM     14  C   UNL     1       6.605   4.913  16.250  0.00  0.00    +0.000 A 
ATOM     15  C   UNL     1       5.457   4.741  17.025  0.00  0.00    +0.000 A 
ENDROOT
BRANCH   6  16
ATOM     16  O   UNL     1       0.148   3.253  20.231  0.00  0.00    +0.000 OA
ATOM     17  H   UNL     1      -0.617   3.578  19.729  0.00  0.00    +0.000 HD
ENDBRANCH   6  16
BRANCH  12  18
ATOM     18  O   UNL     1       7.655   8.269  17.157  0.00  0.00    +0.000 OA
BRANCH  18  19
ATOM     19  C   UNL     1       8.361   8.595  18.359  0.00  0.00    +0.000 C 
BRANCH  19  20
ATOM     20  C   UNL     1       8.896  10.023  18.223  0.00  0.00    +0.000 C 
BRANCH  20  21
ATOM     21  C   UNL     1       9.330  10.595  19.576  0.00  0.00    +0.000 C 
BRANCH  21  22
ATOM     22  N   UNL     1      10.047  11.864  19.413  0.00  0.00    +0.000 NA
ATOM     23  C   UNL     1      10.285  12.247  18.015  0.00  0.00    +0.000 C 
ATOM     24  C   UNL     1      11.791  12.368  17.851  0.00  0.00    +0.000 C 
ATOM     25  C   UNL     1      12.279  12.677  19.248  0.00  0.00    +0.000 C 
ATOM     26  C   UNL     1      11.326  11.890  20.130  0.00  0.00    +0.000 C 
ENDBRANCH  21  22
ENDBRANCH  20  21
ENDBRANCH  19  20
ENDBRANCH  18  19
ENDBRANCH  12  18
TORSDOF 6
ENDMDL
