MODEL 1
REMARK VINA RESULT:      -7.7      0.000      0.000
REMARK  Name = 
REMARK  7 active torsions:
REMARK  status: ('A' for Active; 'I' for Inactive)
REMARK    1  A    between atoms: C_1  and  C_2
REMARK    2  A    between atoms: C_2  and  O_3
REMARK    3  A    between atoms: O_3  and  C_4
REMARK    4  A    between atoms: C_4  and  C_6
REMARK    5  A    between atoms: C_7  and  C_8
REMARK    6  A    between atoms: C_10  and  C_11
REMARK    7  A    between atoms: C_22  and  C_23
REMARK                            x       y       z     vdW  Elec       q    Type
REMARK                         _______ _______ _______ _____ _____    ______ ____
ROOT
ATOM      1  C   UNL     1       2.920   3.498  19.539  0.00  0.00    +0.000 A 
ATOM      2  C   UNL     1       4.090   2.745  19.641  0.00  0.00    +0.000 A 
ATOM      3  C   UNL     1       4.750   2.019  20.761  0.00  0.00    +0.000 C 
ATOM      4  N   UNL     1       4.671   2.710  18.393  0.00  0.00    +0.000 N 
ATOM      5  C   UNL     1       3.912   3.401  17.488  0.00  0.00    +0.000 A 
ATOM      6  C   UNL     1       2.834   3.940  18.165  0.00  0.00    +0.000 A 
ATOM      7  C   UNL     1       1.750   4.784  17.585  0.00  0.00    +0.000 C 
ATOM      8  H   UNL     1       5.517   2.203  18.169  0.00  0.00    +0.000 HD
ENDROOT
BRANCH   5   9
ATOM      9  C   UNL     1       4.315   3.419  16.132  0.00  0.00    +0.000 C 
ATOM     10  C   UNL     1       5.354   4.160  15.712  0.00  0.00    +0.000 C 
ATOM     11  C   UNL     1       6.186   5.110  16.548  0.00  0.00    +0.000 C 
ATOM     12  O   UNL     1       6.031   5.469  17.699  0.00  0.00    +0.000 OA
ATOM     13  N   UNL     1       7.188   5.545  15.695  0.00  0.00    +0.000 N 
ATOM     14  C   UNL     1       7.046   5.010  14.421  0.00  0.00    +0.000 A 
ATOM     15  C   UNL     1       7.858   5.258  13.334  0.00  0.00    +0.000 A 
ATOM     16  C   UNL     1       7.530   4.631  12.132  0.00  0.00    +0.000 A 
ATOM     17  C   UNL     1       6.410   3.784  12.050  0.00  0.00    +0.000 A 
ATOM     18  C   UNL     1       5.601   3.542  13.170  0.00  0.00    +0.000 A 
ATOM     19  C   UNL     1       5.931   4.165  14.360  0.00  0.00    +0.000 A 
ATOM     20  H   UNL     1       7.899   6.196  15.991  0.00  0.00    +0.000 HD
ENDBRANCH   5   9
BRANCH   1  21
ATOM     21  C   UNL     1       1.953   3.832  20.593  0.00  0.00    +0.000 C 
ATOM     22  O   UNL     1       0.949   3.164  20.820  0.00  0.00    +0.000 OA
BRANCH  21  23
ATOM     23  O   UNL     1       2.230   5.006  21.230  0.00  0.00    +0.000 OA
BRANCH  23  25
ATOM     24  C   UNL     1       2.195   7.136  20.164  0.00  0.00    +0.000 C 
ATOM     25  C   UNL     1       1.367   6.100  20.903  0.00  0.00    +0.000 C 
ENDBRANCH  23  25
ENDBRANCH  21  23
ENDBRANCH   1  21
TORSDOF 4
ENDMDL
MODEL 2
REMARK VINA RESULT:      -7.4      2.698      7.236
REMARK  Name = 
REMARK  7 active torsions:
REMARK  status: ('A' for Active; 'I' for Inactive)
REMARK    1  A    between atoms: C_1  and  C_2
REMARK    2  A    between atoms: C_2  and  O_3
REMARK    3  A    between atoms: O_3  and  C_4
REMARK    4  A    between atoms: C_4  and  C_6
REMARK    5  A    between atoms: C_7  and  C_8
REMARK    6  A    between atoms: C_10  and  C_11
REMARK    7  A    between atoms: C_22  and  C_23
REMARK                            x       y       z     vdW  Elec       q    Type
REMARK                         _______ _______ _______ _____ _____    ______ ____
ROOT
ATOM      1  C   UNL     1       5.829   5.052  17.367  0.00  0.00    +0.000 A 
ATOM      2  C   UNL     1       4.638   4.327  17.415  0.00  0.00    +0.000 A 
ATOM      3  C   UNL     1       4.321   2.873  17.449  0.00  0.00    +0.000 C 
ATOM      4  N   UNL     1       3.602   5.234  17.457  0.00  0.00    +0.000 N 
ATOM      5  C   UNL     1       4.082   6.515  17.451  0.00  0.00    +0.000 A 
ATOM      6  C   UNL     1       5.459   6.450  17.357  0.00  0.00    +0.000 A 
ATOM      7  C   UNL     1       6.403   7.603  17.302  0.00  0.00    +0.000 C 
ATOM      8  H   UNL     1       2.625   4.984  17.530  0.00  0.00    +0.000 HD
ENDROOT
BRANCH   5   9
ATOM      9  C   UNL     1       3.165   7.588  17.558  0.00  0.00    +0.000 C 
ATOM     10  C   UNL     1       2.441   7.791  18.671  0.00  0.00    +0.000 C 
ATOM     11  C   UNL     1       2.419   6.920  19.910  0.00  0.00    +0.000 C 
ATOM     12  O   UNL     1       2.946   5.843  20.110  0.00  0.00    +0.000 OA
ATOM     13  N   UNL     1       1.609   7.600  20.805  0.00  0.00    +0.000 N 
ATOM     14  C   UNL     1       1.094   8.765  20.249  0.00  0.00    +0.000 A 
ATOM     15  C   UNL     1       0.239   9.656  20.863  0.00  0.00    +0.000 A 
ATOM     16  C   UNL     1      -0.178  10.760  20.120  0.00  0.00    +0.000 A 
ATOM     17  C   UNL     1       0.267  10.941  18.798  0.00  0.00    +0.000 A 
ATOM     18  C   UNL     1       1.142  10.025  18.195  0.00  0.00    +0.000 A 
ATOM     19  C   UNL     1       1.552   8.932  18.937  0.00  0.00    +0.000 A 
ATOM     20  H   UNL     1       1.415   7.246  21.728  0.00  0.00    +0.000 HD
ENDBRANCH   5   9
BRANCH   1  21
ATOM     21  C   UNL     1       7.206   4.544  17.304  0.00  0.00    +0.000 C 
ATOM     22  O   UNL     1       7.884   4.317  18.301  0.00  0.00    +0.000 OA
BRANCH  21  23
ATOM     23  O   UNL     1       7.687   4.441  16.033  0.00  0.00    +0.000 OA
BRANCH  23  25
ATOM     24  C   UNL     1       7.039   4.927  13.792  0.00  0.00    +0.000 C 
ATOM     25  C   UNL     1       6.718   4.112  15.033  0.00  0.00    +0.000 C 
ENDBRANCH  23  25
ENDBRANCH  21  23
ENDBRANCH   1  21
TORSDOF 4
ENDMDL
MODEL 3
REMARK VINA RESULT:      -7.2      0.905      1.404
REMARK  Name = 
REMARK  7 active torsions:
REMARK  status: ('A' for Active; 'I' for Inactive)
REMARK    1  A    between atoms: C_1  and  C_2
REMARK    2  A    between atoms: C_2  and  O_3
REMARK    3  A    between atoms: O_3  and  C_4
REMARK    4  A    between atoms: C_4  and  C_6
REMARK    5  A    between atoms: C_7  and  C_8
REMARK    6  A    between atoms: C_10  and  C_11
REMARK    7  A    between atoms: C_22  and  C_23
REMARK                            x       y       z     vdW  Elec       q    Type
REMARK                         _______ _______ _______ _____ _____    ______ ____
ROOT
ATOM      1  C   UNL     1       3.325   3.960  19.700  0.00  0.00    +0.000 A 
ATOM      2  C   UNL     1       4.265   2.929  19.704  0.00  0.00    +0.000 A 
ATOM      3  C   UNL     1       4.787   2.019  20.762  0.00  0.00    +0.000 C 
ATOM      4  N   UNL     1       4.736   2.789  18.417  0.00  0.00    +0.000 N 
ATOM      5  C   UNL     1       4.124   3.683  17.581  0.00  0.00    +0.000 A 
ATOM      6  C   UNL     1       3.268   4.456  18.343  0.00  0.00    +0.000 A 
ATOM      7  C   UNL     1       2.403   5.569  17.856  0.00  0.00    +0.000 C 
ATOM      8  H   UNL     1       5.406   2.091  18.125  0.00  0.00    +0.000 HD
ENDROOT
BRANCH   5   9
ATOM      9  C   UNL     1       4.430   3.645  16.200  0.00  0.00    +0.000 C 
ATOM     10  C   UNL     1       5.491   4.292  15.692  0.00  0.00    +0.000 C 
ATOM     11  C   UNL     1       6.454   5.186  16.446  0.00  0.00    +0.000 C 
ATOM     12  O   UNL     1       6.410   5.578  17.595  0.00  0.00    +0.000 OA
ATOM     13  N   UNL     1       7.423   5.525  15.515  0.00  0.00    +0.000 N 
ATOM     14  C   UNL     1       7.149   4.980  14.266  0.00  0.00    +0.000 A 
ATOM     15  C   UNL     1       7.899   5.142  13.121  0.00  0.00    +0.000 A 
ATOM     16  C   UNL     1       7.437   4.523  11.959  0.00  0.00    +0.000 A 
ATOM     17  C   UNL     1       6.251   3.768  11.975  0.00  0.00    +0.000 A 
ATOM     18  C   UNL     1       5.507   3.611  13.154  0.00  0.00    +0.000 A 
ATOM     19  C   UNL     1       5.969   4.227  14.303  0.00  0.00    +0.000 A 
ATOM     20  H   UNL     1       8.202   6.121  15.745  0.00  0.00    +0.000 HD
ENDBRANCH   5   9
BRANCH   1  21
ATOM     21  C   UNL     1       2.548   4.493  20.826  0.00  0.00    +0.000 C 
ATOM     22  O   UNL     1       2.208   5.669  20.911  0.00  0.00    +0.000 OA
BRANCH  21  23
ATOM     23  O   UNL     1       2.324   3.577  21.811  0.00  0.00    +0.000 OA
BRANCH  23  25
ATOM     24  C   UNL     1       0.561   3.089  20.285  0.00  0.00    +0.000 C 
ATOM     25  C   UNL     1       1.255   2.659  21.566  0.00  0.00    +0.000 C 
ENDBRANCH  23  25
ENDBRANCH  21  23
ENDBRANCH   1  21
TORSDOF 4
ENDMDL
MODEL 4
REMARK VINA RESULT:      -7.2      3.635      7.929
REMARK  Name = 
REMARK  7 active torsions:
REMARK  status: ('A' for Active; 'I' for Inactive)
REMARK    1  A    between atoms: C_1  and  C_2
REMARK    2  A    between atoms: C_2  and  O_3
REMARK    3  A    between atoms: O_3  and  C_4
REMARK    4  A    between atoms: C_4  and  C_6
REMARK    5  A    between atoms: C_7  and  C_8
REMARK    6  A    between atoms: C_10  and  C_11
REMARK    7  A    between atoms: C_22  and  C_23
REMARK                            x       y       z     vdW  Elec       q    Type
REMARK                         _______ _______ _______ _____ _____    ______ ____
ROOT
ATOM      1  C   UNL     1       2.969   4.822  18.274  0.00  0.00    +0.000 A 
ATOM      2  C   UNL     1       3.783   5.944  18.115  0.00  0.00    +0.000 A 
ATOM      3  C   UNL     1       4.892   6.284  17.181  0.00  0.00    +0.000 C 
ATOM      4  N   UNL     1       3.388   6.880  19.045  0.00  0.00    +0.000 N 
ATOM      5  C   UNL     1       2.341   6.407  19.789  0.00  0.00    +0.000 A 
ATOM      6  C   UNL     1       2.073   5.118  19.370  0.00  0.00    +0.000 A 
ATOM      7  C   UNL     1       1.022   4.207  19.910  0.00  0.00    +0.000 C 
ATOM      8  H   UNL     1       3.787   7.805  19.132  0.00  0.00    +0.000 HD
ENDROOT
BRANCH   5   9
ATOM      9  C   UNL     1       1.752   7.258  20.755  0.00  0.00    +0.000 C 
ATOM     10  C   UNL     1       1.167   8.417  20.414  0.00  0.00    +0.000 C 
ATOM     11  C   UNL     1       1.098   9.025  19.029  0.00  0.00    +0.000 C 
ATOM     12  O   UNL     1       1.627   8.664  17.997  0.00  0.00    +0.000 OA
ATOM     13  N   UNL     1       0.308  10.154  19.178  0.00  0.00    +0.000 N 
ATOM     14  C   UNL     1      -0.082  10.337  20.499  0.00  0.00    +0.000 A 
ATOM     15  C   UNL     1      -0.850  11.372  20.989  0.00  0.00    +0.000 A 
ATOM     16  C   UNL     1      -1.115  11.382  22.358  0.00  0.00    +0.000 A 
ATOM     17  C   UNL     1      -0.609  10.367  23.191  0.00  0.00    +0.000 A 
ATOM     18  C   UNL     1       0.165   9.321  22.670  0.00  0.00    +0.000 A 
ATOM     19  C   UNL     1       0.424   9.316  21.311  0.00  0.00    +0.000 A 
ATOM     20  H   UNL     1       0.090  10.762  18.404  0.00  0.00    +0.000 HD
ENDBRANCH   5   9
BRANCH   1  21
ATOM     21  C   UNL     1       2.998   3.559  17.527  0.00  0.00    +0.000 C 
ATOM     22  O   UNL     1       2.136   3.239  16.714  0.00  0.00    +0.000 OA
BRANCH  21  23
ATOM     23  O   UNL     1       4.021   2.736  17.895  0.00  0.00    +0.000 OA
BRANCH  23  25
ATOM     24  C   UNL     1       4.436   2.112  20.157  0.00  0.00    +0.000 C 
ATOM     25  C   UNL     1       3.694   1.752  18.882  0.00  0.00    +0.000 C 
ENDBRANCH  23  25
ENDBRANCH  21  23
ENDBRANCH   1  21
TORSDOF 4
ENDMDL
MODEL 5
REMARK VINA RESULT:      -7.1      3.257      7.228
REMARK  Name = 
REMARK  7 active torsions:
REMARK  status: ('A' for Active; 'I' for Inactive)
REMARK    1  A    between atoms: C_1  and  C_2
REMARK    2  A    between atoms: C_2  and  O_3
REMARK    3  A    between atoms: O_3  and  C_4
REMARK    4  A    between atoms: C_4  and  C_6
REMARK    5  A    between atoms: C_7  and  C_8
REMARK    6  A    between atoms: C_10  and  C_11
REMARK    7  A    between atoms: C_22  and  C_23
REMARK                            x       y       z     vdW  Elec       q    Type
REMARK                         _______ _______ _______ _____ _____    ______ ____
ROOT
ATOM      1  C   UNL     1       3.973   4.579  18.134  0.00  0.00    +0.000 A 
ATOM      2  C   UNL     1       4.923   5.260  18.897  0.00  0.00    +0.000 A 
ATOM      3  C   UNL     1       6.401   5.143  19.041  0.00  0.00    +0.000 C 
ATOM      4  N   UNL     1       4.260   6.231  19.615  0.00  0.00    +0.000 N 
ATOM      5  C   UNL     1       2.922   6.210  19.333  0.00  0.00    +0.000 A 
ATOM      6  C   UNL     1       2.693   5.175  18.446  0.00  0.00    +0.000 A 
ATOM      7  C   UNL     1       1.378   4.768  17.874  0.00  0.00    +0.000 C 
ATOM      8  H   UNL     1       4.711   6.896  20.229  0.00  0.00    +0.000 HD
ENDROOT
BRANCH   5   9
ATOM      9  C   UNL     1       2.084   7.184  19.927  0.00  0.00    +0.000 C 
ATOM     10  C   UNL     1       1.774   8.329  19.298  0.00  0.00    +0.000 C 
ATOM     11  C   UNL     1       2.291   8.793  17.952  0.00  0.00    +0.000 C 
ATOM     12  O   UNL     1       3.142   8.301  17.237  0.00  0.00    +0.000 OA
ATOM     13  N   UNL     1       1.604   9.969  17.696  0.00  0.00    +0.000 N 
ATOM     14  C   UNL     1       0.757  10.307  18.744  0.00  0.00    +0.000 A 
ATOM     15  C   UNL     1      -0.048  11.424  18.817  0.00  0.00    +0.000 A 
ATOM     16  C   UNL     1      -0.814  11.589  19.971  0.00  0.00    +0.000 A 
ATOM     17  C   UNL     1      -0.752  10.642  21.010  0.00  0.00    +0.000 A 
ATOM     18  C   UNL     1       0.070   9.510  20.912  0.00  0.00    +0.000 A 
ATOM     19  C   UNL     1       0.826   9.352  19.765  0.00  0.00    +0.000 A 
ATOM     20  H   UNL     1       1.751  10.503  16.854  0.00  0.00    +0.000 HD
ENDBRANCH   5   9
BRANCH   1  21
ATOM     21  C   UNL     1       4.178   3.457  17.210  0.00  0.00    +0.000 C 
ATOM     22  O   UNL     1       4.093   2.281  17.552  0.00  0.00    +0.000 OA
BRANCH  21  23
ATOM     23  O   UNL     1       4.564   3.847  15.962  0.00  0.00    +0.000 OA
BRANCH  23  25
ATOM     24  C   UNL     1       6.220   4.371  14.331  0.00  0.00    +0.000 C 
ATOM     25  C   UNL     1       5.965   3.749  15.693  0.00  0.00    +0.000 C 
ENDBRANCH  23  25
ENDBRANCH  21  23
ENDBRANCH   1  21
TORSDOF 4
ENDMDL
MODEL 6
REMARK VINA RESULT:      -7.1      3.060      7.377
REMARK  Name = 
REMARK  7 active torsions:
REMARK  status: ('A' for Active; 'I' for Inactive)
REMARK    1  A    between atoms: C_1  and  C_2
REMARK    2  A    between atoms: C_2  and  O_3
REMARK    3  A    between atoms: O_3  and  C_4
REMARK    4  A    between atoms: C_4  and  C_6
REMARK    5  A    between atoms: C_7  and  C_8
REMARK    6  A    between atoms: C_10  and  C_11
REMARK    7  A    between atoms: C_22  and  C_23
REMARK                            x       y       z     vdW  Elec       q    Type
REMARK                         _______ _______ _______ _____ _____    ______ ____
ROOT
ATOM      1  C   UNL     1       4.347   4.922  17.360  0.00  0.00    +0.000 A 
ATOM      2  C   UNL     1       3.079   4.398  17.619  0.00  0.00    +0.000 A 
ATOM      3  C   UNL     1       2.543   3.013  17.731  0.00  0.00    +0.000 C 
ATOM      4  N   UNL     1       2.224   5.460  17.815  0.00  0.00    +0.000 N 
ATOM      5  C   UNL     1       2.895   6.647  17.705  0.00  0.00    +0.000 A 
ATOM      6  C   UNL     1       4.209   6.361  17.385  0.00  0.00    +0.000 A 
ATOM      7  C   UNL     1       5.304   7.347  17.154  0.00  0.00    +0.000 C 
ATOM      8  H   UNL     1       1.245   5.370  18.053  0.00  0.00    +0.000 HD
ENDROOT
BRANCH   5   9
ATOM      9  C   UNL     1       2.193   7.852  17.943  0.00  0.00    +0.000 C 
ATOM     10  C   UNL     1       1.749   8.183  19.166  0.00  0.00    +0.000 C 
ATOM     11  C   UNL     1       1.846   7.344  20.423  0.00  0.00    +0.000 C 
ATOM     12  O   UNL     1       2.233   6.200  20.564  0.00  0.00    +0.000 OA
ATOM     13  N   UNL     1       1.347   8.156  21.429  0.00  0.00    +0.000 N 
ATOM     14  C   UNL     1       0.913   9.380  20.933  0.00  0.00    +0.000 A 
ATOM     15  C   UNL     1       0.346  10.403  21.663  0.00  0.00    +0.000 A 
ATOM     16  C   UNL     1      -0.040  11.549  20.968  0.00  0.00    +0.000 A 
ATOM     17  C   UNL     1       0.150  11.638  19.577  0.00  0.00    +0.000 A 
ATOM     18  C   UNL     1       0.735  10.588  18.856  0.00  0.00    +0.000 A 
ATOM     19  C   UNL     1       1.117   9.454  19.550  0.00  0.00    +0.000 A 
ATOM     20  H   UNL     1       1.292   7.850  22.388  0.00  0.00    +0.000 HD
ENDBRANCH   5   9
BRANCH   1  21
ATOM     21  C   UNL     1       5.594   4.199  17.080  0.00  0.00    +0.000 C 
ATOM     22  O   UNL     1       5.829   3.656  16.005  0.00  0.00    +0.000 OA
BRANCH  21  23
ATOM     23  O   UNL     1       6.422   4.109  18.160  0.00  0.00    +0.000 OA
BRANCH  23  25
ATOM     24  C   UNL     1       7.871   5.743  19.113  0.00  0.00    +0.000 C 
ATOM     25  C   UNL     1       7.706   4.719  18.003  0.00  0.00    +0.000 C 
ENDBRANCH  23  25
ENDBRANCH  21  23
ENDBRANCH   1  21
TORSDOF 4
ENDMDL
MODEL 7
REMARK VINA RESULT:      -6.8      3.432      7.096
REMARK  Name = 
REMARK  7 active torsions:
REMARK  status: ('A' for Active; 'I' for Inactive)
REMARK    1  A    between atoms: C_1  and  C_2
REMARK    2  A    between atoms: C_2  and  O_3
REMARK    3  A    between atoms: O_3  and  C_4
REMARK    4  A    between atoms: C_4  and  C_6
REMARK    5  A    between atoms: C_7  and  C_8
REMARK    6  A    between atoms: C_10  and  C_11
REMARK    7  A    between atoms: C_22  and  C_23
REMARK                            x       y       z     vdW  Elec       q    Type
REMARK                         _______ _______ _______ _____ _____    ______ ____
ROOT
ATOM      1  C   UNL     1       3.906   4.639  18.137  0.00  0.00    +0.000 A 
ATOM      2  C   UNL     1       4.842   5.266  18.960  0.00  0.00    +0.000 A 
ATOM      3  C   UNL     1       6.307   5.096  19.164  0.00  0.00    +0.000 C 
ATOM      4  N   UNL     1       4.179   6.238  19.677  0.00  0.00    +0.000 N 
ATOM      5  C   UNL     1       2.854   6.269  19.337  0.00  0.00    +0.000 A 
ATOM      6  C   UNL     1       2.632   5.267  18.411  0.00  0.00    +0.000 A 
ATOM      7  C   UNL     1       1.331   4.920  17.771  0.00  0.00    +0.000 C 
ATOM      8  H   UNL     1       4.623   6.871  20.329  0.00  0.00    +0.000 HD
ENDROOT
BRANCH   5   9
ATOM      9  C   UNL     1       2.023   7.253  19.922  0.00  0.00    +0.000 C 
ATOM     10  C   UNL     1       1.733   8.402  19.290  0.00  0.00    +0.000 C 
ATOM     11  C   UNL     1       2.268   8.859  17.949  0.00  0.00    +0.000 C 
ATOM     12  O   UNL     1       3.119   8.356  17.242  0.00  0.00    +0.000 OA
ATOM     13  N   UNL     1       1.598  10.043  17.686  0.00  0.00    +0.000 N 
ATOM     14  C   UNL     1       0.745  10.391  18.726  0.00  0.00    +0.000 A 
ATOM     15  C   UNL     1      -0.048  11.518  18.790  0.00  0.00    +0.000 A 
ATOM     16  C   UNL     1      -0.823  11.692  19.937  0.00  0.00    +0.000 A 
ATOM     17  C   UNL     1      -0.783  10.745  20.977  0.00  0.00    +0.000 A 
ATOM     18  C   UNL     1       0.027   9.604  20.887  0.00  0.00    +0.000 A 
ATOM     19  C   UNL     1       0.792   9.436  19.747  0.00  0.00    +0.000 A 
ATOM     20  H   UNL     1       1.759  10.575  16.845  0.00  0.00    +0.000 HD
ENDBRANCH   5   9
BRANCH   1  21
ATOM     21  C   UNL     1       4.115   3.536  17.190  0.00  0.00    +0.000 C 
ATOM     22  O   UNL     1       4.861   3.617  16.219  0.00  0.00    +0.000 OA
BRANCH  21  23
ATOM     23  O   UNL     1       3.328   2.451  17.440  0.00  0.00    +0.000 OA
BRANCH  23  25
ATOM     24  C   UNL     1       2.019   1.753  19.304  0.00  0.00    +0.000 C 
ATOM     25  C   UNL     1       3.428   1.910  18.760  0.00  0.00    +0.000 C 
ENDBRANCH  23  25
ENDBRANCH  21  23
ENDBRANCH   1  21
TORSDOF 4
ENDMDL
MODEL 8
REMARK VINA RESULT:      -6.6      2.902      7.476
REMARK  Name = 
REMARK  7 active torsions:
REMARK  status: ('A' for Active; 'I' for Inactive)
REMARK    1  A    between atoms: C_1  and  C_2
REMARK    2  A    between atoms: C_2  and  O_3
REMARK    3  A    between atoms: O_3  and  C_4
REMARK    4  A    between atoms: C_4  and  C_6
REMARK    5  A    between atoms: C_7  and  C_8
REMARK    6  A    between atoms: C_10  and  C_11
REMARK    7  A    between atoms: C_22  and  C_23
REMARK                            x       y       z     vdW  Elec       q    Type
REMARK                         _______ _______ _______ _____ _____    ______ ____
ROOT
ATOM      1  C   UNL     1       4.959   4.903  16.819  0.00  0.00    +0.000 A 
ATOM      2  C   UNL     1       5.815   5.893  17.302  0.00  0.00    +0.000 A 
ATOM      3  C   UNL     1       7.197   6.320  16.946  0.00  0.00    +0.000 C 
ATOM      4  N   UNL     1       5.146   6.571  18.297  0.00  0.00    +0.000 N 
ATOM      5  C   UNL     1       3.887   6.063  18.464  0.00  0.00    +0.000 A 
ATOM      6  C   UNL     1       3.741   5.000  17.592  0.00  0.00    +0.000 A 
ATOM      7  C   UNL     1       2.536   4.136  17.436  0.00  0.00    +0.000 C 
ATOM      8  H   UNL     1       5.520   7.364  18.801  0.00  0.00    +0.000 HD
ENDROOT
BRANCH   5   9
ATOM      9  C   UNL     1       3.021   6.678  19.400  0.00  0.00    +0.000 C 
ATOM     10  C   UNL     1       2.326   7.786  19.098  0.00  0.00    +0.000 C 
ATOM     11  C   UNL     1       2.392   8.574  17.806  0.00  0.00    +0.000 C 
ATOM     12  O   UNL     1       3.134   8.440  16.853  0.00  0.00    +0.000 OA
ATOM     13  N   UNL     1       1.422   9.555  17.941  0.00  0.00    +0.000 N 
ATOM     14  C   UNL     1       0.796   9.491  19.180  0.00  0.00    +0.000 A 
ATOM     15  C   UNL     1      -0.195  10.332  19.640  0.00  0.00    +0.000 A 
ATOM     16  C   UNL     1      -0.680  10.108  20.929  0.00  0.00    +0.000 A 
ATOM     17  C   UNL     1      -0.166   9.060  21.713  0.00  0.00    +0.000 A 
ATOM     18  C   UNL     1       0.838   8.212  21.222  0.00  0.00    +0.000 A 
ATOM     19  C   UNL     1       1.315   8.439  19.944  0.00  0.00    +0.000 A 
ATOM     20  H   UNL     1       1.242  10.234  17.219  0.00  0.00    +0.000 HD
ENDBRANCH   5   9
BRANCH   1  21
ATOM     21  C   UNL     1       5.209   3.915  15.762  0.00  0.00    +0.000 C 
ATOM     22  O   UNL     1       5.443   2.732  15.989  0.00  0.00    +0.000 OA
BRANCH  21  23
ATOM     23  O   UNL     1       5.251   4.458  14.512  0.00  0.00    +0.000 OA
BRANCH  23  25
ATOM     24  C   UNL     1       5.751   3.358  12.458  0.00  0.00    +0.000 C 
ATOM     25  C   UNL     1       6.339   4.025  13.689  0.00  0.00    +0.000 C 
ENDBRANCH  23  25
ENDBRANCH  21  23
ENDBRANCH   1  21
TORSDOF 4
ENDMDL
MODEL 9
REMARK VINA RESULT:      -6.5      5.151      7.708
REMARK  Name = 
REMARK  7 active torsions:
REMARK  status: ('A' for Active; 'I' for Inactive)
REMARK    1  A    between atoms: C_1  and  C_2
REMARK    2  A    between atoms: C_2  and  O_3
REMARK    3  A    between atoms: O_3  and  C_4
REMARK    4  A    between atoms: C_4  and  C_6
REMARK    5  A    between atoms: C_7  and  C_8
REMARK    6  A    between atoms: C_10  and  C_11
REMARK    7  A    between atoms: C_22  and  C_23
REMARK                            x       y       z     vdW  Elec       q    Type
REMARK                         _______ _______ _______ _____ _____    ______ ____
ROOT
ATOM      1  C   UNL     1      -0.858  11.512  18.982  0.00  0.00    +0.000 A 
ATOM      2  C   UNL     1      -1.507  10.626  18.121  0.00  0.00    +0.000 A 
ATOM      3  C   UNL     1      -2.905  10.523  17.616  0.00  0.00    +0.000 C 
ATOM      4  N   UNL     1      -0.576   9.707  17.691  0.00  0.00    +0.000 N 
ATOM      5  C   UNL     1       0.652   9.976  18.231  0.00  0.00    +0.000 A 
ATOM      6  C   UNL     1       0.515  11.066  19.070  0.00  0.00    +0.000 A 
ATOM      7  C   UNL     1       1.590  11.703  19.884  0.00  0.00    +0.000 C 
ATOM      8  H   UNL     1      -0.766   8.966  17.029  0.00  0.00    +0.000 HD
ENDROOT
BRANCH   5   9
ATOM      9  C   UNL     1       1.755   9.176  17.849  0.00  0.00    +0.000 C 
ATOM     10  C   UNL     1       2.201   8.171  18.619  0.00  0.00    +0.000 C 
ATOM     11  C   UNL     1       1.683   7.779  19.988  0.00  0.00    +0.000 C 
ATOM     12  O   UNL     1       0.864   8.333  20.694  0.00  0.00    +0.000 OA
ATOM     13  N   UNL     1       2.386   6.631  20.316  0.00  0.00    +0.000 N 
ATOM     14  C   UNL     1       3.307   6.294  19.331  0.00  0.00    +0.000 A 
ATOM     15  C   UNL     1       4.178   5.225  19.358  0.00  0.00    +0.000 A 
ATOM     16  C   UNL     1       5.039   5.073  18.271  0.00  0.00    +0.000 A 
ATOM     17  C   UNL     1       5.006   5.984  17.200  0.00  0.00    +0.000 A 
ATOM     18  C   UNL     1       4.107   7.061  17.191  0.00  0.00    +0.000 A 
ATOM     19  C   UNL     1       3.255   7.207  18.271  0.00  0.00    +0.000 A 
ATOM     20  H   UNL     1       2.242   6.145  21.187  0.00  0.00    +0.000 HD
ENDBRANCH   5   9
BRANCH   1  21
ATOM     21  C   UNL     1      -1.418  12.661  19.704  0.00  0.00    +0.000 C 
ATOM     22  O   UNL     1      -1.100  13.822  19.468  0.00  0.00    +0.000 OA
BRANCH  21  23
ATOM     23  O   UNL     1      -2.252  12.306  20.722  0.00  0.00    +0.000 OA
BRANCH  23  25
ATOM     24  C   UNL     1      -1.144  11.466  22.657  0.00  0.00    +0.000 C 
ATOM     25  C   UNL     1      -1.815  12.677  22.033  0.00  0.00    +0.000 C 
ENDBRANCH  23  25
ENDBRANCH  21  23
ENDBRANCH   1  21
TORSDOF 4
ENDMDL
