MODEL 1
REMARK VINA RESULT:      -7.7      0.000      0.000
REMARK  Name = 
REMARK  8 active torsions:
REMARK  status: ('A' for Active; 'I' for Inactive)
REMARK    1  A    between atoms: C_1  and  O_2
REMARK    2  A    between atoms: O_2  and  C_3
REMARK    3  A    between atoms: C_5  and  C_6
REMARK    4  A    between atoms: C_10  and  O_11
REMARK    5  A    between atoms: O_11  and  C_12
REMARK    6  A    between atoms: C_12  and  C_14
REMARK    7  A    between atoms: N_16  and  C_17
REMARK    8  A    between atoms: C_24  and  C_25
REMARK                            x       y       z     vdW  Elec       q    Type
REMARK                         _______ _______ _______ _____ _____    ______ ____
ROOT
ATOM      1  C   UNL     1       4.424   6.187  16.958  0.00  0.00    +0.000 A 
ATOM      2  C   UNL     1       5.241   6.210  15.845  0.00  0.00    +0.000 A 
ATOM      3  N   UNL     1       5.308   4.925  15.367  0.00  0.00    +0.000 N 
ATOM      4  N   UNL     1       4.696   4.056  16.211  0.00  0.00    +0.000 NA
ATOM      5  C   UNL     1       4.165   4.809  17.188  0.00  0.00    +0.000 A 
ENDROOT
BRANCH   5   6
ATOM      6  C   UNL     1       3.427   4.188  18.294  0.00  0.00    +0.000 A 
ATOM      7  C   UNL     1       4.076   3.856  19.495  0.00  0.00    +0.000 A 
ATOM      8  C   UNL     1       3.363   3.307  20.564  0.00  0.00    +0.000 A 
ATOM      9  C   UNL     1       2.000   3.057  20.430  0.00  0.00    +0.000 A 
ATOM     10 CL   UNL     1       1.123   2.387  21.747  0.00  0.00    +0.000 Cl
ATOM     11  C   UNL     1       1.346   3.347  19.233  0.00  0.00    +0.000 A 
ATOM     12  C   UNL     1       2.058   3.911  18.169  0.00  0.00    +0.000 A 
ENDBRANCH   5   6
BRANCH   3  13
ATOM     13  C   UNL     1       5.877   4.483  14.139  0.00  0.00    +0.000 A 
ATOM     14  C   UNL     1       7.122   4.961  13.703  0.00  0.00    +0.000 A 
ATOM     15  C   UNL     1       7.649   4.530  12.482  0.00  0.00    +0.000 A 
ATOM     16  C   UNL     1       6.941   3.629  11.690  0.00  0.00    +0.000 A 
ATOM     17  C   UNL     1       5.702   3.151  12.116  0.00  0.00    +0.000 A 
ATOM     18  C   UNL     1       5.171   3.572  13.337  0.00  0.00    +0.000 A 
ENDBRANCH   3  13
BRANCH   1  19
ATOM     19  C   UNL     1       3.896   7.369  17.616  0.00  0.00    +0.000 C 
ATOM     20  O   UNL     1       4.567   8.353  17.893  0.00  0.00    +0.000 OA
BRANCH  19  21
ATOM     21  O   UNL     1       2.521   7.262  17.798  0.00  0.00    +0.000 OA
BRANCH  21  27
ATOM     22  C   UNL     1       1.435   9.100  19.023  0.00  0.00    +0.000 A 
ATOM     23  C   UNL     1       0.870   9.543  20.219  0.00  0.00    +0.000 A 
ATOM     24  C   UNL     1       0.801   8.686  21.322  0.00  0.00    +0.000 A 
ATOM     25  C   UNL     1       1.309   7.386  21.255  0.00  0.00    +0.000 A 
ATOM     26  C   UNL     1       1.920   6.949  20.078  0.00  0.00    +0.000 A 
ATOM     27  C   UNL     1       2.004   7.812  18.984  0.00  0.00    +0.000 A 
BRANCH  22  29
ATOM     28  C   UNL     1       2.160  11.054  17.872  0.00  0.00    +0.000 C 
ATOM     29  O   UNL     1       1.449   9.824  17.865  0.00  0.00    +0.000 OA
ENDBRANCH  22  29
BRANCH  24  30
ATOM     30  C   UNL     1       0.150   9.157  22.561  0.00  0.00    +0.000 C 
ATOM     31  O   UNL     1       0.408  10.249  23.052  0.00  0.00    +0.000 OA
ENDBRANCH  24  30
ENDBRANCH  21  27
ENDBRANCH  19  21
ENDBRANCH   1  19
TORSDOF 7
ENDMDL
MODEL 2
REMARK VINA RESULT:      -7.4      0.154      1.237
REMARK  Name = 
REMARK  8 active torsions:
REMARK  status: ('A' for Active; 'I' for Inactive)
REMARK    1  A    between atoms: C_1  and  O_2
REMARK    2  A    between atoms: O_2  and  C_3
REMARK    3  A    between atoms: C_5  and  C_6
REMARK    4  A    between atoms: C_10  and  O_11
REMARK    5  A    between atoms: O_11  and  C_12
REMARK    6  A    between atoms: C_12  and  C_14
REMARK    7  A    between atoms: N_16  and  C_17
REMARK    8  A    between atoms: C_24  and  C_25
REMARK                            x       y       z     vdW  Elec       q    Type
REMARK                         _______ _______ _______ _____ _____    ______ ____
ROOT
ATOM      1  C   UNL     1       4.515   6.153  16.912  0.00  0.00    +0.000 A 
ATOM      2  C   UNL     1       5.302   6.150  15.777  0.00  0.00    +0.000 A 
ATOM      3  N   UNL     1       5.303   4.866  15.292  0.00  0.00    +0.000 N 
ATOM      4  N   UNL     1       4.679   4.018  16.148  0.00  0.00    +0.000 NA
ATOM      5  C   UNL     1       4.207   4.786  17.142  0.00  0.00    +0.000 A 
ENDROOT
BRANCH   5   6
ATOM      6  C   UNL     1       3.473   4.189  18.265  0.00  0.00    +0.000 A 
ATOM      7  C   UNL     1       2.110   3.873  18.146  0.00  0.00    +0.000 A 
ATOM      8  C   UNL     1       1.423   3.264  19.200  0.00  0.00    +0.000 A 
ATOM      9  C   UNL     1       2.088   2.993  20.393  0.00  0.00    +0.000 A 
ATOM     10 CL   UNL     1       1.244   2.239  21.687  0.00  0.00    +0.000 Cl
ATOM     11  C   UNL     1       3.432   3.333  20.542  0.00  0.00    +0.000 A 
ATOM     12  C   UNL     1       4.122   3.929  19.481  0.00  0.00    +0.000 A 
ENDBRANCH   5   6
BRANCH   3  13
ATOM     13  C   UNL     1       5.820   4.409  14.046  0.00  0.00    +0.000 A 
ATOM     14  C   UNL     1       5.111   3.487  13.261  0.00  0.00    +0.000 A 
ATOM     15  C   UNL     1       5.650   3.034  12.053  0.00  0.00    +0.000 A 
ATOM     16  C   UNL     1       6.895   3.490  11.625  0.00  0.00    +0.000 A 
ATOM     17  C   UNL     1       7.607   4.404  12.401  0.00  0.00    +0.000 A 
ATOM     18  C   UNL     1       7.073   4.866  13.607  0.00  0.00    +0.000 A 
ENDBRANCH   3  13
BRANCH   1  19
ATOM     19  C   UNL     1       4.054   7.352  17.590  0.00  0.00    +0.000 C 
ATOM     20  O   UNL     1       4.791   8.259  17.950  0.00  0.00    +0.000 OA
BRANCH  19  21
ATOM     21  O   UNL     1       2.666   7.364  17.686  0.00  0.00    +0.000 OA
BRANCH  21  27
ATOM     22  C   UNL     1       1.585   9.176  18.954  0.00  0.00    +0.000 A 
ATOM     23  C   UNL     1       0.995   9.583  20.150  0.00  0.00    +0.000 A 
ATOM     24  C   UNL     1       0.878   8.685  21.216  0.00  0.00    +0.000 A 
ATOM     25  C   UNL     1       1.361   7.378  21.111  0.00  0.00    +0.000 A 
ATOM     26  C   UNL     1       1.995   6.975  19.935  0.00  0.00    +0.000 A 
ATOM     27  C   UNL     1       2.128   7.878  18.878  0.00  0.00    +0.000 A 
BRANCH  22  29
ATOM     28  C   UNL     1       2.027  11.303  17.982  0.00  0.00    +0.000 C 
ATOM     29  O   UNL     1       1.645   9.944  17.826  0.00  0.00    +0.000 OA
ENDBRANCH  22  29
BRANCH  24  30
ATOM     30  C   UNL     1       0.202   9.121  22.455  0.00  0.00    +0.000 C 
ATOM     31  O   UNL     1       0.537  10.138  23.050  0.00  0.00    +0.000 OA
ENDBRANCH  24  30
ENDBRANCH  21  27
ENDBRANCH  19  21
ENDBRANCH   1  19
TORSDOF 7
ENDMDL
MODEL 3
REMARK VINA RESULT:      -7.4      4.250      6.572
REMARK  Name = 
REMARK  8 active torsions:
REMARK  status: ('A' for Active; 'I' for Inactive)
REMARK    1  A    between atoms: C_1  and  O_2
REMARK    2  A    between atoms: O_2  and  C_3
REMARK    3  A    between atoms: C_5  and  C_6
REMARK    4  A    between atoms: C_10  and  O_11
REMARK    5  A    between atoms: O_11  and  C_12
REMARK    6  A    between atoms: C_12  and  C_14
REMARK    7  A    between atoms: N_16  and  C_17
REMARK    8  A    between atoms: C_24  and  C_25
REMARK                            x       y       z     vdW  Elec       q    Type
REMARK                         _______ _______ _______ _____ _____    ______ ____
ROOT
ATOM      1  C   UNL     1       7.566   6.366  18.539  0.00  0.00    +0.000 A 
ATOM      2  C   UNL     1       8.233   7.448  19.079  0.00  0.00    +0.000 A 
ATOM      3  N   UNL     1       8.235   8.435  18.127  0.00  0.00    +0.000 N 
ATOM      4  N   UNL     1       7.736   7.982  16.949  0.00  0.00    +0.000 NA
ATOM      5  C   UNL     1       7.337   6.722  17.183  0.00  0.00    +0.000 A 
ENDROOT
BRANCH   5   6
ATOM      6  C   UNL     1       6.746   5.912  16.111  0.00  0.00    +0.000 A 
ATOM      7  C   UNL     1       5.406   6.093  15.729  0.00  0.00    +0.000 A 
ATOM      8  C   UNL     1       4.858   5.352  14.678  0.00  0.00    +0.000 A 
ATOM      9  C   UNL     1       5.636   4.404  14.020  0.00  0.00    +0.000 A 
ATOM     10 CL   UNL     1       4.962   3.498  12.725  0.00  0.00    +0.000 Cl
ATOM     11  C   UNL     1       6.957   4.186  14.410  0.00  0.00    +0.000 A 
ATOM     12  C   UNL     1       7.510   4.938  15.452  0.00  0.00    +0.000 A 
ENDBRANCH   5   6
BRANCH   3  13
ATOM     13  C   UNL     1       8.640   9.791  18.282  0.00  0.00    +0.000 A 
ATOM     14  C   UNL     1       9.559  10.165  19.275  0.00  0.00    +0.000 A 
ATOM     15  C   UNL     1       9.923  11.507  19.423  0.00  0.00    +0.000 A 
ATOM     16  C   UNL     1       9.374  12.480  18.591  0.00  0.00    +0.000 A 
ATOM     17  C   UNL     1       8.459  12.117  17.604  0.00  0.00    +0.000 A 
ATOM     18  C   UNL     1       8.093  10.778  17.446  0.00  0.00    +0.000 A 
ENDBRANCH   3  13
BRANCH   1  19
ATOM     19  C   UNL     1       7.129   5.207  19.297  0.00  0.00    +0.000 C 
ATOM     20  O   UNL     1       7.511   4.948  20.430  0.00  0.00    +0.000 OA
BRANCH  19  21
ATOM     21  O   UNL     1       6.158   4.495  18.599  0.00  0.00    +0.000 OA
BRANCH  21  27
ATOM     22  C   UNL     1       3.886   5.107  19.319  0.00  0.00    +0.000 A 
ATOM     23  C   UNL     1       2.712   4.717  19.964  0.00  0.00    +0.000 A 
ATOM     24  C   UNL     1       2.600   3.430  20.499  0.00  0.00    +0.000 A 
ATOM     25  C   UNL     1       3.659   2.522  20.414  0.00  0.00    +0.000 A 
ATOM     26  C   UNL     1       4.855   2.919  19.813  0.00  0.00    +0.000 A 
ATOM     27  C   UNL     1       4.972   4.210  19.296  0.00  0.00    +0.000 A 
BRANCH  22  29
ATOM     28  C   UNL     1       2.889   7.097  18.473  0.00  0.00    +0.000 C 
ATOM     29  O   UNL     1       4.048   6.300  18.673  0.00  0.00    +0.000 OA
ENDBRANCH  22  29
BRANCH  24  30
ATOM     30  C   UNL     1       1.330   3.020  21.131  0.00  0.00    +0.000 C 
ATOM     31  O   UNL     1       1.303   2.408  22.191  0.00  0.00    +0.000 OA
ENDBRANCH  24  30
ENDBRANCH  21  27
ENDBRANCH  19  21
ENDBRANCH   1  19
TORSDOF 7
ENDMDL
MODEL 4
REMARK VINA RESULT:      -7.2      4.421      6.918
REMARK  Name = 
REMARK  8 active torsions:
REMARK  status: ('A' for Active; 'I' for Inactive)
REMARK    1  A    between atoms: C_1  and  O_2
REMARK    2  A    between atoms: O_2  and  C_3
REMARK    3  A    between atoms: C_5  and  C_6
REMARK    4  A    between atoms: C_10  and  O_11
REMARK    5  A    between atoms: O_11  and  C_12
REMARK    6  A    between atoms: C_12  and  C_14
REMARK    7  A    between atoms: N_16  and  C_17
REMARK    8  A    between atoms: C_24  and  C_25
REMARK                            x       y       z     vdW  Elec       q    Type
REMARK                         _______ _______ _______ _____ _____    ______ ____
ROOT
ATOM      1  C   UNL     1       7.731   6.497  18.653  0.00  0.00    +0.000 A 
ATOM      2  C   UNL     1       8.393   7.594  19.167  0.00  0.00    +0.000 A 
ATOM      3  N   UNL     1       8.336   8.581  18.216  0.00  0.00    +0.000 N 
ATOM      4  N   UNL     1       7.802   8.116  17.058  0.00  0.00    +0.000 NA
ATOM      5  C   UNL     1       7.442   6.847  17.307  0.00  0.00    +0.000 A 
ENDROOT
BRANCH   5   6
ATOM      6  C   UNL     1       6.829   6.023  16.258  0.00  0.00    +0.000 A 
ATOM      7  C   UNL     1       5.495   6.230  15.869  0.00  0.00    +0.000 A 
ATOM      8  C   UNL     1       4.927   5.475  14.839  0.00  0.00    +0.000 A 
ATOM      9  C   UNL     1       5.678   4.486  14.211  0.00  0.00    +0.000 A 
ATOM     10 CL   UNL     1       4.979   3.563  12.941  0.00  0.00    +0.000 Cl
ATOM     11  C   UNL     1       6.992   4.242  14.609  0.00  0.00    +0.000 A 
ATOM     12  C   UNL     1       7.565   5.008  15.629  0.00  0.00    +0.000 A 
ENDBRANCH   5   6
BRANCH   3  13
ATOM     13  C   UNL     1       8.715   9.946  18.356  0.00  0.00    +0.000 A 
ATOM     14  C   UNL     1       8.178  10.938  17.521  0.00  0.00    +0.000 A 
ATOM     15  C   UNL     1       8.584  12.269  17.662  0.00  0.00    +0.000 A 
ATOM     16  C   UNL     1       9.526  12.617  18.628  0.00  0.00    +0.000 A 
ATOM     17  C   UNL     1      10.065  11.637  19.460  0.00  0.00    +0.000 A 
ATOM     18  C   UNL     1       9.661  10.306  19.329  0.00  0.00    +0.000 A 
ENDBRANCH   3  13
BRANCH   1  19
ATOM     19  C   UNL     1       7.351   5.328  19.427  0.00  0.00    +0.000 C 
ATOM     20  O   UNL     1       7.669   5.149  20.594  0.00  0.00    +0.000 OA
BRANCH  19  21
ATOM     21  O   UNL     1       6.509   4.499  18.692  0.00  0.00    +0.000 OA
BRANCH  21  27
ATOM     22  C   UNL     1       4.539   3.335  19.598  0.00  0.00    +0.000 A 
ATOM     23  C   UNL     1       3.217   3.426  20.031  0.00  0.00    +0.000 A 
ATOM     24  C   UNL     1       2.556   4.658  20.015  0.00  0.00    +0.000 A 
ATOM     25  C   UNL     1       3.197   5.811  19.554  0.00  0.00    +0.000 A 
ATOM     26  C   UNL     1       4.505   5.722  19.074  0.00  0.00    +0.000 A 
ATOM     27  C   UNL     1       5.156   4.487  19.073  0.00  0.00    +0.000 A 
BRANCH  22  29
ATOM     28  C   UNL     1       5.088   1.353  20.798  0.00  0.00    +0.000 C 
ATOM     29  O   UNL     1       5.298   2.202  19.679  0.00  0.00    +0.000 OA
ENDBRANCH  22  29
BRANCH  24  30
ATOM     30  C   UNL     1       1.173   4.742  20.527  0.00  0.00    +0.000 C 
ATOM     31  O   UNL     1       0.400   3.794  20.459  0.00  0.00    +0.000 OA
ENDBRANCH  24  30
ENDBRANCH  21  27
ENDBRANCH  19  21
ENDBRANCH   1  19
TORSDOF 7
ENDMDL
MODEL 5
REMARK VINA RESULT:      -7.1      4.419      6.872
REMARK  Name = 
REMARK  8 active torsions:
REMARK  status: ('A' for Active; 'I' for Inactive)
REMARK    1  A    between atoms: C_1  and  O_2
REMARK    2  A    between atoms: O_2  and  C_3
REMARK    3  A    between atoms: C_5  and  C_6
REMARK    4  A    between atoms: C_10  and  O_11
REMARK    5  A    between atoms: O_11  and  C_12
REMARK    6  A    between atoms: C_12  and  C_14
REMARK    7  A    between atoms: N_16  and  C_17
REMARK    8  A    between atoms: C_24  and  C_25
REMARK                            x       y       z     vdW  Elec       q    Type
REMARK                         _______ _______ _______ _____ _____    ______ ____
ROOT
ATOM      1  C   UNL     1       7.742   6.491  18.649  0.00  0.00    +0.000 A 
ATOM      2  C   UNL     1       8.413   7.571  19.188  0.00  0.00    +0.000 A 
ATOM      3  N   UNL     1       8.375   8.576  18.255  0.00  0.00    +0.000 N 
ATOM      4  N   UNL     1       7.845   8.139  17.084  0.00  0.00    +0.000 NA
ATOM      5  C   UNL     1       7.468   6.870  17.307  0.00  0.00    +0.000 A 
ENDROOT
BRANCH   5   6
ATOM      6  C   UNL     1       6.854   6.073  16.238  0.00  0.00    +0.000 A 
ATOM      7  C   UNL     1       7.590   5.080  15.570  0.00  0.00    +0.000 A 
ATOM      8  C   UNL     1       6.992   4.291  14.583  0.00  0.00    +0.000 A 
ATOM      9  C   UNL     1       5.661   4.509  14.236  0.00  0.00    +0.000 A 
ATOM     10 CL   UNL     1       4.926   3.534  13.027  0.00  0.00    +0.000 Cl
ATOM     11  C   UNL     1       4.927   5.514  14.863  0.00  0.00    +0.000 A 
ATOM     12  C   UNL     1       5.522   6.293  15.861  0.00  0.00    +0.000 A 
ENDBRANCH   5   6
BRANCH   3  13
ATOM     13  C   UNL     1       8.769   9.934  18.423  0.00  0.00    +0.000 A 
ATOM     14  C   UNL     1       9.609  10.320  19.479  0.00  0.00    +0.000 A 
ATOM     15  C   UNL     1       9.963  11.663  19.637  0.00  0.00    +0.000 A 
ATOM     16  C   UNL     1       9.481  12.626  18.753  0.00  0.00    +0.000 A 
ATOM     17  C   UNL     1       8.644  12.251  17.703  0.00  0.00    +0.000 A 
ATOM     18  C   UNL     1       8.290  10.910  17.534  0.00  0.00    +0.000 A 
ENDBRANCH   3  13
BRANCH   1  19
ATOM     19  C   UNL     1       7.342   5.313  19.397  0.00  0.00    +0.000 C 
ATOM     20  O   UNL     1       7.654   5.105  20.561  0.00  0.00    +0.000 OA
BRANCH  19  21
ATOM     21  O   UNL     1       6.488   4.513  18.644  0.00  0.00    +0.000 OA
BRANCH  21  27
ATOM     22  C   UNL     1       4.535   3.346  19.583  0.00  0.00    +0.000 A 
ATOM     23  C   UNL     1       3.216   3.432  20.026  0.00  0.00    +0.000 A 
ATOM     24  C   UNL     1       2.546   4.660  20.003  0.00  0.00    +0.000 A 
ATOM     25  C   UNL     1       3.175   5.812  19.521  0.00  0.00    +0.000 A 
ATOM     26  C   UNL     1       4.478   5.726  19.031  0.00  0.00    +0.000 A 
ATOM     27  C   UNL     1       5.139   4.497  19.038  0.00  0.00    +0.000 A 
BRANCH  22  29
ATOM     28  C   UNL     1       5.139   1.404  20.820  0.00  0.00    +0.000 C 
ATOM     29  O   UNL     1       5.303   2.220  19.669  0.00  0.00    +0.000 OA
ENDBRANCH  22  29
BRANCH  24  30
ATOM     30  C   UNL     1       1.168   4.740  20.527  0.00  0.00    +0.000 C 
ATOM     31  O   UNL     1       0.377   3.812  20.409  0.00  0.00    +0.000 OA
ENDBRANCH  24  30
ENDBRANCH  21  27
ENDBRANCH  19  21
ENDBRANCH   1  19
TORSDOF 7
ENDMDL
MODEL 6
REMARK VINA RESULT:      -7.0      4.625      7.723
REMARK  Name = 
REMARK  8 active torsions:
REMARK  status: ('A' for Active; 'I' for Inactive)
REMARK    1  A    between atoms: C_1  and  O_2
REMARK    2  A    between atoms: O_2  and  C_3
REMARK    3  A    between atoms: C_5  and  C_6
REMARK    4  A    between atoms: C_10  and  O_11
REMARK    5  A    between atoms: O_11  and  C_12
REMARK    6  A    between atoms: C_12  and  C_14
REMARK    7  A    between atoms: N_16  and  C_17
REMARK    8  A    between atoms: C_24  and  C_25
REMARK                            x       y       z     vdW  Elec       q    Type
REMARK                         _______ _______ _______ _____ _____    ______ ____
ROOT
ATOM      1  C   UNL     1       0.583  11.238  19.527  0.00  0.00    +0.000 A 
ATOM      2  C   UNL     1       1.620  10.353  19.747  0.00  0.00    +0.000 A 
ATOM      3  N   UNL     1       1.348   9.223  19.018  0.00  0.00    +0.000 N 
ATOM      4  N   UNL     1       0.110   9.283  18.464  0.00  0.00    +0.000 NA
ATOM      5  C   UNL     1      -0.369  10.497  18.776  0.00  0.00    +0.000 A 
ENDROOT
BRANCH   5   6
ATOM      6  C   UNL     1      -1.709  10.908  18.340  0.00  0.00    +0.000 A 
ATOM      7  C   UNL     1      -2.587  11.555  19.226  0.00  0.00    +0.000 A 
ATOM      8  C   UNL     1      -3.846  11.985  18.797  0.00  0.00    +0.000 A 
ATOM      9  C   UNL     1      -4.249  11.745  17.486  0.00  0.00    +0.000 A 
ATOM     10 CL   UNL     1      -5.795  12.280  16.959  0.00  0.00    +0.000 Cl
ATOM     11  C   UNL     1      -3.406  11.072  16.603  0.00  0.00    +0.000 A 
ATOM     12  C   UNL     1      -2.140  10.655  17.029  0.00  0.00    +0.000 A 
ENDBRANCH   5   6
BRANCH   3  13
ATOM     13  C   UNL     1       2.208   8.113  18.781  0.00  0.00    +0.000 A 
ATOM     14  C   UNL     1       2.285   7.048  19.691  0.00  0.00    +0.000 A 
ATOM     15  C   UNL     1       3.155   5.980  19.448  0.00  0.00    +0.000 A 
ATOM     16  C   UNL     1       3.953   5.971  18.306  0.00  0.00    +0.000 A 
ATOM     17  C   UNL     1       3.883   7.026  17.399  0.00  0.00    +0.000 A 
ATOM     18  C   UNL     1       3.013   8.094  17.631  0.00  0.00    +0.000 A 
ENDBRANCH   3  13
BRANCH   1  19
ATOM     19  C   UNL     1       0.599  12.637  19.913  0.00  0.00    +0.000 C 
ATOM     20  O   UNL     1       0.527  13.565  19.120  0.00  0.00    +0.000 OA
BRANCH  19  21
ATOM     21  O   UNL     1       0.612  12.769  21.298  0.00  0.00    +0.000 OA
BRANCH  21  27
ATOM     22  C   UNL     1      -0.986  11.676  22.819  0.00  0.00    +0.000 A 
ATOM     23  C   UNL     1      -2.211  11.742  23.482  0.00  0.00    +0.000 A 
ATOM     24  C   UNL     1      -3.028  12.867  23.335  0.00  0.00    +0.000 A 
ATOM     25  C   UNL     1      -2.645  13.931  22.514  0.00  0.00    +0.000 A 
ATOM     26  C   UNL     1      -1.443  13.853  21.808  0.00  0.00    +0.000 A 
ATOM     27  C   UNL     1      -0.637  12.722  21.942  0.00  0.00    +0.000 A 
BRANCH  22  29
ATOM     28  C   UNL     1      -0.502   9.348  22.695  0.00  0.00    +0.000 C 
ATOM     29  O   UNL     1      -0.075  10.672  22.985  0.00  0.00    +0.000 OA
ENDBRANCH  22  29
BRANCH  24  30
ATOM     30  C   UNL     1      -4.296  12.941  24.088  0.00  0.00    +0.000 C 
ATOM     31  O   UNL     1      -5.103  12.019  24.087  0.00  0.00    +0.000 OA
ENDBRANCH  24  30
ENDBRANCH  21  27
ENDBRANCH  19  21
ENDBRANCH   1  19
TORSDOF 7
ENDMDL
MODEL 7
REMARK VINA RESULT:      -7.0      4.243      7.153
REMARK  Name = 
REMARK  8 active torsions:
REMARK  status: ('A' for Active; 'I' for Inactive)
REMARK    1  A    between atoms: C_1  and  O_2
REMARK    2  A    between atoms: O_2  and  C_3
REMARK    3  A    between atoms: C_5  and  C_6
REMARK    4  A    between atoms: C_10  and  O_11
REMARK    5  A    between atoms: O_11  and  C_12
REMARK    6  A    between atoms: C_12  and  C_14
REMARK    7  A    between atoms: N_16  and  C_17
REMARK    8  A    between atoms: C_24  and  C_25
REMARK                            x       y       z     vdW  Elec       q    Type
REMARK                         _______ _______ _______ _____ _____    ______ ____
ROOT
ATOM      1  C   UNL     1       1.010  10.793  19.078  0.00  0.00    +0.000 A 
ATOM      2  C   UNL     1       2.023   9.860  19.178  0.00  0.00    +0.000 A 
ATOM      3  N   UNL     1       1.654   8.781  18.415  0.00  0.00    +0.000 N 
ATOM      4  N   UNL     1       0.385   8.917  17.955  0.00  0.00    +0.000 NA
ATOM      5  C   UNL     1      -0.022  10.130  18.361  0.00  0.00    +0.000 A 
ENDROOT
BRANCH   5   6
ATOM      6  C   UNL     1      -1.371  10.613  18.043  0.00  0.00    +0.000 A 
ATOM      7  C   UNL     1      -1.938  10.381  16.779  0.00  0.00    +0.000 A 
ATOM      8  C   UNL     1      -3.239  10.802  16.492  0.00  0.00    +0.000 A 
ATOM      9  C   UNL     1      -3.974  11.485  17.458  0.00  0.00    +0.000 A 
ATOM     10 CL   UNL     1      -5.576  11.997  17.105  0.00  0.00    +0.000 Cl
ATOM     11  C   UNL     1      -3.414  11.756  18.705  0.00  0.00    +0.000 A 
ATOM     12  C   UNL     1      -2.117  11.321  18.996  0.00  0.00    +0.000 A 
ENDBRANCH   5   6
BRANCH   3  13
ATOM     13  C   UNL     1       2.449   7.654  18.061  0.00  0.00    +0.000 A 
ATOM     14  C   UNL     1       2.056   6.352  18.405  0.00  0.00    +0.000 A 
ATOM     15  C   UNL     1       2.866   5.263  18.067  0.00  0.00    +0.000 A 
ATOM     16  C   UNL     1       4.068   5.464  17.394  0.00  0.00    +0.000 A 
ATOM     17  C   UNL     1       4.467   6.755  17.050  0.00  0.00    +0.000 A 
ATOM     18  C   UNL     1       3.661   7.848  17.379  0.00  0.00    +0.000 A 
ENDBRANCH   3  13
BRANCH   1  19
ATOM     19  C   UNL     1       1.111  12.169  19.532  0.00  0.00    +0.000 C 
ATOM     20  O   UNL     1       1.094  13.137  18.785  0.00  0.00    +0.000 OA
BRANCH  19  21
ATOM     21  O   UNL     1       1.134  12.231  20.922  0.00  0.00    +0.000 OA
BRANCH  21  27
ATOM     22  C   UNL     1      -0.555  11.248  22.419  0.00  0.00    +0.000 A 
ATOM     23  C   UNL     1      -1.770  11.407  23.085  0.00  0.00    +0.000 A 
ATOM     24  C   UNL     1      -2.485  12.603  22.964  0.00  0.00    +0.000 A 
ATOM     25  C   UNL     1      -2.009  13.647  22.167  0.00  0.00    +0.000 A 
ATOM     26  C   UNL     1      -0.818  13.480  21.458  0.00  0.00    +0.000 A 
ATOM     27  C   UNL     1      -0.115  12.279  21.565  0.00  0.00    +0.000 A 
BRANCH  22  29
ATOM     28  C   UNL     1      -0.194   8.926  22.038  0.00  0.00    +0.000 C 
ATOM     29  O   UNL     1       0.265  10.165  22.562  0.00  0.00    +0.000 OA
ENDBRANCH  22  29
BRANCH  24  30
ATOM     30  C   UNL     1      -3.743  12.770  23.720  0.00  0.00    +0.000 C 
ATOM     31  O   UNL     1      -4.176  11.893  24.456  0.00  0.00    +0.000 OA
ENDBRANCH  24  30
ENDBRANCH  21  27
ENDBRANCH  19  21
ENDBRANCH   1  19
TORSDOF 7
ENDMDL
MODEL 8
REMARK VINA RESULT:      -7.0      3.130      4.656
REMARK  Name = 
REMARK  8 active torsions:
REMARK  status: ('A' for Active; 'I' for Inactive)
REMARK    1  A    between atoms: C_1  and  O_2
REMARK    2  A    between atoms: O_2  and  C_3
REMARK    3  A    between atoms: C_5  and  C_6
REMARK    4  A    between atoms: C_10  and  O_11
REMARK    5  A    between atoms: O_11  and  C_12
REMARK    6  A    between atoms: C_12  and  C_14
REMARK    7  A    between atoms: N_16  and  C_17
REMARK    8  A    between atoms: C_24  and  C_25
REMARK                            x       y       z     vdW  Elec       q    Type
REMARK                         _______ _______ _______ _____ _____    ______ ____
ROOT
ATOM      1  C   UNL     1       5.396   4.931  17.099  0.00  0.00    +0.000 A 
ATOM      2  C   UNL     1       4.990   4.233  15.978  0.00  0.00    +0.000 A 
ATOM      3  N   UNL     1       5.829   4.596  14.953  0.00  0.00    +0.000 N 
ATOM      4  N   UNL     1       6.654   5.606  15.328  0.00  0.00    +0.000 NA
ATOM      5  C   UNL     1       6.392   5.827  16.626  0.00  0.00    +0.000 A 
ENDROOT
BRANCH   5   6
ATOM      6  C   UNL     1       7.106   6.874  17.366  0.00  0.00    +0.000 A 
ATOM      7  C   UNL     1       7.926   6.549  18.460  0.00  0.00    +0.000 A 
ATOM      8  C   UNL     1       8.641   7.542  19.136  0.00  0.00    +0.000 A 
ATOM      9  C   UNL     1       8.519   8.872  18.742  0.00  0.00    +0.000 A 
ATOM     10 CL   UNL     1       9.403  10.091  19.570  0.00  0.00    +0.000 Cl
ATOM     11  C   UNL     1       7.682   9.216  17.682  0.00  0.00    +0.000 A 
ATOM     12  C   UNL     1       6.978   8.221  16.996  0.00  0.00    +0.000 A 
ENDBRANCH   5   6
BRANCH   3  13
ATOM     13  C   UNL     1       5.922   4.010  13.659  0.00  0.00    +0.000 A 
ATOM     14  C   UNL     1       4.794   3.466  13.025  0.00  0.00    +0.000 A 
ATOM     15  C   UNL     1       4.916   2.875  11.764  0.00  0.00    +0.000 A 
ATOM     16  C   UNL     1       6.156   2.818  11.132  0.00  0.00    +0.000 A 
ATOM     17  C   UNL     1       7.281   3.355  11.755  0.00  0.00    +0.000 A 
ATOM     18  C   UNL     1       7.167   3.952  13.013  0.00  0.00    +0.000 A 
ENDBRANCH   3  13
BRANCH   1  19
ATOM     19  C   UNL     1       4.935   4.659  18.448  0.00  0.00    +0.000 C 
ATOM     20  O   UNL     1       5.665   4.639  19.429  0.00  0.00    +0.000 OA
BRANCH  19  21
ATOM     21  O   UNL     1       3.550   4.519  18.480  0.00  0.00    +0.000 OA
BRANCH  21  27
ATOM     22  C   UNL     1       2.264   5.491  20.340  0.00  0.00    +0.000 A 
ATOM     23  C   UNL     1       1.634   6.615  20.872  0.00  0.00    +0.000 A 
ATOM     24  C   UNL     1       1.644   7.824  20.168  0.00  0.00    +0.000 A 
ATOM     25  C   UNL     1       2.265   7.923  18.920  0.00  0.00    +0.000 A 
ATOM     26  C   UNL     1       2.856   6.791  18.357  0.00  0.00    +0.000 A 
ATOM     27  C   UNL     1       2.829   5.581  19.053  0.00  0.00    +0.000 A 
BRANCH  22  29
ATOM     28  C   UNL     1       1.297   3.408  20.969  0.00  0.00    +0.000 C 
ATOM     29  O   UNL     1       2.400   4.302  20.999  0.00  0.00    +0.000 OA
ENDBRANCH  22  29
BRANCH  24  30
ATOM     30  C   UNL     1       1.017   9.016  20.774  0.00  0.00    +0.000 C 
ATOM     31  O   UNL     1      -0.062   8.957  21.350  0.00  0.00    +0.000 OA
ENDBRANCH  24  30
ENDBRANCH  21  27
ENDBRANCH  19  21
ENDBRANCH   1  19
TORSDOF 7
ENDMDL
MODEL 9
REMARK VINA RESULT:      -6.9      8.121      9.722
REMARK  Name = 
REMARK  8 active torsions:
REMARK  status: ('A' for Active; 'I' for Inactive)
REMARK    1  A    between atoms: C_1  and  O_2
REMARK    2  A    between atoms: O_2  and  C_3
REMARK    3  A    between atoms: C_5  and  C_6
REMARK    4  A    between atoms: C_10  and  O_11
REMARK    5  A    between atoms: O_11  and  C_12
REMARK    6  A    between atoms: C_12  and  C_14
REMARK    7  A    between atoms: N_16  and  C_17
REMARK    8  A    between atoms: C_24  and  C_25
REMARK                            x       y       z     vdW  Elec       q    Type
REMARK                         _______ _______ _______ _____ _____    ______ ____
ROOT
ATOM      1  C   UNL     1      -0.027  11.840  20.286  0.00  0.00    +0.000 A 
ATOM      2  C   UNL     1       1.186  12.453  20.039  0.00  0.00    +0.000 A 
ATOM      3  N   UNL     1       0.961  13.430  19.103  0.00  0.00    +0.000 N 
ATOM      4  N   UNL     1      -0.309  13.369  18.626  0.00  0.00    +0.000 NA
ATOM      5  C   UNL     1      -0.915  12.399  19.328  0.00  0.00    +0.000 A 
ENDROOT
BRANCH   5   6
ATOM      6  C   UNL     1      -2.316  12.050  19.067  0.00  0.00    +0.000 A 
ATOM      7  C   UNL     1      -2.652  11.133  18.057  0.00  0.00    +0.000 A 
ATOM      8  C   UNL     1      -3.983  10.767  17.838  0.00  0.00    +0.000 A 
ATOM      9  C   UNL     1      -4.993  11.337  18.609  0.00  0.00    +0.000 A 
ATOM     10 CL   UNL     1      -6.628  10.882  18.342  0.00  0.00    +0.000 Cl
ATOM     11  C   UNL     1      -4.681  12.276  19.591  0.00  0.00    +0.000 A 
ATOM     12  C   UNL     1      -3.348  12.631  19.819  0.00  0.00    +0.000 A 
ENDBRANCH   5   6
BRANCH   3  13
ATOM     13  C   UNL     1       1.863  14.442  18.669  0.00  0.00    +0.000 A 
ATOM     14  C   UNL     1       3.157  14.122  18.231  0.00  0.00    +0.000 A 
ATOM     15  C   UNL     1       4.033  15.137  17.832  0.00  0.00    +0.000 A 
ATOM     16  C   UNL     1       3.629  16.469  17.872  0.00  0.00    +0.000 A 
ATOM     17  C   UNL     1       2.345  16.795  18.307  0.00  0.00    +0.000 A 
ATOM     18  C   UNL     1       1.462  15.788  18.702  0.00  0.00    +0.000 A 
ENDBRANCH   3  13
BRANCH   1  19
ATOM     19  C   UNL     1      -0.277  10.923  21.383  0.00  0.00    +0.000 C 
ATOM     20  O   UNL     1      -0.506   9.730  21.238  0.00  0.00    +0.000 OA
BRANCH  19  21
ATOM     21  O   UNL     1      -0.128  11.564  22.609  0.00  0.00    +0.000 OA
BRANCH  21  27
ATOM     22  C   UNL     1      -1.067  13.803  23.013  0.00  0.00    +0.000 A 
ATOM     23  C   UNL     1      -2.187  14.566  23.343  0.00  0.00    +0.000 A 
ATOM     24  C   UNL     1      -3.416  13.941  23.582  0.00  0.00    +0.000 A 
ATOM     25  C   UNL     1      -3.540  12.551  23.512  0.00  0.00    +0.000 A 
ATOM     26  C   UNL     1      -2.415  11.776  23.229  0.00  0.00    +0.000 A 
ATOM     27  C   UNL     1      -1.185  12.399  23.009  0.00  0.00    +0.000 A 
BRANCH  22  29
ATOM     28  C   UNL     1       0.197  15.723  22.393  0.00  0.00    +0.000 C 
ATOM     29  O   UNL     1       0.143  14.328  22.657  0.00  0.00    +0.000 OA
ENDBRANCH  22  29
BRANCH  24  30
ATOM     30  C   UNL     1      -4.601  14.771  23.878  0.00  0.00    +0.000 C 
ATOM     31  O   UNL     1      -4.518  15.808  24.525  0.00  0.00    +0.000 OA
ENDBRANCH  24  30
ENDBRANCH  21  27
ENDBRANCH  19  21
ENDBRANCH   1  19
TORSDOF 7
ENDMDL
