MODEL 1
REMARK VINA RESULT:      -7.9      0.000      0.000
REMARK  Name = 
REMARK  7 active torsions:
REMARK  status: ('A' for Active; 'I' for Inactive)
REMARK    1  A    between atoms: C_1  and  C_2
REMARK    2  A    between atoms: C_6  and  O_7
REMARK    3  A    between atoms: C_8  and  C_9
REMARK    4  A    between atoms: C_9  and  O_10
REMARK    5  A    between atoms: O_10  and  C_11
REMARK    6  A    between atoms: C_11  and  C_12
REMARK    7  A    between atoms: C_15  and  C_16
REMARK                            x       y       z     vdW  Elec       q    Type
REMARK                         _______ _______ _______ _____ _____    ______ ____
ROOT
ATOM      1  C   UNL     1       4.815   5.109  18.170  0.00  0.00    +0.000 C 
ENDROOT
BRANCH   1   2
ATOM      2  C   UNL     1       3.747   6.129  18.474  0.00  0.00    +0.000 A 
ATOM      3  C   UNL     1       3.572   7.217  17.617  0.00  0.00    +0.000 A 
ATOM      4  C   UNL     1       2.693   8.245  17.955  0.00  0.00    +0.000 A 
ATOM      5  C   UNL     1       1.932   8.207  19.139  0.00  0.00    +0.000 A 
ATOM      6  C   UNL     1       2.113   7.097  19.984  0.00  0.00    +0.000 A 
ATOM      7  C   UNL     1       3.011   6.073  19.661  0.00  0.00    +0.000 A 
BRANCH   5   8
ATOM      8  C   UNL     1       0.987   9.299  19.466  0.00  0.00    +0.000 A 
ATOM      9  C   UNL     1       0.347  10.028  18.446  0.00  0.00    +0.000 A 
ATOM     10  C   UNL     1      -0.522  11.083  18.731  0.00  0.00    +0.000 A 
ATOM     11  C   UNL     1      -0.791  11.422  20.053  0.00  0.00    +0.000 A 
ATOM     12  C   UNL     1      -0.189  10.706  21.084  0.00  0.00    +0.000 A 
ATOM     13  C   UNL     1       0.695   9.662  20.794  0.00  0.00    +0.000 A 
ENDBRANCH   5   8
ENDBRANCH   1   2
BRANCH   1  14
ATOM     14  O   UNL     1       5.245   5.216  16.809  0.00  0.00    +0.000 OA
BRANCH  14  15
ATOM     15  C   UNL     1       5.451   3.933  16.212  0.00  0.00    +0.000 C 
BRANCH  15  22
ATOM     16  C   UNL     1       5.412   2.601  11.559  0.00  0.00    +0.000 C 
ATOM     17  C   UNL     1       6.090   3.464  12.575  0.00  0.00    +0.000 A 
ATOM     18  C   UNL     1       7.098   4.293  12.268  0.00  0.00    +0.000 A 
ATOM     19  C   UNL     1       7.694   5.110  13.335  0.00  0.00    +0.000 A 
ATOM     20  O   UNL     1       8.614   5.894  13.126  0.00  0.00    +0.000 OA
ATOM     21  C   UNL     1       7.127   4.969  14.698  0.00  0.00    +0.000 A 
ATOM     22  C   UNL     1       6.127   4.098  14.887  0.00  0.00    +0.000 A 
ATOM     23  O   UNL     1       5.584   3.334  13.859  0.00  0.00    +0.000 OA
BRANCH  21  24
ATOM     24  O   UNL     1       7.647   5.760  15.702  0.00  0.00    +0.000 OA
ATOM     25  H   UNL     1       8.605   5.828  15.499  0.00  0.00    +0.000 HD
ENDBRANCH  21  24
ENDBRANCH  15  22
ENDBRANCH  14  15
ENDBRANCH   1  14
TORSDOF 6
ENDMDL
MODEL 2
REMARK VINA RESULT:      -7.8      1.779      3.110
REMARK  Name = 
REMARK  7 active torsions:
REMARK  status: ('A' for Active; 'I' for Inactive)
REMARK    1  A    between atoms: C_1  and  C_2
REMARK    2  A    between atoms: C_6  and  O_7
REMARK    3  A    between atoms: C_8  and  C_9
REMARK    4  A    between atoms: C_9  and  O_10
REMARK    5  A    between atoms: O_10  and  C_11
REMARK    6  A    between atoms: C_11  and  C_12
REMARK    7  A    between atoms: C_15  and  C_16
REMARK                            x       y       z     vdW  Elec       q    Type
REMARK                         _______ _______ _______ _____ _____    ______ ____
ROOT
ATOM      1  C   UNL     1       3.093   6.571  18.027  0.00  0.00    +0.000 C 
ENDROOT
BRANCH   1   2
ATOM      2  C   UNL     1       2.258   7.509  18.860  0.00  0.00    +0.000 A 
ATOM      3  C   UNL     1       1.799   8.702  18.298  0.00  0.00    +0.000 A 
ATOM      4  C   UNL     1       1.151   9.649  19.091  0.00  0.00    +0.000 A 
ATOM      5  C   UNL     1       0.905   9.424  20.458  0.00  0.00    +0.000 A 
ATOM      6  C   UNL     1       1.363   8.212  21.003  0.00  0.00    +0.000 A 
ATOM      7  C   UNL     1       2.035   7.267  20.218  0.00  0.00    +0.000 A 
BRANCH   5   8
ATOM      8  C   UNL     1       0.193  10.434  21.275  0.00  0.00    +0.000 A 
ATOM      9  C   UNL     1      -0.536  10.053  22.418  0.00  0.00    +0.000 A 
ATOM     10  C   UNL     1      -1.242  10.984  23.183  0.00  0.00    +0.000 A 
ATOM     11  C   UNL     1      -1.216  12.330  22.834  0.00  0.00    +0.000 A 
ATOM     12  C   UNL     1      -0.487  12.740  21.721  0.00  0.00    +0.000 A 
ATOM     13  C   UNL     1       0.203  11.802  20.947  0.00  0.00    +0.000 A 
ENDBRANCH   5   8
ENDBRANCH   1   2
BRANCH   1  14
ATOM     14  O   UNL     1       3.081   5.252  18.583  0.00  0.00    +0.000 OA
BRANCH  14  15
ATOM     15  C   UNL     1       3.318   4.251  17.589  0.00  0.00    +0.000 C 
BRANCH  15  22
ATOM     16  C   UNL     1       6.358   4.393  13.825  0.00  0.00    +0.000 C 
ATOM     17  C   UNL     1       6.265   4.382  15.319  0.00  0.00    +0.000 A 
ATOM     18  C   UNL     1       7.340   4.462  16.115  0.00  0.00    +0.000 A 
ATOM     19  C   UNL     1       7.146   4.455  17.571  0.00  0.00    +0.000 A 
ATOM     20  O   UNL     1       8.083   4.532  18.360  0.00  0.00    +0.000 OA
ATOM     21  C   UNL     1       5.753   4.368  18.072  0.00  0.00    +0.000 A 
ATOM     22  C   UNL     1       4.758   4.280  17.180  0.00  0.00    +0.000 A 
ATOM     23  O   UNL     1       4.971   4.285  15.806  0.00  0.00    +0.000 OA
BRANCH  21  24
ATOM     24  O   UNL     1       5.550   4.403  19.437  0.00  0.00    +0.000 OA
ATOM     25  H   UNL     1       4.581   4.523  19.545  0.00  0.00    +0.000 HD
ENDBRANCH  21  24
ENDBRANCH  15  22
ENDBRANCH  14  15
ENDBRANCH   1  14
TORSDOF 6
ENDMDL
MODEL 3
REMARK VINA RESULT:      -7.8      0.252      1.013
REMARK  Name = 
REMARK  7 active torsions:
REMARK  status: ('A' for Active; 'I' for Inactive)
REMARK    1  A    between atoms: C_1  and  C_2
REMARK    2  A    between atoms: C_6  and  O_7
REMARK    3  A    between atoms: C_8  and  C_9
REMARK    4  A    between atoms: C_9  and  O_10
REMARK    5  A    between atoms: O_10  and  C_11
REMARK    6  A    between atoms: C_11  and  C_12
REMARK    7  A    between atoms: C_15  and  C_16
REMARK                            x       y       z     vdW  Elec       q    Type
REMARK                         _______ _______ _______ _____ _____    ______ ____
ROOT
ATOM      1  C   UNL     1       4.873   5.245  17.886  0.00  0.00    +0.000 C 
ENDROOT
BRANCH   1   2
ATOM      2  C   UNL     1       3.931   6.353  18.278  0.00  0.00    +0.000 A 
ATOM      3  C   UNL     1       3.194   6.243  19.459  0.00  0.00    +0.000 A 
ATOM      4  C   UNL     1       2.213   7.185  19.767  0.00  0.00    +0.000 A 
ATOM      5  C   UNL     1       1.958   8.287  18.929  0.00  0.00    +0.000 A 
ATOM      6  C   UNL     1       2.718   8.388  17.750  0.00  0.00    +0.000 A 
ATOM      7  C   UNL     1       3.688   7.433  17.425  0.00  0.00    +0.000 A 
BRANCH   5   8
ATOM      8  C   UNL     1       0.927   9.288  19.288  0.00  0.00    +0.000 A 
ATOM      9  C   UNL     1       0.237  10.002  18.290  0.00  0.00    +0.000 A 
ATOM     10  C   UNL     1      -0.715  10.973  18.606  0.00  0.00    +0.000 A 
ATOM     11  C   UNL     1      -1.018  11.239  19.937  0.00  0.00    +0.000 A 
ATOM     12  C   UNL     1      -0.368  10.535  20.946  0.00  0.00    +0.000 A 
ATOM     13  C   UNL     1       0.599   9.576  20.625  0.00  0.00    +0.000 A 
ENDBRANCH   5   8
ENDBRANCH   1   2
BRANCH   1  14
ATOM     14  O   UNL     1       4.734   4.930  16.496  0.00  0.00    +0.000 OA
BRANCH  14  15
ATOM     15  C   UNL     1       5.494   3.773  16.132  0.00  0.00    +0.000 C 
BRANCH  15  22
ATOM     16  C   UNL     1       5.468   2.597  11.437  0.00  0.00    +0.000 C 
ATOM     17  C   UNL     1       6.126   3.446  12.479  0.00  0.00    +0.000 A 
ATOM     18  C   UNL     1       7.106   4.315  12.195  0.00  0.00    +0.000 A 
ATOM     19  C   UNL     1       7.684   5.114  13.286  0.00  0.00    +0.000 A 
ATOM     20  O   UNL     1       8.578   5.932  13.099  0.00  0.00    +0.000 OA
ATOM     21  C   UNL     1       7.129   4.910  14.646  0.00  0.00    +0.000 A 
ATOM     22  C   UNL     1       6.156   4.004  14.810  0.00  0.00    +0.000 A 
ATOM     23  O   UNL     1       5.632   3.258  13.760  0.00  0.00    +0.000 OA
BRANCH  21  24
ATOM     24  O   UNL     1       7.630   5.683  15.674  0.00  0.00    +0.000 OA
ATOM     25  H   UNL     1       8.587   5.778  15.475  0.00  0.00    +0.000 HD
ENDBRANCH  21  24
ENDBRANCH  15  22
ENDBRANCH  14  15
ENDBRANCH   1  14
TORSDOF 6
ENDMDL
MODEL 4
REMARK VINA RESULT:      -7.8      0.241      1.409
REMARK  Name = 
REMARK  7 active torsions:
REMARK  status: ('A' for Active; 'I' for Inactive)
REMARK    1  A    between atoms: C_1  and  C_2
REMARK    2  A    between atoms: C_6  and  O_7
REMARK    3  A    between atoms: C_8  and  C_9
REMARK    4  A    between atoms: C_9  and  O_10
REMARK    5  A    between atoms: O_10  and  C_11
REMARK    6  A    between atoms: C_11  and  C_12
REMARK    7  A    between atoms: C_15  and  C_16
REMARK                            x       y       z     vdW  Elec       q    Type
REMARK                         _______ _______ _______ _____ _____    ______ ____
ROOT
ATOM      1  C   UNL     1       4.823   4.895  18.043  0.00  0.00    +0.000 C 
ENDROOT
BRANCH   1   2
ATOM      2  C   UNL     1       3.941   6.069  18.380  0.00  0.00    +0.000 A 
ATOM      3  C   UNL     1       3.177   6.043  19.549  0.00  0.00    +0.000 A 
ATOM      4  C   UNL     1       2.248   7.050  19.805  0.00  0.00    +0.000 A 
ATOM      5  C   UNL     1       2.073   8.136  18.926  0.00  0.00    +0.000 A 
ATOM      6  C   UNL     1       2.860   8.152  17.760  0.00  0.00    +0.000 A 
ATOM      7  C   UNL     1       3.778   7.132  17.486  0.00  0.00    +0.000 A 
BRANCH   5   8
ATOM      8  C   UNL     1       1.097   9.206  19.231  0.00  0.00    +0.000 A 
ATOM      9  C   UNL     1       0.815   9.568  20.562  0.00  0.00    +0.000 A 
ATOM     10  C   UNL     1      -0.126  10.551  20.873  0.00  0.00    +0.000 A 
ATOM     11  C   UNL     1      -0.796  11.216  19.853  0.00  0.00    +0.000 A 
ATOM     12  C   UNL     1      -0.525  10.896  18.526  0.00  0.00    +0.000 A 
ATOM     13  C   UNL     1       0.405   9.897  18.219  0.00  0.00    +0.000 A 
ENDBRANCH   5   8
ENDBRANCH   1   2
BRANCH   1  14
ATOM     14  O   UNL     1       5.390   5.044  16.737  0.00  0.00    +0.000 OA
BRANCH  14  15
ATOM     15  C   UNL     1       5.638   3.780  16.115  0.00  0.00    +0.000 C 
BRANCH  15  22
ATOM     16  C   UNL     1       5.387   2.483  11.459  0.00  0.00    +0.000 C 
ATOM     17  C   UNL     1       6.075   3.378  12.441  0.00  0.00    +0.000 A 
ATOM     18  C   UNL     1       7.010   4.269  12.081  0.00  0.00    +0.000 A 
ATOM     19  C   UNL     1       7.623   5.112  13.118  0.00  0.00    +0.000 A 
ATOM     20  O   UNL     1       8.479   5.951  12.862  0.00  0.00    +0.000 OA
ATOM     21  C   UNL     1       7.151   4.927  14.512  0.00  0.00    +0.000 A 
ATOM     22  C   UNL     1       6.218   3.996  14.753  0.00  0.00    +0.000 A 
ATOM     23  O   UNL     1       5.659   3.209  13.752  0.00  0.00    +0.000 OA
BRANCH  21  24
ATOM     24  O   UNL     1       7.685   5.740  15.492  0.00  0.00    +0.000 OA
ATOM     25  H   UNL     1       6.911   6.042  16.017  0.00  0.00    +0.000 HD
ENDBRANCH  21  24
ENDBRANCH  15  22
ENDBRANCH  14  15
ENDBRANCH   1  14
TORSDOF 6
ENDMDL
MODEL 5
REMARK VINA RESULT:      -7.8      1.778      2.907
REMARK  Name = 
REMARK  7 active torsions:
REMARK  status: ('A' for Active; 'I' for Inactive)
REMARK    1  A    between atoms: C_1  and  C_2
REMARK    2  A    between atoms: C_6  and  O_7
REMARK    3  A    between atoms: C_8  and  C_9
REMARK    4  A    between atoms: C_9  and  O_10
REMARK    5  A    between atoms: O_10  and  C_11
REMARK    6  A    between atoms: C_11  and  C_12
REMARK    7  A    between atoms: C_15  and  C_16
REMARK                            x       y       z     vdW  Elec       q    Type
REMARK                         _______ _______ _______ _____ _____    ______ ____
ROOT
ATOM      1  C   UNL     1       3.352   6.691  18.142  0.00  0.00    +0.000 C 
ENDROOT
BRANCH   1   2
ATOM      2  C   UNL     1       2.359   7.545  18.886  0.00  0.00    +0.000 A 
ATOM      3  C   UNL     1       1.839   8.687  18.273  0.00  0.00    +0.000 A 
ATOM      4  C   UNL     1       1.034   9.568  18.994  0.00  0.00    +0.000 A 
ATOM      5  C   UNL     1       0.689   9.324  20.337  0.00  0.00    +0.000 A 
ATOM      6  C   UNL     1       1.212   8.164  20.934  0.00  0.00    +0.000 A 
ATOM      7  C   UNL     1       2.039   7.287  20.222  0.00  0.00    +0.000 A 
BRANCH   5   8
ATOM      8  C   UNL     1      -0.187  10.263  21.075  0.00  0.00    +0.000 A 
ATOM      9  C   UNL     1      -0.855  11.305  20.404  0.00  0.00    +0.000 A 
ATOM     10  C   UNL     1      -1.659  12.221  21.086  0.00  0.00    +0.000 A 
ATOM     11  C   UNL     1      -1.833  12.102  22.460  0.00  0.00    +0.000 A 
ATOM     12  C   UNL     1      -1.203  11.069  23.148  0.00  0.00    +0.000 A 
ATOM     13  C   UNL     1      -0.383  10.165  22.465  0.00  0.00    +0.000 A 
ENDBRANCH   5   8
ENDBRANCH   1   2
BRANCH   1  14
ATOM     14  O   UNL     1       2.727   5.501  17.648  0.00  0.00    +0.000 OA
BRANCH  14  15
ATOM     15  C   UNL     1       3.421   4.321  18.065  0.00  0.00    +0.000 C 
BRANCH  15  22
ATOM     16  C   UNL     1       5.840   4.125  13.877  0.00  0.00    +0.000 C 
ATOM     17  C   UNL     1       5.980   4.224  15.364  0.00  0.00    +0.000 A 
ATOM     18  C   UNL     1       7.166   4.337  15.976  0.00  0.00    +0.000 A 
ATOM     19  C   UNL     1       7.201   4.438  17.442  0.00  0.00    +0.000 A 
ATOM     20  O   UNL     1       8.250   4.551  18.069  0.00  0.00    +0.000 OA
ATOM     21  C   UNL     1       5.902   4.419  18.157  0.00  0.00    +0.000 A 
ATOM     22  C   UNL     1       4.779   4.289  17.438  0.00  0.00    +0.000 A 
ATOM     23  O   UNL     1       4.776   4.191  16.051  0.00  0.00    +0.000 OA
BRANCH  21  24
ATOM     24  O   UNL     1       5.914   4.556  19.530  0.00  0.00    +0.000 OA
ATOM     25  H   UNL     1       6.812   4.891  19.742  0.00  0.00    +0.000 HD
ENDBRANCH  21  24
ENDBRANCH  15  22
ENDBRANCH  14  15
ENDBRANCH   1  14
TORSDOF 6
ENDMDL
MODEL 6
REMARK VINA RESULT:      -7.8      3.439      5.094
REMARK  Name = 
REMARK  7 active torsions:
REMARK  status: ('A' for Active; 'I' for Inactive)
REMARK    1  A    between atoms: C_1  and  C_2
REMARK    2  A    between atoms: C_6  and  O_7
REMARK    3  A    between atoms: C_8  and  C_9
REMARK    4  A    between atoms: C_9  and  O_10
REMARK    5  A    between atoms: O_10  and  C_11
REMARK    6  A    between atoms: C_11  and  C_12
REMARK    7  A    between atoms: C_15  and  C_16
REMARK                            x       y       z     vdW  Elec       q    Type
REMARK                         _______ _______ _______ _____ _____    ______ ____
ROOT
ATOM      1  C   UNL     1       3.054   7.581  17.423  0.00  0.00    +0.000 C 
ENDROOT
BRANCH   1   2
ATOM      2  C   UNL     1       2.116   8.285  18.369  0.00  0.00    +0.000 A 
ATOM      3  C   UNL     1       1.454   9.440  17.947  0.00  0.00    +0.000 A 
ATOM      4  C   UNL     1       0.696  10.186  18.850  0.00  0.00    +0.000 A 
ATOM      5  C   UNL     1       0.543   9.788  20.191  0.00  0.00    +0.000 A 
ATOM      6  C   UNL     1       1.207   8.616  20.595  0.00  0.00    +0.000 A 
ATOM      7  C   UNL     1       1.987   7.875  19.699  0.00  0.00    +0.000 A 
BRANCH   5   8
ATOM      8  C   UNL     1      -0.286  10.584  21.126  0.00  0.00    +0.000 A 
ATOM      9  C   UNL     1      -0.527  10.134  22.438  0.00  0.00    +0.000 A 
ATOM     10  C   UNL     1      -1.332  10.852  23.325  0.00  0.00    +0.000 A 
ATOM     11  C   UNL     1      -1.900  12.056  22.925  0.00  0.00    +0.000 A 
ATOM     12  C   UNL     1      -1.663  12.538  21.641  0.00  0.00    +0.000 A 
ATOM     13  C   UNL     1      -0.872  11.807  20.750  0.00  0.00    +0.000 A 
ENDBRANCH   5   8
ENDBRANCH   1   2
BRANCH   1  14
ATOM     14  O   UNL     1       4.099   6.920  18.145  0.00  0.00    +0.000 OA
BRANCH  14  15
ATOM     15  C   UNL     1       4.366   5.615  17.621  0.00  0.00    +0.000 C 
BRANCH  15  22
ATOM     16  C   UNL     1       0.713   3.738  20.182  0.00  0.00    +0.000 C 
ATOM     17  C   UNL     1       2.174   3.629  19.880  0.00  0.00    +0.000 A 
ATOM     18  C   UNL     1       2.957   2.681  20.413  0.00  0.00    +0.000 A 
ATOM     19  C   UNL     1       4.380   2.648  20.048  0.00  0.00    +0.000 A 
ATOM     20  O   UNL     1       5.154   1.806  20.492  0.00  0.00    +0.000 OA
ATOM     21  C   UNL     1       4.862   3.675  19.092  0.00  0.00    +0.000 A 
ATOM     22  C   UNL     1       3.988   4.581  18.634  0.00  0.00    +0.000 A 
ATOM     23  O   UNL     1       2.646   4.590  19.000  0.00  0.00    +0.000 OA
BRANCH  21  24
ATOM     24  O   UNL     1       6.186   3.632  18.706  0.00  0.00    +0.000 OA
ATOM     25  H   UNL     1       6.652   4.220  19.339  0.00  0.00    +0.000 HD
ENDBRANCH  21  24
ENDBRANCH  15  22
ENDBRANCH  14  15
ENDBRANCH   1  14
TORSDOF 6
ENDMDL
MODEL 7
REMARK VINA RESULT:      -7.7      0.814      1.396
REMARK  Name = 
REMARK  7 active torsions:
REMARK  status: ('A' for Active; 'I' for Inactive)
REMARK    1  A    between atoms: C_1  and  C_2
REMARK    2  A    between atoms: C_6  and  O_7
REMARK    3  A    between atoms: C_8  and  C_9
REMARK    4  A    between atoms: C_9  and  O_10
REMARK    5  A    between atoms: O_10  and  C_11
REMARK    6  A    between atoms: C_11  and  C_12
REMARK    7  A    between atoms: C_15  and  C_16
REMARK                            x       y       z     vdW  Elec       q    Type
REMARK                         _______ _______ _______ _____ _____    ______ ____
ROOT
ATOM      1  C   UNL     1       3.607   4.513  17.388  0.00  0.00    +0.000 C 
ENDROOT
BRANCH   1   2
ATOM      2  C   UNL     1       3.078   5.658  18.211  0.00  0.00    +0.000 A 
ATOM      3  C   UNL     1       2.571   5.410  19.488  0.00  0.00    +0.000 A 
ATOM      4  C   UNL     1       1.946   6.428  20.207  0.00  0.00    +0.000 A 
ATOM      5  C   UNL     1       1.837   7.735  19.695  0.00  0.00    +0.000 A 
ATOM      6  C   UNL     1       2.365   7.969  18.413  0.00  0.00    +0.000 A 
ATOM      7  C   UNL     1       2.974   6.946  17.677  0.00  0.00    +0.000 A 
BRANCH   5   8
ATOM      8  C   UNL     1       1.190   8.806  20.487  0.00  0.00    +0.000 A 
ATOM      9  C   UNL     1       0.757   9.997  19.871  0.00  0.00    +0.000 A 
ATOM     10  C   UNL     1       0.175  11.033  20.604  0.00  0.00    +0.000 A 
ATOM     11  C   UNL     1      -0.011  10.893  21.974  0.00  0.00    +0.000 A 
ATOM     12  C   UNL     1       0.387   9.720  22.608  0.00  0.00    +0.000 A 
ATOM     13  C   UNL     1       0.987   8.692  21.874  0.00  0.00    +0.000 A 
ENDBRANCH   5   8
ENDBRANCH   1   2
BRANCH   1  14
ATOM     14  O   UNL     1       4.799   4.895  16.693  0.00  0.00    +0.000 OA
BRANCH  14  15
ATOM     15  C   UNL     1       5.578   3.759  16.305  0.00  0.00    +0.000 C 
BRANCH  15  22
ATOM     16  C   UNL     1       5.425   2.603  11.607  0.00  0.00    +0.000 C 
ATOM     17  C   UNL     1       6.100   3.461  12.632  0.00  0.00    +0.000 A 
ATOM     18  C   UNL     1       7.054   4.349  12.321  0.00  0.00    +0.000 A 
ATOM     19  C   UNL     1       7.650   5.154  13.397  0.00  0.00    +0.000 A 
ATOM     20  O   UNL     1       8.523   5.990  13.186  0.00  0.00    +0.000 OA
ATOM     21  C   UNL     1       7.143   4.934  14.773  0.00  0.00    +0.000 A 
ATOM     22  C   UNL     1       6.194   4.008  14.964  0.00  0.00    +0.000 A 
ATOM     23  O   UNL     1       5.650   3.258  13.927  0.00  0.00    +0.000 OA
BRANCH  21  24
ATOM     24  O   UNL     1       7.662   5.711  15.789  0.00  0.00    +0.000 OA
ATOM     25  H   UNL     1       7.034   6.460  15.879  0.00  0.00    +0.000 HD
ENDBRANCH  21  24
ENDBRANCH  15  22
ENDBRANCH  14  15
ENDBRANCH   1  14
TORSDOF 6
ENDMDL
MODEL 8
REMARK VINA RESULT:      -7.7      0.626      1.116
REMARK  Name = 
REMARK  7 active torsions:
REMARK  status: ('A' for Active; 'I' for Inactive)
REMARK    1  A    between atoms: C_1  and  C_2
REMARK    2  A    between atoms: C_6  and  O_7
REMARK    3  A    between atoms: C_8  and  C_9
REMARK    4  A    between atoms: C_9  and  O_10
REMARK    5  A    between atoms: O_10  and  C_11
REMARK    6  A    between atoms: C_11  and  C_12
REMARK    7  A    between atoms: C_15  and  C_16
REMARK                            x       y       z     vdW  Elec       q    Type
REMARK                         _______ _______ _______ _____ _____    ______ ____
ROOT
ATOM      1  C   UNL     1       4.336   5.587  18.042  0.00  0.00    +0.000 C 
ENDROOT
BRANCH   1   2
ATOM      2  C   UNL     1       3.296   6.633  18.351  0.00  0.00    +0.000 A 
ATOM      3  C   UNL     1       3.082   7.678  17.450  0.00  0.00    +0.000 A 
ATOM      4  C   UNL     1       2.231   8.731  17.783  0.00  0.00    +0.000 A 
ATOM      5  C   UNL     1       1.538   8.763  19.007  0.00  0.00    +0.000 A 
ATOM      6  C   UNL     1       1.757   7.696  19.897  0.00  0.00    +0.000 A 
ATOM      7  C   UNL     1       2.627   6.647  19.578  0.00  0.00    +0.000 A 
BRANCH   5   8
ATOM      8  C   UNL     1       0.622   9.881  19.330  0.00  0.00    +0.000 A 
ATOM      9  C   UNL     1       0.763  10.606  20.529  0.00  0.00    +0.000 A 
ATOM     10  C   UNL     1      -0.110  11.642  20.868  0.00  0.00    +0.000 A 
ATOM     11  C   UNL     1      -1.137  11.994  20.000  0.00  0.00    +0.000 A 
ATOM     12  C   UNL     1      -1.289  11.310  18.797  0.00  0.00    +0.000 A 
ATOM     13  C   UNL     1      -0.425  10.261  18.470  0.00  0.00    +0.000 A 
ENDBRANCH   5   8
ENDBRANCH   1   2
BRANCH   1  14
ATOM     14  O   UNL     1       4.587   5.524  16.634  0.00  0.00    +0.000 OA
BRANCH  14  15
ATOM     15  C   UNL     1       4.946   4.204  16.214  0.00  0.00    +0.000 C 
BRANCH  15  22
ATOM     16  C   UNL     1       5.172   2.842  11.575  0.00  0.00    +0.000 C 
ATOM     17  C   UNL     1       5.851   3.632  12.649  0.00  0.00    +0.000 A 
ATOM     18  C   UNL     1       6.970   4.337  12.436  0.00  0.00    +0.000 A 
ATOM     19  C   UNL     1       7.558   5.090  13.552  0.00  0.00    +0.000 A 
ATOM     20  O   UNL     1       8.577   5.762  13.428  0.00  0.00    +0.000 OA
ATOM     21  C   UNL     1       6.859   5.028  14.859  0.00  0.00    +0.000 A 
ATOM     22  C   UNL     1       5.752   4.279  14.956  0.00  0.00    +0.000 A 
ATOM     23  O   UNL     1       5.220   3.573  13.882  0.00  0.00    +0.000 OA
BRANCH  21  24
ATOM     24  O   UNL     1       7.373   5.763  15.907  0.00  0.00    +0.000 OA
ATOM     25  H   UNL     1       6.806   6.563  15.956  0.00  0.00    +0.000 HD
ENDBRANCH  21  24
ENDBRANCH  15  22
ENDBRANCH  14  15
ENDBRANCH   1  14
TORSDOF 6
ENDMDL
MODEL 9
REMARK VINA RESULT:      -7.6      1.824      3.250
REMARK  Name = 
REMARK  7 active torsions:
REMARK  status: ('A' for Active; 'I' for Inactive)
REMARK    1  A    between atoms: C_1  and  C_2
REMARK    2  A    between atoms: C_6  and  O_7
REMARK    3  A    between atoms: C_8  and  C_9
REMARK    4  A    between atoms: C_9  and  O_10
REMARK    5  A    between atoms: O_10  and  C_11
REMARK    6  A    between atoms: C_11  and  C_12
REMARK    7  A    between atoms: C_15  and  C_16
REMARK                            x       y       z     vdW  Elec       q    Type
REMARK                         _______ _______ _______ _____ _____    ______ ____
ROOT
ATOM      1  C   UNL     1       3.129   6.570  18.057  0.00  0.00    +0.000 C 
ENDROOT
BRANCH   1   2
ATOM      2  C   UNL     1       2.339   7.693  18.677  0.00  0.00    +0.000 A 
ATOM      3  C   UNL     1       1.969   7.613  20.022  0.00  0.00    +0.000 A 
ATOM      4  C   UNL     1       1.118   8.568  20.576  0.00  0.00    +0.000 A 
ATOM      5  C   UNL     1       0.635   9.654  19.821  0.00  0.00    +0.000 A 
ATOM      6  C   UNL     1       1.028   9.725  18.473  0.00  0.00    +0.000 A 
ATOM      7  C   UNL     1       1.864   8.757  17.905  0.00  0.00    +0.000 A 
BRANCH   5   8
ATOM      8  C   UNL     1      -0.249  10.669  20.438  0.00  0.00    +0.000 A 
ATOM      9  C   UNL     1      -0.066  11.069  21.775  0.00  0.00    +0.000 A 
ATOM     10  C   UNL     1      -0.909  12.000  22.386  0.00  0.00    +0.000 A 
ATOM     11  C   UNL     1      -1.948  12.573  21.662  0.00  0.00    +0.000 A 
ATOM     12  C   UNL     1      -2.142  12.214  20.332  0.00  0.00    +0.000 A 
ATOM     13  C   UNL     1      -1.307  11.268  19.729  0.00  0.00    +0.000 A 
ENDBRANCH   5   8
ENDBRANCH   1   2
BRANCH   1  14
ATOM     14  O   UNL     1       2.956   5.359  18.800  0.00  0.00    +0.000 OA
BRANCH  14  15
ATOM     15  C   UNL     1       3.156   4.199  17.985  0.00  0.00    +0.000 C 
BRANCH  15  22
ATOM     16  C   UNL     1       5.803   4.195  13.933  0.00  0.00    +0.000 C 
ATOM     17  C   UNL     1       5.860   4.237  15.428  0.00  0.00    +0.000 A 
ATOM     18  C   UNL     1       7.010   4.339  16.108  0.00  0.00    +0.000 A 
ATOM     19  C   UNL     1       6.964   4.383  17.576  0.00  0.00    +0.000 A 
ATOM     20  O   UNL     1       7.975   4.483  18.264  0.00  0.00    +0.000 OA
ATOM     21  C   UNL     1       5.627   4.321  18.218  0.00  0.00    +0.000 A 
ATOM     22  C   UNL     1       4.547   4.208  17.433  0.00  0.00    +0.000 A 
ATOM     23  O   UNL     1       4.621   4.164  16.045  0.00  0.00    +0.000 OA
BRANCH  21  24
ATOM     24  O   UNL     1       5.563   4.404  19.594  0.00  0.00    +0.000 OA
ATOM     25  H   UNL     1       6.166   5.142  19.830  0.00  0.00    +0.000 HD
ENDBRANCH  21  24
ENDBRANCH  15  22
ENDBRANCH  14  15
ENDBRANCH   1  14
TORSDOF 6
ENDMDL
