MODEL 1
REMARK VINA RESULT:      -7.2      0.000      0.000
REMARK  Name = 
REMARK  12 active torsions:
REMARK  status: ('A' for Active; 'I' for Inactive)
REMARK    1  A    between atoms: C_1  and  N_2
REMARK    2  A    between atoms: N_2  and  C_3
REMARK    3  A    between atoms: C_3  and  C_4
REMARK    4  A    between atoms: C_4  and  C_5
REMARK    5  A    between atoms: C_4  and  N_7
REMARK    6  A    between atoms: C_5  and  O_6
REMARK    7  A    between atoms: N_10  and  C_11
REMARK    8  A    between atoms: C_11  and  C_12
REMARK    9  A    between atoms: C_12  and  C_13
REMARK   10  A    between atoms: C_16  and  C_17
REMARK   11  A    between atoms: C_20  and  C_21
REMARK   12  A    between atoms: C_21  and  C_22
REMARK                            x       y       z     vdW  Elec       q    Type
REMARK                         _______ _______ _______ _____ _____    ______ ____
ROOT
ATOM      1  N   UNL     1       5.714   5.978  17.919  0.00  0.00    +0.000 NA
ATOM      2  C   UNL     1       5.438   7.356  17.456  0.00  0.00    +0.000 C 
ATOM      3  C   UNL     1       3.975   7.676  16.997  0.00  0.00    +0.000 C 
ATOM      4  N   UNL     1       2.832   7.094  17.761  0.00  0.00    +0.000 NA
ATOM      5  C   UNL     1       3.186   5.716  18.202  0.00  0.00    +0.000 C 
ATOM      6  C   UNL     1       4.611   5.666  18.862  0.00  0.00    +0.000 C 
ENDROOT
BRANCH   1   7
ATOM      7  C   UNL     1       5.848   4.941  16.836  0.00  0.00    +0.000 C 
BRANCH   7   8
ATOM      8  C   UNL     1       5.495   5.419  15.380  0.00  0.00    +0.000 C 
BRANCH   8  10
ATOM      9  C   UNL     1       6.318   4.052  13.507  0.00  0.00    +0.000 C 
ATOM     10  N   UNL     1       6.610   5.122  14.451  0.00  0.00    +0.000 NA
ATOM     11  H   UNL     1       6.848   5.944  13.906  0.00  0.00    +0.000 HD
ENDBRANCH   8  10
ENDBRANCH   7   8
BRANCH   7  12
ATOM     12  C   UNL     1       7.280   4.292  16.799  0.00  0.00    +0.000 C 
BRANCH  12  13
ATOM     13  O   UNL     1       7.906   4.208  18.078  0.00  0.00    +0.000 OA
ATOM     14  H   UNL     1       7.531   4.907  18.641  0.00  0.00    +0.000 HD
ENDBRANCH  12  13
ENDBRANCH   7  12
ENDBRANCH   1   7
BRANCH   4  15
ATOM     15  C   UNL     1       2.335   7.972  18.837  0.00  0.00    +0.000 C 
BRANCH  15  16
ATOM     16  C   UNL     1       1.456   9.169  18.372  0.00  0.00    +0.000 C 
BRANCH  16  17
ATOM     17  C   UNL     1       0.586   9.674  19.511  0.00  0.00    +0.000 A 
ATOM     18  C   UNL     1      -0.305  10.734  19.301  0.00  0.00    +0.000 A 
ATOM     19  C   UNL     1      -0.923  11.368  20.382  0.00  0.00    +0.000 A 
ATOM     20  C   UNL     1      -0.678  10.941  21.691  0.00  0.00    +0.000 A 
ATOM     21  C   UNL     1      -1.155  11.770  22.846  0.00  0.00    +0.000 C 
ATOM     22  C   UNL     1       0.103   9.799  21.893  0.00  0.00    +0.000 A 
ATOM     23  C   UNL     1       0.730   9.168  20.812  0.00  0.00    +0.000 A 
ENDBRANCH  16  17
ENDBRANCH  15  16
ENDBRANCH   4  15
BRANCH   5  24
ATOM     24  C   UNL     1       2.219   4.946  19.132  0.00  0.00    +0.000 C 
BRANCH  24  25
ATOM     25  C   UNL     1       1.975   3.440  18.874  0.00  0.00    +0.000 C 
ATOM     26  C   UNL     1       3.181   2.519  19.087  0.00  0.00    +0.000 C 
ATOM     27  C   UNL     1       3.663   2.471  20.535  0.00  0.00    +0.000 C 
ATOM     28  C   UNL     1       2.557   2.235  21.565  0.00  0.00    +0.000 C 
ATOM     29  C   UNL     1       1.233   2.935  21.272  0.00  0.00    +0.000 C 
ATOM     30  C   UNL     1       0.837   2.940  19.795  0.00  0.00    +0.000 C 
ENDBRANCH  24  25
ENDBRANCH   5  24
TORSDOF 10
ENDMDL
MODEL 2
REMARK VINA RESULT:      -7.2      0.915      1.851
REMARK  Name = 
REMARK  12 active torsions:
REMARK  status: ('A' for Active; 'I' for Inactive)
REMARK    1  A    between atoms: C_1  and  N_2
REMARK    2  A    between atoms: N_2  and  C_3
REMARK    3  A    between atoms: C_3  and  C_4
REMARK    4  A    between atoms: C_4  and  C_5
REMARK    5  A    between atoms: C_4  and  N_7
REMARK    6  A    between atoms: C_5  and  O_6
REMARK    7  A    between atoms: N_10  and  C_11
REMARK    8  A    between atoms: C_11  and  C_12
REMARK    9  A    between atoms: C_12  and  C_13
REMARK   10  A    between atoms: C_16  and  C_17
REMARK   11  A    between atoms: C_20  and  C_21
REMARK   12  A    between atoms: C_21  and  C_22
REMARK                            x       y       z     vdW  Elec       q    Type
REMARK                         _______ _______ _______ _____ _____    ______ ____
ROOT
ATOM      1  N   UNL     1       5.822   6.004  17.853  0.00  0.00    +0.000 NA
ATOM      2  C   UNL     1       4.861   6.974  17.283  0.00  0.00    +0.000 C 
ATOM      3  C   UNL     1       3.341   6.605  17.362  0.00  0.00    +0.000 C 
ATOM      4  N   UNL     1       2.818   5.948  18.596  0.00  0.00    +0.000 NA
ATOM      5  C   UNL     1       3.841   4.997  19.117  0.00  0.00    +0.000 C 
ATOM      6  C   UNL     1       5.265   5.656  19.184  0.00  0.00    +0.000 C 
ENDROOT
BRANCH   1   7
ATOM      7  C   UNL     1       6.094   4.786  17.013  0.00  0.00    +0.000 C 
BRANCH   7   8
ATOM      8  C   UNL     1       5.495   4.806  15.559  0.00  0.00    +0.000 C 
BRANCH   8  10
ATOM      9  C   UNL     1       6.239   3.939  13.380  0.00  0.00    +0.000 C 
ATOM     10  N   UNL     1       5.978   3.640  14.781  0.00  0.00    +0.000 NA
ATOM     11  H   UNL     1       6.840   3.281  15.175  0.00  0.00    +0.000 HD
ENDBRANCH   8  10
ENDBRANCH   7   8
BRANCH   7  12
ATOM     12  C   UNL     1       7.629   4.464  16.900  0.00  0.00    +0.000 C 
BRANCH  12  13
ATOM     13  O   UNL     1       8.216   4.028  18.124  0.00  0.00    +0.000 OA
ATOM     14  H   UNL     1       7.509   3.654  18.679  0.00  0.00    +0.000 HD
ENDBRANCH  12  13
ENDBRANCH   7  12
ENDBRANCH   1   7
BRANCH   4  15
ATOM     15  C   UNL     1       2.301   6.899  19.598  0.00  0.00    +0.000 C 
BRANCH  15  16
ATOM     16  C   UNL     1       1.852   8.281  19.040  0.00  0.00    +0.000 C 
BRANCH  16  17
ATOM     17  C   UNL     1       1.224   9.126  20.135  0.00  0.00    +0.000 A 
ATOM     18  C   UNL     1       1.241   8.683  21.464  0.00  0.00    +0.000 A 
ATOM     19  C   UNL     1       0.462   9.317  22.435  0.00  0.00    +0.000 A 
ATOM     20  C   UNL     1      -0.332  10.419  22.100  0.00  0.00    +0.000 A 
ATOM     21  C   UNL     1      -1.336  10.940  23.085  0.00  0.00    +0.000 C 
ATOM     22  C   UNL     1      -0.246  10.945  20.807  0.00  0.00    +0.000 A 
ATOM     23  C   UNL     1       0.528  10.306  19.832  0.00  0.00    +0.000 A 
ENDBRANCH  16  17
ENDBRANCH  15  16
ENDBRANCH   4  15
BRANCH   5  24
ATOM     24  C   UNL     1       3.596   4.288  20.470  0.00  0.00    +0.000 C 
BRANCH  24  25
ATOM     25  C   UNL     1       3.239   2.782  20.470  0.00  0.00    +0.000 C 
ATOM     26  C   UNL     1       1.841   2.426  20.986  0.00  0.00    +0.000 C 
ATOM     27  C   UNL     1       0.712   2.972  20.117  0.00  0.00    +0.000 C 
ATOM     28  C   UNL     1       0.871   2.696  18.620  0.00  0.00    +0.000 C 
ATOM     29  C   UNL     1       2.299   2.792  18.088  0.00  0.00    +0.000 C 
ATOM     30  C   UNL     1       3.361   2.227  19.031  0.00  0.00    +0.000 C 
ENDBRANCH  24  25
ENDBRANCH   5  24
TORSDOF 10
ENDMDL
MODEL 3
REMARK VINA RESULT:      -7.1      2.140      4.533
REMARK  Name = 
REMARK  12 active torsions:
REMARK  status: ('A' for Active; 'I' for Inactive)
REMARK    1  A    between atoms: C_1  and  N_2
REMARK    2  A    between atoms: N_2  and  C_3
REMARK    3  A    between atoms: C_3  and  C_4
REMARK    4  A    between atoms: C_4  and  C_5
REMARK    5  A    between atoms: C_4  and  N_7
REMARK    6  A    between atoms: C_5  and  O_6
REMARK    7  A    between atoms: N_10  and  C_11
REMARK    8  A    between atoms: C_11  and  C_12
REMARK    9  A    between atoms: C_12  and  C_13
REMARK   10  A    between atoms: C_16  and  C_17
REMARK   11  A    between atoms: C_20  and  C_21
REMARK   12  A    between atoms: C_21  and  C_22
REMARK                            x       y       z     vdW  Elec       q    Type
REMARK                         _______ _______ _______ _____ _____    ______ ____
ROOT
ATOM      1  N   UNL     1       2.039   3.691  19.014  0.00  0.00    +0.000 NA
ATOM      2  C   UNL     1       1.596   4.177  20.340  0.00  0.00    +0.000 C 
ATOM      3  C   UNL     1       2.390   5.374  20.964  0.00  0.00    +0.000 C 
ATOM      4  N   UNL     1       2.844   6.484  20.075  0.00  0.00    +0.000 NA
ATOM      5  C   UNL     1       3.262   5.922  18.760  0.00  0.00    +0.000 C 
ATOM      6  C   UNL     1       2.196   4.918  18.193  0.00  0.00    +0.000 C 
ENDROOT
BRANCH   1   7
ATOM      7  C   UNL     1       3.281   2.842  19.012  0.00  0.00    +0.000 C 
BRANCH   7   8
ATOM      8  C   UNL     1       3.671   2.192  20.390  0.00  0.00    +0.000 C 
BRANCH   8  10
ATOM      9  C   UNL     1       5.494   0.932  21.459  0.00  0.00    +0.000 C 
ATOM     10  N   UNL     1       5.123   1.901  20.437  0.00  0.00    +0.000 NA
ATOM     11  H   UNL     1       5.442   1.534  19.547  0.00  0.00    +0.000 HD
ENDBRANCH   8  10
ENDBRANCH   7   8
BRANCH   7  12
ATOM     12  C   UNL     1       3.226   1.698  17.936  0.00  0.00    +0.000 C 
BRANCH  12  13
ATOM     13  O   UNL     1       4.087   0.597  18.222  0.00  0.00    +0.000 OA
ATOM     14  H   UNL     1       4.213   0.559  19.186  0.00  0.00    +0.000 HD
ENDBRANCH  12  13
ENDBRANCH   7  12
ENDBRANCH   1   7
BRANCH   4  15
ATOM     15  C   UNL     1       1.882   7.599  19.986  0.00  0.00    +0.000 C 
BRANCH  15  16
ATOM     16  C   UNL     1       0.699   7.546  20.995  0.00  0.00    +0.000 C 
BRANCH  16  17
ATOM     17  C   UNL     1       0.262   8.947  21.388  0.00  0.00    +0.000 A 
ATOM     18  C   UNL     1      -0.001   9.252  22.730  0.00  0.00    +0.000 A 
ATOM     19  C   UNL     1      -0.634  10.448  23.076  0.00  0.00    +0.000 A 
ATOM     20  C   UNL     1      -0.998  11.370  22.089  0.00  0.00    +0.000 A 
ATOM     21  C   UNL     1      -1.882  12.530  22.443  0.00  0.00    +0.000 C 
ATOM     22  C   UNL     1      -0.616  11.129  20.766  0.00  0.00    +0.000 A 
ATOM     23  C   UNL     1       0.012   9.928  20.417  0.00  0.00    +0.000 A 
ENDBRANCH  16  17
ENDBRANCH  15  16
ENDBRANCH   4  15
BRANCH   5  24
ATOM     24  C   UNL     1       3.646   6.885  17.612  0.00  0.00    +0.000 C 
BRANCH  24  25
ATOM     25  C   UNL     1       5.132   6.988  17.189  0.00  0.00    +0.000 C 
ATOM     26  C   UNL     1       6.129   6.210  18.053  0.00  0.00    +0.000 C 
ATOM     27  C   UNL     1       5.936   4.696  17.995  0.00  0.00    +0.000 C 
ATOM     28  C   UNL     1       5.815   4.125  16.580  0.00  0.00    +0.000 C 
ATOM     29  C   UNL     1       5.034   4.988  15.593  0.00  0.00    +0.000 C 
ATOM     30  C   UNL     1       5.286   6.489  15.733  0.00  0.00    +0.000 C 
ENDBRANCH  24  25
ENDBRANCH   5  24
TORSDOF 10
ENDMDL
MODEL 4
REMARK VINA RESULT:      -7.1      1.002      1.663
REMARK  Name = 
REMARK  12 active torsions:
REMARK  status: ('A' for Active; 'I' for Inactive)
REMARK    1  A    between atoms: C_1  and  N_2
REMARK    2  A    between atoms: N_2  and  C_3
REMARK    3  A    between atoms: C_3  and  C_4
REMARK    4  A    between atoms: C_4  and  C_5
REMARK    5  A    between atoms: C_4  and  N_7
REMARK    6  A    between atoms: C_5  and  O_6
REMARK    7  A    between atoms: N_10  and  C_11
REMARK    8  A    between atoms: C_11  and  C_12
REMARK    9  A    between atoms: C_12  and  C_13
REMARK   10  A    between atoms: C_16  and  C_17
REMARK   11  A    between atoms: C_20  and  C_21
REMARK   12  A    between atoms: C_21  and  C_22
REMARK                            x       y       z     vdW  Elec       q    Type
REMARK                         _______ _______ _______ _____ _____    ______ ____
ROOT
ATOM      1  N   UNL     1       4.919   6.127  18.054  0.00  0.00    +0.000 NA
ATOM      2  C   UNL     1       4.398   7.394  17.496  0.00  0.00    +0.000 C 
ATOM      3  C   UNL     1       2.846   7.600  17.517  0.00  0.00    +0.000 C 
ATOM      4  N   UNL     1       2.071   7.143  18.708  0.00  0.00    +0.000 NA
ATOM      5  C   UNL     1       2.658   5.873  19.219  0.00  0.00    +0.000 C 
ATOM      6  C   UNL     1       4.220   5.969  19.353  0.00  0.00    +0.000 C 
ENDROOT
BRANCH   1   7
ATOM      7  C   UNL     1       4.767   4.916  17.174  0.00  0.00    +0.000 C 
BRANCH   7   8
ATOM      8  C   UNL     1       5.123   5.120  15.656  0.00  0.00    +0.000 C 
BRANCH   8  10
ATOM      9  C   UNL     1       6.578   4.232  13.881  0.00  0.00    +0.000 C 
ATOM     10  N   UNL     1       6.373   4.401  15.313  0.00  0.00    +0.000 NA
ATOM     11  H   UNL     1       7.180   4.897  15.674  0.00  0.00    +0.000 HD
ENDBRANCH   8  10
ENDBRANCH   7   8
BRANCH   7  12
ATOM     12  C   UNL     1       5.586   3.682  17.702  0.00  0.00    +0.000 C 
BRANCH  12  13
ATOM     13  O   UNL     1       6.871   4.024  18.220  0.00  0.00    +0.000 OA
ATOM     14  H   UNL     1       7.063   4.942  17.960  0.00  0.00    +0.000 HD
ENDBRANCH  12  13
ENDBRANCH   7  12
ENDBRANCH   1   7
BRANCH   4  15
ATOM     15  C   UNL     1       1.891   8.190  19.731  0.00  0.00    +0.000 C 
BRANCH  15  16
ATOM     16  C   UNL     1       1.128   9.463  19.262  0.00  0.00    +0.000 C 
BRANCH  16  17
ATOM     17  C   UNL     1       0.540  10.207  20.449  0.00  0.00    +0.000 A 
ATOM     18  C   UNL     1       0.067   9.498  21.561  0.00  0.00    +0.000 A 
ATOM     19  C   UNL     1      -0.694  10.139  22.541  0.00  0.00    +0.000 A 
ATOM     20  C   UNL     1      -0.980  11.504  22.439  0.00  0.00    +0.000 A 
ATOM     21  C   UNL     1      -1.986  12.126  23.361  0.00  0.00    +0.000 C 
ATOM     22  C   UNL     1      -0.396  12.240  21.403  0.00  0.00    +0.000 A 
ATOM     23  C   UNL     1       0.360  11.598  20.416  0.00  0.00    +0.000 A 
ENDBRANCH  16  17
ENDBRANCH  15  16
ENDBRANCH   4  15
BRANCH   5  24
ATOM     24  C   UNL     1       2.118   5.264  20.535  0.00  0.00    +0.000 C 
BRANCH  24  25
ATOM     25  C   UNL     1       1.106   4.095  20.458  0.00  0.00    +0.000 C 
ATOM     26  C   UNL     1       0.820   3.550  19.055  0.00  0.00    +0.000 C 
ATOM     27  C   UNL     1       2.033   2.903  18.392  0.00  0.00    +0.000 C 
ATOM     28  C   UNL     1       2.775   1.894  19.272  0.00  0.00    +0.000 C 
ATOM     29  C   UNL     1       2.877   2.268  20.748  0.00  0.00    +0.000 C 
ATOM     30  C   UNL     1       1.617   2.918  21.321  0.00  0.00    +0.000 C 
ENDBRANCH  24  25
ENDBRANCH   5  24
TORSDOF 10
ENDMDL
MODEL 5
REMARK VINA RESULT:      -7.0      1.207      2.091
REMARK  Name = 
REMARK  12 active torsions:
REMARK  status: ('A' for Active; 'I' for Inactive)
REMARK    1  A    between atoms: C_1  and  N_2
REMARK    2  A    between atoms: N_2  and  C_3
REMARK    3  A    between atoms: C_3  and  C_4
REMARK    4  A    between atoms: C_4  and  C_5
REMARK    5  A    between atoms: C_4  and  N_7
REMARK    6  A    between atoms: C_5  and  O_6
REMARK    7  A    between atoms: N_10  and  C_11
REMARK    8  A    between atoms: C_11  and  C_12
REMARK    9  A    between atoms: C_12  and  C_13
REMARK   10  A    between atoms: C_16  and  C_17
REMARK   11  A    between atoms: C_20  and  C_21
REMARK   12  A    between atoms: C_21  and  C_22
REMARK                            x       y       z     vdW  Elec       q    Type
REMARK                         _______ _______ _______ _____ _____    ______ ____
ROOT
ATOM      1  N   UNL     1       6.343   6.110  18.244  0.00  0.00    +0.000 NA
ATOM      2  C   UNL     1       5.637   6.878  17.195  0.00  0.00    +0.000 C 
ATOM      3  C   UNL     1       4.234   6.349  16.744  0.00  0.00    +0.000 C 
ATOM      4  N   UNL     1       3.300   5.805  17.774  0.00  0.00    +0.000 NA
ATOM      5  C   UNL     1       4.081   5.057  18.799  0.00  0.00    +0.000 C 
ATOM      6  C   UNL     1       5.323   5.880  19.297  0.00  0.00    +0.000 C 
ENDROOT
BRANCH   1   7
ATOM      7  C   UNL     1       6.993   4.831  17.790  0.00  0.00    +0.000 C 
BRANCH   7   8
ATOM      8  C   UNL     1       7.247   4.700  16.244  0.00  0.00    +0.000 C 
BRANCH   8  10
ATOM      9  C   UNL     1       5.960   3.963  14.280  0.00  0.00    +0.000 C 
ATOM     10  N   UNL     1       6.351   3.678  15.654  0.00  0.00    +0.000 NA
ATOM     11  H   UNL     1       6.799   2.768  15.654  0.00  0.00    +0.000 HD
ENDBRANCH   8  10
ENDBRANCH   7   8
BRANCH   7  12
ATOM     12  C   UNL     1       8.352   4.552  18.529  0.00  0.00    +0.000 C 
BRANCH  12  13
ATOM     13  O   UNL     1       8.483   5.239  19.772  0.00  0.00    +0.000 OA
ATOM     14  H   UNL     1       8.239   4.621  20.483  0.00  0.00    +0.000 HD
ENDBRANCH  12  13
ENDBRANCH   7  12
ENDBRANCH   1   7
BRANCH   4  15
ATOM     15  C   UNL     1       2.376   6.815  18.325  0.00  0.00    +0.000 C 
BRANCH  15  16
ATOM     16  C   UNL     1       2.562   8.261  17.782  0.00  0.00    +0.000 C 
BRANCH  16  17
ATOM     17  C   UNL     1       1.799   9.260  18.635  0.00  0.00    +0.000 A 
ATOM     18  C   UNL     1       1.241   8.862  19.856  0.00  0.00    +0.000 A 
ATOM     19  C   UNL     1       0.336   9.687  20.527  0.00  0.00    +0.000 A 
ATOM     20  C   UNL     1      -0.012  10.935  20.000  0.00  0.00    +0.000 A 
ATOM     21  C   UNL     1      -1.153  11.705  20.598  0.00  0.00    +0.000 C 
ATOM     22  C   UNL     1       0.645  11.391  18.853  0.00  0.00    +0.000 A 
ATOM     23  C   UNL     1       1.546  10.561  18.175  0.00  0.00    +0.000 A 
ENDBRANCH  16  17
ENDBRANCH  15  16
ENDBRANCH   4  15
BRANCH   5  24
ATOM     24  C   UNL     1       3.358   4.510  20.053  0.00  0.00    +0.000 C 
BRANCH  24  25
ATOM     25  C   UNL     1       3.258   2.978  20.248  0.00  0.00    +0.000 C 
ATOM     26  C   UNL     1       2.033   2.480  21.021  0.00  0.00    +0.000 C 
ATOM     27  C   UNL     1       0.710   2.748  20.307  0.00  0.00    +0.000 C 
ATOM     28  C   UNL     1       0.685   2.327  18.836  0.00  0.00    +0.000 C 
ATOM     29  C   UNL     1       1.980   2.572  18.066  0.00  0.00    +0.000 C 
ATOM     30  C   UNL     1       3.252   2.284  18.865  0.00  0.00    +0.000 C 
ENDBRANCH  24  25
ENDBRANCH   5  24
TORSDOF 10
ENDMDL
MODEL 6
REMARK VINA RESULT:      -7.0      1.073      1.694
REMARK  Name = 
REMARK  12 active torsions:
REMARK  status: ('A' for Active; 'I' for Inactive)
REMARK    1  A    between atoms: C_1  and  N_2
REMARK    2  A    between atoms: N_2  and  C_3
REMARK    3  A    between atoms: C_3  and  C_4
REMARK    4  A    between atoms: C_4  and  C_5
REMARK    5  A    between atoms: C_4  and  N_7
REMARK    6  A    between atoms: C_5  and  O_6
REMARK    7  A    between atoms: N_10  and  C_11
REMARK    8  A    between atoms: C_11  and  C_12
REMARK    9  A    between atoms: C_12  and  C_13
REMARK   10  A    between atoms: C_16  and  C_17
REMARK   11  A    between atoms: C_20  and  C_21
REMARK   12  A    between atoms: C_21  and  C_22
REMARK                            x       y       z     vdW  Elec       q    Type
REMARK                         _______ _______ _______ _____ _____    ______ ____
ROOT
ATOM      1  N   UNL     1       5.840   6.122  17.861  0.00  0.00    +0.000 NA
ATOM      2  C   UNL     1       5.271   7.269  17.119  0.00  0.00    +0.000 C 
ATOM      3  C   UNL     1       3.729   7.250  16.849  0.00  0.00    +0.000 C 
ATOM      4  N   UNL     1       2.812   6.754  17.917  0.00  0.00    +0.000 NA
ATOM      5  C   UNL     1       3.454   5.611  18.625  0.00  0.00    +0.000 C 
ATOM      6  C   UNL     1       4.938   5.937  19.025  0.00  0.00    +0.000 C 
ENDROOT
BRANCH   1   7
ATOM      7  C   UNL     1       6.014   4.854  17.068  0.00  0.00    +0.000 C 
BRANCH   7   8
ATOM      8  C   UNL     1       5.397   4.858  15.622  0.00  0.00    +0.000 C 
BRANCH   8  10
ATOM      9  C   UNL     1       6.281   4.010  13.489  0.00  0.00    +0.000 C 
ATOM     10  N   UNL     1       5.873   3.687  14.849  0.00  0.00    +0.000 NA
ATOM     11  H   UNL     1       6.670   3.258  15.306  0.00  0.00    +0.000 HD
ENDBRANCH   8  10
ENDBRANCH   7   8
BRANCH   7  12
ATOM     12  C   UNL     1       7.521   4.421  16.950  0.00  0.00    +0.000 C 
BRANCH  12  13
ATOM     13  O   UNL     1       8.127   4.099  18.200  0.00  0.00    +0.000 OA
ATOM     14  H   UNL     1       8.457   4.926  18.594  0.00  0.00    +0.000 HD
ENDBRANCH  12  13
ENDBRANCH   7  12
ENDBRANCH   1   7
BRANCH   4  15
ATOM     15  C   UNL     1       2.310   7.819  18.805  0.00  0.00    +0.000 C 
BRANCH  15  16
ATOM     16  C   UNL     1       2.020   9.184  18.117  0.00  0.00    +0.000 C 
BRANCH  16  17
ATOM     17  C   UNL     1       0.744   9.803  18.662  0.00  0.00    +0.000 A 
ATOM     18  C   UNL     1      -0.400   9.884  17.858  0.00  0.00    +0.000 A 
ATOM     19  C   UNL     1      -1.491  10.663  18.249  0.00  0.00    +0.000 A 
ATOM     20  C   UNL     1      -1.468  11.359  19.463  0.00  0.00    +0.000 A 
ATOM     21  C   UNL     1      -2.534  12.371  19.761  0.00  0.00    +0.000 C 
ATOM     22  C   UNL     1      -0.385  11.171  20.328  0.00  0.00    +0.000 A 
ATOM     23  C   UNL     1       0.712  10.397  19.933  0.00  0.00    +0.000 A 
ENDBRANCH  16  17
ENDBRANCH  15  16
ENDBRANCH   4  15
BRANCH   5  24
ATOM     24  C   UNL     1       2.763   5.005  19.869  0.00  0.00    +0.000 C 
BRANCH  24  25
ATOM     25  C   UNL     1       1.729   3.871  19.670  0.00  0.00    +0.000 C 
ATOM     26  C   UNL     1       1.364   3.544  18.219  0.00  0.00    +0.000 C 
ATOM     27  C   UNL     1       2.532   2.991  17.406  0.00  0.00    +0.000 C 
ATOM     28  C   UNL     1       3.298   1.855  18.087  0.00  0.00    +0.000 C 
ATOM     29  C   UNL     1       3.479   2.003  19.595  0.00  0.00    +0.000 C 
ATOM     30  C   UNL     1       2.260   2.572  20.322  0.00  0.00    +0.000 C 
ENDBRANCH  24  25
ENDBRANCH   5  24
TORSDOF 10
ENDMDL
MODEL 7
REMARK VINA RESULT:      -6.9      1.003      1.723
REMARK  Name = 
REMARK  12 active torsions:
REMARK  status: ('A' for Active; 'I' for Inactive)
REMARK    1  A    between atoms: C_1  and  N_2
REMARK    2  A    between atoms: N_2  and  C_3
REMARK    3  A    between atoms: C_3  and  C_4
REMARK    4  A    between atoms: C_4  and  C_5
REMARK    5  A    between atoms: C_4  and  N_7
REMARK    6  A    between atoms: C_5  and  O_6
REMARK    7  A    between atoms: N_10  and  C_11
REMARK    8  A    between atoms: C_11  and  C_12
REMARK    9  A    between atoms: C_12  and  C_13
REMARK   10  A    between atoms: C_16  and  C_17
REMARK   11  A    between atoms: C_20  and  C_21
REMARK   12  A    between atoms: C_21  and  C_22
REMARK                            x       y       z     vdW  Elec       q    Type
REMARK                         _______ _______ _______ _____ _____    ______ ____
ROOT
ATOM      1  N   UNL     1       5.233   6.266  17.843  0.00  0.00    +0.000 NA
ATOM      2  C   UNL     1       4.128   7.163  17.438  0.00  0.00    +0.000 C 
ATOM      3  C   UNL     1       2.667   6.648  17.670  0.00  0.00    +0.000 C 
ATOM      4  N   UNL     1       2.356   5.892  18.919  0.00  0.00    +0.000 NA
ATOM      5  C   UNL     1       3.514   5.022  19.269  0.00  0.00    +0.000 C 
ATOM      6  C   UNL     1       4.871   5.811  19.208  0.00  0.00    +0.000 C 
ENDROOT
BRANCH   1   7
ATOM      7  C   UNL     1       5.512   5.115  16.914  0.00  0.00    +0.000 C 
BRANCH   7   8
ATOM      8  C   UNL     1       5.607   5.473  15.386  0.00  0.00    +0.000 C 
BRANCH   8  10
ATOM      9  C   UNL     1       6.186   3.927  13.561  0.00  0.00    +0.000 C 
ATOM     10  N   UNL     1       5.194   4.319  14.554  0.00  0.00    +0.000 NA
ATOM     11  H   UNL     1       5.015   3.507  15.134  0.00  0.00    +0.000 HD
ENDBRANCH   8  10
ENDBRANCH   7   8
BRANCH   7  12
ATOM     12  C   UNL     1       6.814   4.326  17.308  0.00  0.00    +0.000 C 
BRANCH  12  13
ATOM     13  O   UNL     1       7.910   4.547  16.423  0.00  0.00    +0.000 OA
ATOM     14  H   UNL     1       7.658   5.257  15.806  0.00  0.00    +0.000 HD
ENDBRANCH  12  13
ENDBRANCH   7  12
ENDBRANCH   1   7
BRANCH   4  15
ATOM     15  C   UNL     1       1.878   6.747  20.022  0.00  0.00    +0.000 C 
BRANCH  15  16
ATOM     16  C   UNL     1       1.956   8.280  19.765  0.00  0.00    +0.000 C 
BRANCH  16  17
ATOM     17  C   UNL     1       0.924   9.020  20.597  0.00  0.00    +0.000 A 
ATOM     18  C   UNL     1       0.091   9.976  20.001  0.00  0.00    +0.000 A 
ATOM     19  C   UNL     1      -0.682  10.834  20.785  0.00  0.00    +0.000 A 
ATOM     20  C   UNL     1      -0.654  10.740  22.181  0.00  0.00    +0.000 A 
ATOM     21  C   UNL     1      -1.297  11.809  23.013  0.00  0.00    +0.000 C 
ATOM     22  C   UNL     1       0.070   9.700  22.772  0.00  0.00    +0.000 A 
ATOM     23  C   UNL     1       0.853   8.845  21.988  0.00  0.00    +0.000 A 
ENDBRANCH  16  17
ENDBRANCH  15  16
ENDBRANCH   4  15
BRANCH   5  24
ATOM     24  C   UNL     1       3.496   4.237  20.602  0.00  0.00    +0.000 C 
BRANCH  24  25
ATOM     25  C   UNL     1       3.102   2.740  20.581  0.00  0.00    +0.000 C 
ATOM     26  C   UNL     1       1.673   2.418  21.028  0.00  0.00    +0.000 C 
ATOM     27  C   UNL     1       0.601   2.993  20.106  0.00  0.00    +0.000 C 
ATOM     28  C   UNL     1       0.826   2.714  18.618  0.00  0.00    +0.000 C 
ATOM     29  C   UNL     1       2.279   2.775  18.156  0.00  0.00    +0.000 C 
ATOM     30  C   UNL     1       3.281   2.183  19.149  0.00  0.00    +0.000 C 
ENDBRANCH  24  25
ENDBRANCH   5  24
TORSDOF 10
ENDMDL
MODEL 8
REMARK VINA RESULT:      -6.9      1.032      1.270
REMARK  Name = 
REMARK  12 active torsions:
REMARK  status: ('A' for Active; 'I' for Inactive)
REMARK    1  A    between atoms: C_1  and  N_2
REMARK    2  A    between atoms: N_2  and  C_3
REMARK    3  A    between atoms: C_3  and  C_4
REMARK    4  A    between atoms: C_4  and  C_5
REMARK    5  A    between atoms: C_4  and  N_7
REMARK    6  A    between atoms: C_5  and  O_6
REMARK    7  A    between atoms: N_10  and  C_11
REMARK    8  A    between atoms: C_11  and  C_12
REMARK    9  A    between atoms: C_12  and  C_13
REMARK   10  A    between atoms: C_16  and  C_17
REMARK   11  A    between atoms: C_20  and  C_21
REMARK   12  A    between atoms: C_21  and  C_22
REMARK                            x       y       z     vdW  Elec       q    Type
REMARK                         _______ _______ _______ _____ _____    ______ ____
ROOT
ATOM      1  N   UNL     1       5.561   6.118  18.268  0.00  0.00    +0.000 NA
ATOM      2  C   UNL     1       5.256   7.355  17.515  0.00  0.00    +0.000 C 
ATOM      3  C   UNL     1       3.808   7.500  16.936  0.00  0.00    +0.000 C 
ATOM      4  N   UNL     1       2.650   7.034  17.755  0.00  0.00    +0.000 NA
ATOM      5  C   UNL     1       3.034   5.796  18.491  0.00  0.00    +0.000 C 
ATOM      6  C   UNL     1       4.423   5.956  19.207  0.00  0.00    +0.000 C 
ENDROOT
BRANCH   1   7
ATOM      7  C   UNL     1       5.792   4.887  17.435  0.00  0.00    +0.000 C 
BRANCH   7   8
ATOM      8  C   UNL     1       5.879   5.116  15.881  0.00  0.00    +0.000 C 
BRANCH   8  10
ATOM      9  C   UNL     1       6.188   3.946  13.739  0.00  0.00    +0.000 C 
ATOM     10  N   UNL     1       5.924   3.819  15.166  0.00  0.00    +0.000 NA
ATOM     11  H   UNL     1       6.647   3.223  15.552  0.00  0.00    +0.000 HD
ENDBRANCH   8  10
ENDBRANCH   7   8
BRANCH   7  12
ATOM     12  C   UNL     1       7.074   4.092  17.879  0.00  0.00    +0.000 C 
BRANCH  12  13
ATOM     13  O   UNL     1       8.146   4.159  16.941  0.00  0.00    +0.000 OA
ATOM     14  H   UNL     1       8.014   3.454  16.284  0.00  0.00    +0.000 HD
ENDBRANCH  12  13
ENDBRANCH   7  12
ENDBRANCH   1   7
BRANCH   4  15
ATOM     15  C   UNL     1       2.062   8.090  18.600  0.00  0.00    +0.000 C 
BRANCH  15  16
ATOM     16  C   UNL     1       1.586   9.365  17.845  0.00  0.00    +0.000 C 
BRANCH  16  17
ATOM     17  C   UNL     1       0.383   9.984  18.536  0.00  0.00    +0.000 A 
ATOM     18  C   UNL     1      -0.848  10.060  17.873  0.00  0.00    +0.000 A 
ATOM     19  C   UNL     1      -1.887  10.838  18.389  0.00  0.00    +0.000 A 
ATOM     20  C   UNL     1      -1.721  11.539  19.589  0.00  0.00    +0.000 A 
ATOM     21  C   UNL     1      -2.746  12.550  20.008  0.00  0.00    +0.000 C 
ATOM     22  C   UNL     1      -0.543  11.356  20.320  0.00  0.00    +0.000 A 
ATOM     23  C   UNL     1       0.502  10.583  19.799  0.00  0.00    +0.000 A 
ENDBRANCH  16  17
ENDBRANCH  15  16
ENDBRANCH   4  15
BRANCH   5  24
ATOM     24  C   UNL     1       2.051   5.190  19.519  0.00  0.00    +0.000 C 
BRANCH  24  25
ATOM     25  C   UNL     1       1.544   3.743  19.305  0.00  0.00    +0.000 C 
ATOM     26  C   UNL     1       2.602   2.721  18.876  0.00  0.00    +0.000 C 
ATOM     27  C   UNL     1       3.678   2.477  19.931  0.00  0.00    +0.000 C 
ATOM     28  C   UNL     1       3.141   2.209  21.338  0.00  0.00    +0.000 C 
ATOM     29  C   UNL     1       1.917   3.031  21.737  0.00  0.00    +0.000 C 
ATOM     30  C   UNL     1       0.899   3.227  20.613  0.00  0.00    +0.000 C 
ENDBRANCH  24  25
ENDBRANCH   5  24
TORSDOF 10
ENDMDL
MODEL 9
REMARK VINA RESULT:      -6.9      1.559      2.184
REMARK  Name = 
REMARK  12 active torsions:
REMARK  status: ('A' for Active; 'I' for Inactive)
REMARK    1  A    between atoms: C_1  and  N_2
REMARK    2  A    between atoms: N_2  and  C_3
REMARK    3  A    between atoms: C_3  and  C_4
REMARK    4  A    between atoms: C_4  and  C_5
REMARK    5  A    between atoms: C_4  and  N_7
REMARK    6  A    between atoms: C_5  and  O_6
REMARK    7  A    between atoms: N_10  and  C_11
REMARK    8  A    between atoms: C_11  and  C_12
REMARK    9  A    between atoms: C_12  and  C_13
REMARK   10  A    between atoms: C_16  and  C_17
REMARK   11  A    between atoms: C_20  and  C_21
REMARK   12  A    between atoms: C_21  and  C_22
REMARK                            x       y       z     vdW  Elec       q    Type
REMARK                         _______ _______ _______ _____ _____    ______ ____
ROOT
ATOM      1  N   UNL     1       6.857   5.235  17.229  0.00  0.00    +0.000 NA
ATOM      2  C   UNL     1       6.695   6.704  17.297  0.00  0.00    +0.000 C 
ATOM      3  C   UNL     1       5.333   7.297  16.802  0.00  0.00    +0.000 C 
ATOM      4  N   UNL     1       4.068   6.571  17.123  0.00  0.00    +0.000 NA
ATOM      5  C   UNL     1       4.310   5.103  17.046  0.00  0.00    +0.000 C 
ATOM      6  C   UNL     1       5.611   4.688  17.822  0.00  0.00    +0.000 C 
ENDROOT
BRANCH   1   7
ATOM      7  C   UNL     1       7.131   4.672  15.861  0.00  0.00    +0.000 C 
BRANCH   7   8
ATOM      8  C   UNL     1       6.057   3.669  15.302  0.00  0.00    +0.000 C 
BRANCH   8  10
ATOM      9  C   UNL     1       5.700   3.319  12.893  0.00  0.00    +0.000 C 
ATOM     10  N   UNL     1       5.470   4.183  14.042  0.00  0.00    +0.000 NA
ATOM     11  H   UNL     1       4.466   4.295  14.136  0.00  0.00    +0.000 HD
ENDBRANCH   8  10
ENDBRANCH   7   8
BRANCH   7  12
ATOM     12  C   UNL     1       7.352   5.795  14.782  0.00  0.00    +0.000 C 
BRANCH  12  13
ATOM     13  O   UNL     1       8.278   5.434  13.758  0.00  0.00    +0.000 OA
ATOM     14  H   UNL     1       8.081   4.521  13.485  0.00  0.00    +0.000 HD
ENDBRANCH  12  13
ENDBRANCH   7  12
ENDBRANCH   1   7
BRANCH   4  15
ATOM     15  C   UNL     1       3.432   7.021  18.375  0.00  0.00    +0.000 C 
BRANCH  15  16
ATOM     16  C   UNL     1       1.959   7.505  18.242  0.00  0.00    +0.000 C 
BRANCH  16  17
ATOM     17  C   UNL     1       1.575   8.393  19.414  0.00  0.00    +0.000 A 
ATOM     18  C   UNL     1       1.611   7.890  20.720  0.00  0.00    +0.000 A 
ATOM     19  C   UNL     1       1.031   8.602  21.773  0.00  0.00    +0.000 A 
ATOM     20  C   UNL     1       0.423   9.840  21.542  0.00  0.00    +0.000 A 
ATOM     21  C   UNL     1      -0.397  10.481  22.623  0.00  0.00    +0.000 C 
ATOM     22  C   UNL     1       0.505  10.406  20.266  0.00  0.00    +0.000 A 
ATOM     23  C   UNL     1       1.078   9.689  19.208  0.00  0.00    +0.000 A 
ENDBRANCH  16  17
ENDBRANCH  15  16
ENDBRANCH   4  15
BRANCH   5  24
ATOM     24  C   UNL     1       3.188   4.126  17.470  0.00  0.00    +0.000 C 
BRANCH  24  25
ATOM     25  C   UNL     1       3.400   3.245  18.725  0.00  0.00    +0.000 C 
ATOM     26  C   UNL     1       3.080   3.907  20.069  0.00  0.00    +0.000 C 
ATOM     27  C   UNL     1       1.606   4.267  20.236  0.00  0.00    +0.000 C 
ATOM     28  C   UNL     1       0.632   3.138  19.893  0.00  0.00    +0.000 C 
ATOM     29  C   UNL     1       1.030   2.275  18.699  0.00  0.00    +0.000 C 
ATOM     30  C   UNL     1       2.527   1.973  18.610  0.00  0.00    +0.000 C 
ENDBRANCH  24  25
ENDBRANCH   5  24
TORSDOF 10
ENDMDL
