MODEL 1
REMARK VINA RESULT:      -8.5      0.000      0.000
REMARK  Name = 
REMARK  9 active torsions:
REMARK  status: ('A' for Active; 'I' for Inactive)
REMARK    1  A    between atoms: C_1  and  C_2
REMARK    2  A    between atoms: C_2  and  O_3
REMARK    3  A    between atoms: C_2  and  C_4
REMARK    4  A    between atoms: C_2  and  C_21
REMARK    5  A    between atoms: C_4  and  N_5
REMARK    6  A    between atoms: C_12  and  C_13
REMARK    7  A    between atoms: N_23  and  C_24
REMARK    8  A    between atoms: C_27  and  C_28
REMARK    9  A    between atoms: C_30  and  C_31
REMARK                            x       y       z     vdW  Elec       q    Type
REMARK                         _______ _______ _______ _____ _____    ______ ____
ROOT
ATOM      1  C   UNL     1      -0.570   9.772  23.083  0.00  0.00    +0.000 C 
ATOM      2  C   UNL     1       0.595   9.706  22.105  0.00  0.00    +0.000 C 
ENDROOT
BRANCH   2   3
ATOM      3  C   UNL     1       0.672   8.380  21.318  0.00  0.00    +0.000 C 
ATOM      4  O   UNL     1      -0.360   7.701  21.271  0.00  0.00    +0.000 OA
ATOM      5  N   UNL     1       1.895   8.000  20.787  0.00  0.00    +0.000 N 
ATOM      6  H   UNL     1       2.728   8.488  21.110  0.00  0.00    +0.000 HD
BRANCH   5   7
ATOM      7  C   UNL     1       2.104   6.794  20.072  0.00  0.00    +0.000 A 
ATOM      8  C   UNL     1       2.387   6.785  18.707  0.00  0.00    +0.000 A 
ATOM      9  C   UNL     1       2.452   5.591  17.992  0.00  0.00    +0.000 A 
ATOM     10  C   UNL     1       2.241   4.366  18.633  0.00  0.00    +0.000 A 
ATOM     11  C   UNL     1       2.001   4.342  20.019  0.00  0.00    +0.000 A 
ATOM     12  C   UNL     1       1.976   5.567  20.736  0.00  0.00    +0.000 A 
BRANCH  11  13
ATOM     13  C   UNL     1       1.704   3.062  20.770  0.00  0.00    +0.000 C 
ATOM     14  F   UNL     1       0.583   2.407  20.379  0.00  0.00    +0.000 F 
ATOM     15  F   UNL     1       2.718   2.159  20.667  0.00  0.00    +0.000 F 
ATOM     16  F   UNL     1       1.546   3.290  22.104  0.00  0.00    +0.000 F 
ENDBRANCH  11  13
BRANCH  10  17
ATOM     17  C   UNL     1       2.269   3.187  17.810  0.00  0.00    +0.000 C 
ATOM     18  N   UNL     1       2.321   2.258  17.126  0.00  0.00    +0.000 NA
ENDBRANCH  10  17
ENDBRANCH   5   7
ENDBRANCH   2   3
BRANCH   2  19
ATOM     19  O   UNL     1       1.791   9.732  22.930  0.00  0.00    +0.000 OA
ATOM     20  H   UNL     1       2.224   8.858  22.799  0.00  0.00    +0.000 HD
ENDBRANCH   2  19
BRANCH   2  21
ATOM     21  C   UNL     1       0.710  10.913  21.161  0.00  0.00    +0.000 C 
BRANCH  21  22
ATOM     22  N   UNL     1      -0.211  10.924  20.041  0.00  0.00    +0.000 N 
ATOM     23  C   UNL     1       0.054  10.330  18.833  0.00  0.00    +0.000 A 
ATOM     24  C   UNL     1      -1.049  10.487  18.030  0.00  0.00    +0.000 A 
ATOM     25  C   UNL     1      -2.009  11.232  18.764  0.00  0.00    +0.000 A 
ATOM     26  C   UNL     1      -3.299  11.693  18.473  0.00  0.00    +0.000 A 
ATOM     27  C   UNL     1      -3.995  12.426  19.438  0.00  0.00    +0.000 A 
ATOM     28  F   UNL     1      -5.227  12.840  19.100  0.00  0.00    +0.000 F 
ATOM     29  C   UNL     1      -3.456  12.739  20.697  0.00  0.00    +0.000 A 
ATOM     30  C   UNL     1      -2.144  12.291  20.969  0.00  0.00    +0.000 A 
ATOM     31  C   UNL     1      -1.453  11.525  20.010  0.00  0.00    +0.000 A 
BRANCH  29  32
ATOM     32  C   UNL     1      -4.225  13.510  21.710  0.00  0.00    +0.000 A 
ATOM     33  C   UNL     1      -4.866  12.872  22.790  0.00  0.00    +0.000 A 
ATOM     34  C   UNL     1      -5.638  13.584  23.714  0.00  0.00    +0.000 A 
ATOM     35  C   UNL     1      -5.762  14.963  23.600  0.00  0.00    +0.000 A 
ATOM     36  C   UNL     1      -5.106  15.629  22.571  0.00  0.00    +0.000 A 
ATOM     37  C   UNL     1      -4.353  14.910  21.635  0.00  0.00    +0.000 A 
ENDBRANCH  29  32
ENDBRANCH  21  22
ENDBRANCH   2  21
TORSDOF 8
ENDMDL
MODEL 2
REMARK VINA RESULT:      -8.1      1.987      2.542
REMARK  Name = 
REMARK  9 active torsions:
REMARK  status: ('A' for Active; 'I' for Inactive)
REMARK    1  A    between atoms: C_1  and  C_2
REMARK    2  A    between atoms: C_2  and  O_3
REMARK    3  A    between atoms: C_2  and  C_4
REMARK    4  A    between atoms: C_2  and  C_21
REMARK    5  A    between atoms: C_4  and  N_5
REMARK    6  A    between atoms: C_12  and  C_13
REMARK    7  A    between atoms: N_23  and  C_24
REMARK    8  A    between atoms: C_27  and  C_28
REMARK    9  A    between atoms: C_30  and  C_31
REMARK                            x       y       z     vdW  Elec       q    Type
REMARK                         _______ _______ _______ _____ _____    ______ ____
ROOT
ATOM      1  C   UNL     1      -0.452   9.514  20.410  0.00  0.00    +0.000 C 
ATOM      2  C   UNL     1       0.481  10.281  19.482  0.00  0.00    +0.000 C 
ENDROOT
BRANCH   2   3
ATOM      3  C   UNL     1       1.446   9.376  18.686  0.00  0.00    +0.000 C 
ATOM      4  O   UNL     1       1.757   9.759  17.552  0.00  0.00    +0.000 OA
ATOM      5  N   UNL     1       1.836   8.172  19.251  0.00  0.00    +0.000 N 
ATOM      6  H   UNL     1       1.317   7.832  20.058  0.00  0.00    +0.000 HD
BRANCH   5   7
ATOM      7  C   UNL     1       2.692   7.241  18.610  0.00  0.00    +0.000 A 
ATOM      8  C   UNL     1       3.752   7.649  17.801  0.00  0.00    +0.000 A 
ATOM      9  C   UNL     1       4.496   6.727  17.069  0.00  0.00    +0.000 A 
ATOM     10  C   UNL     1       4.200   5.361  17.135  0.00  0.00    +0.000 A 
ATOM     11  C   UNL     1       3.167   4.917  17.979  0.00  0.00    +0.000 A 
ATOM     12  C   UNL     1       2.445   5.869  18.746  0.00  0.00    +0.000 A 
BRANCH  11  13
ATOM     13  C   UNL     1       2.750   3.465  18.057  0.00  0.00    +0.000 C 
ATOM     14  F   UNL     1       2.383   2.902  16.878  0.00  0.00    +0.000 F 
ATOM     15  F   UNL     1       3.738   2.672  18.557  0.00  0.00    +0.000 F 
ATOM     16  F   UNL     1       1.683   3.294  18.888  0.00  0.00    +0.000 F 
ENDBRANCH  11  13
BRANCH  10  17
ATOM     17  C   UNL     1       4.980   4.485  16.303  0.00  0.00    +0.000 C 
ATOM     18  N   UNL     1       5.616   3.759  15.669  0.00  0.00    +0.000 NA
ENDBRANCH  10  17
ENDBRANCH   5   7
ENDBRANCH   2   3
BRANCH   2  19
ATOM     19  O   UNL     1       1.329  11.070  20.358  0.00  0.00    +0.000 OA
ATOM     20  H   UNL     1       1.878  11.629  19.764  0.00  0.00    +0.000 HD
ENDBRANCH   2  19
BRANCH   2  21
ATOM     21  C   UNL     1      -0.219  11.287  18.556  0.00  0.00    +0.000 C 
BRANCH  21  22
ATOM     22  N   UNL     1      -1.533  10.896  18.083  0.00  0.00    +0.000 N 
ATOM     23  C   UNL     1      -1.739  10.000  17.065  0.00  0.00    +0.000 A 
ATOM     24  C   UNL     1      -3.094   9.826  16.918  0.00  0.00    +0.000 A 
ATOM     25  C   UNL     1      -3.737  10.671  17.859  0.00  0.00    +0.000 A 
ATOM     26  C   UNL     1      -5.080  10.921  18.170  0.00  0.00    +0.000 A 
ATOM     27  C   UNL     1      -5.387  11.845  19.173  0.00  0.00    +0.000 A 
ATOM     28  F   UNL     1      -6.691  12.041  19.426  0.00  0.00    +0.000 F 
ATOM     29  C   UNL     1      -4.406  12.554  19.887  0.00  0.00    +0.000 A 
ATOM     30  C   UNL     1      -3.056  12.312  19.546  0.00  0.00    +0.000 A 
ATOM     31  C   UNL     1      -2.744  11.359  18.557  0.00  0.00    +0.000 A 
BRANCH  29  32
ATOM     32  C   UNL     1      -4.761  13.521  20.959  0.00  0.00    +0.000 A 
ATOM     33  C   UNL     1      -5.123  14.850  20.662  0.00  0.00    +0.000 A 
ATOM     34  C   UNL     1      -5.403  15.780  21.668  0.00  0.00    +0.000 A 
ATOM     35  C   UNL     1      -5.360  15.395  23.002  0.00  0.00    +0.000 A 
ATOM     36  C   UNL     1      -5.049  14.080  23.329  0.00  0.00    +0.000 A 
ATOM     37  C   UNL     1      -4.747  13.158  22.319  0.00  0.00    +0.000 A 
ENDBRANCH  29  32
ENDBRANCH  21  22
ENDBRANCH   2  21
TORSDOF 8
ENDMDL
MODEL 3
REMARK VINA RESULT:      -8.1      2.013      2.492
REMARK  Name = 
REMARK  9 active torsions:
REMARK  status: ('A' for Active; 'I' for Inactive)
REMARK    1  A    between atoms: C_1  and  C_2
REMARK    2  A    between atoms: C_2  and  O_3
REMARK    3  A    between atoms: C_2  and  C_4
REMARK    4  A    between atoms: C_2  and  C_21
REMARK    5  A    between atoms: C_4  and  N_5
REMARK    6  A    between atoms: C_12  and  C_13
REMARK    7  A    between atoms: N_23  and  C_24
REMARK    8  A    between atoms: C_27  and  C_28
REMARK    9  A    between atoms: C_30  and  C_31
REMARK                            x       y       z     vdW  Elec       q    Type
REMARK                         _______ _______ _______ _____ _____    ______ ____
ROOT
ATOM      1  C   UNL     1      -0.469   9.465  20.332  0.00  0.00    +0.000 C 
ATOM      2  C   UNL     1       0.478  10.230  19.418  0.00  0.00    +0.000 C 
ENDROOT
BRANCH   2   3
ATOM      3  C   UNL     1       1.441   9.324  18.621  0.00  0.00    +0.000 C 
ATOM      4  O   UNL     1       1.714   9.680  17.469  0.00  0.00    +0.000 OA
ATOM      5  N   UNL     1       1.870   8.143  19.209  0.00  0.00    +0.000 N 
ATOM      6  H   UNL     1       1.379   7.816  20.038  0.00  0.00    +0.000 HD
BRANCH   5   7
ATOM      7  C   UNL     1       2.728   7.212  18.571  0.00  0.00    +0.000 A 
ATOM      8  C   UNL     1       3.824   7.619  17.811  0.00  0.00    +0.000 A 
ATOM      9  C   UNL     1       4.573   6.702  17.079  0.00  0.00    +0.000 A 
ATOM     10  C   UNL     1       4.247   5.342  17.096  0.00  0.00    +0.000 A 
ATOM     11  C   UNL     1       3.176   4.897  17.891  0.00  0.00    +0.000 A 
ATOM     12  C   UNL     1       2.449   5.843  18.660  0.00  0.00    +0.000 A 
BRANCH  11  13
ATOM     13  C   UNL     1       2.727   3.452  17.914  0.00  0.00    +0.000 C 
ATOM     14  F   UNL     1       1.649   3.193  18.695  0.00  0.00    +0.000 F 
ATOM     15  F   UNL     1       2.406   2.994  16.673  0.00  0.00    +0.000 F 
ATOM     16  F   UNL     1       3.712   2.628  18.370  0.00  0.00    +0.000 F 
ENDBRANCH  11  13
BRANCH  10  17
ATOM     17  C   UNL     1       5.037   4.472  16.267  0.00  0.00    +0.000 C 
ATOM     18  N   UNL     1       5.640   3.771  15.574  0.00  0.00    +0.000 NA
ENDBRANCH  10  17
ENDBRANCH   5   7
ENDBRANCH   2   3
BRANCH   2  19
ATOM     19  O   UNL     1       1.327  11.005  20.307  0.00  0.00    +0.000 OA
ATOM     20  H   UNL     1       1.141  11.948  20.098  0.00  0.00    +0.000 HD
ENDBRANCH   2  19
BRANCH   2  21
ATOM     21  C   UNL     1      -0.206  11.250  18.494  0.00  0.00    +0.000 C 
BRANCH  21  22
ATOM     22  N   UNL     1      -1.540  10.898  18.048  0.00  0.00    +0.000 N 
ATOM     23  C   UNL     1      -1.791  10.028  17.018  0.00  0.00    +0.000 A 
ATOM     24  C   UNL     1      -3.153   9.887  16.904  0.00  0.00    +0.000 A 
ATOM     25  C   UNL     1      -3.753  10.727  17.877  0.00  0.00    +0.000 A 
ATOM     26  C   UNL     1      -5.082  11.000  18.228  0.00  0.00    +0.000 A 
ATOM     27  C   UNL     1      -5.342  11.910  19.256  0.00  0.00    +0.000 A 
ATOM     28  F   UNL     1      -6.634  12.129  19.547  0.00  0.00    +0.000 F 
ATOM     29  C   UNL     1      -4.327  12.582  19.959  0.00  0.00    +0.000 A 
ATOM     30  C   UNL     1      -2.993  12.318  19.578  0.00  0.00    +0.000 A 
ATOM     31  C   UNL     1      -2.727  11.379  18.563  0.00  0.00    +0.000 A 
BRANCH  29  32
ATOM     32  C   UNL     1      -4.633  13.535  21.059  0.00  0.00    +0.000 A 
ATOM     33  C   UNL     1      -4.498  13.167  22.411  0.00  0.00    +0.000 A 
ATOM     34  C   UNL     1      -4.839  14.038  23.450  0.00  0.00    +0.000 A 
ATOM     35  C   UNL     1      -5.294  15.319  23.162  0.00  0.00    +0.000 A 
ATOM     36  C   UNL     1      -5.397  15.730  21.838  0.00  0.00    +0.000 A 
ATOM     37  C   UNL     1      -5.077  14.846  20.801  0.00  0.00    +0.000 A 
ENDBRANCH  29  32
ENDBRANCH  21  22
ENDBRANCH   2  21
TORSDOF 8
ENDMDL
MODEL 4
REMARK VINA RESULT:      -7.9      2.047      2.532
REMARK  Name = 
REMARK  9 active torsions:
REMARK  status: ('A' for Active; 'I' for Inactive)
REMARK    1  A    between atoms: C_1  and  C_2
REMARK    2  A    between atoms: C_2  and  O_3
REMARK    3  A    between atoms: C_2  and  C_4
REMARK    4  A    between atoms: C_2  and  C_21
REMARK    5  A    between atoms: C_4  and  N_5
REMARK    6  A    between atoms: C_12  and  C_13
REMARK    7  A    between atoms: N_23  and  C_24
REMARK    8  A    between atoms: C_27  and  C_28
REMARK    9  A    between atoms: C_30  and  C_31
REMARK                            x       y       z     vdW  Elec       q    Type
REMARK                         _______ _______ _______ _____ _____    ______ ____
ROOT
ATOM      1  C   UNL     1      -0.341   8.943  21.978  0.00  0.00    +0.000 C 
ATOM      2  C   UNL     1       0.975   9.244  21.274  0.00  0.00    +0.000 C 
ENDROOT
BRANCH   2   3
ATOM      3  C   UNL     1       1.539   8.051  20.474  0.00  0.00    +0.000 C 
ATOM      4  O   UNL     1       1.969   8.295  19.341  0.00  0.00    +0.000 OA
ATOM      5  N   UNL     1       1.455   6.785  21.034  0.00  0.00    +0.000 N 
ATOM      6  H   UNL     1       0.847   6.658  21.840  0.00  0.00    +0.000 HD
BRANCH   5   7
ATOM      7  C   UNL     1       1.907   5.606  20.389  0.00  0.00    +0.000 A 
ATOM      8  C   UNL     1       1.313   4.366  20.619  0.00  0.00    +0.000 A 
ATOM      9  C   UNL     1       1.854   3.198  20.087  0.00  0.00    +0.000 A 
ATOM     10  C   UNL     1       3.008   3.244  19.298  0.00  0.00    +0.000 A 
ATOM     11  C   UNL     1       3.601   4.486  19.011  0.00  0.00    +0.000 A 
ATOM     12  C   UNL     1       3.013   5.668  19.532  0.00  0.00    +0.000 A 
BRANCH  11  13
ATOM     13  C   UNL     1       4.883   4.610  18.217  0.00  0.00    +0.000 C 
ATOM     14  F   UNL     1       4.851   4.065  16.975  0.00  0.00    +0.000 F 
ATOM     15  F   UNL     1       5.259   5.907  18.045  0.00  0.00    +0.000 F 
ATOM     16  F   UNL     1       5.926   4.004  18.852  0.00  0.00    +0.000 F 
ENDBRANCH  11  13
BRANCH  10  17
ATOM     17  C   UNL     1       3.531   1.986  18.837  0.00  0.00    +0.000 C 
ATOM     18  N   UNL     1       3.914   0.966  18.454  0.00  0.00    +0.000 NA
ENDBRANCH  10  17
ENDBRANCH   5   7
ENDBRANCH   2   3
BRANCH   2  19
ATOM     19  O   UNL     1       1.934   9.480  22.339  0.00  0.00    +0.000 OA
ATOM     20  H   UNL     1       2.154  10.438  22.293  0.00  0.00    +0.000 HD
ENDBRANCH   2  19
BRANCH   2  21
ATOM     21  C   UNL     1       0.969  10.523  20.422  0.00  0.00    +0.000 C 
BRANCH  21  22
ATOM     22  N   UNL     1      -0.236  10.759  19.652  0.00  0.00    +0.000 N 
ATOM     23  C   UNL     1      -0.472  10.206  18.419  0.00  0.00    +0.000 A 
ATOM     24  C   UNL     1      -1.723  10.597  18.008  0.00  0.00    +0.000 A 
ATOM     25  C   UNL     1      -2.255  11.447  19.013  0.00  0.00    +0.000 A 
ATOM     26  C   UNL     1      -3.467  12.137  19.148  0.00  0.00    +0.000 A 
ATOM     27  C   UNL     1      -3.683  12.917  20.288  0.00  0.00    +0.000 A 
ATOM     28  F   UNL     1      -4.863  13.554  20.360  0.00  0.00    +0.000 F 
ATOM     29  C   UNL     1      -2.732  13.055  21.313  0.00  0.00    +0.000 A 
ATOM     30  C   UNL     1      -1.505  12.374  21.153  0.00  0.00    +0.000 A 
ATOM     31  C   UNL     1      -1.296  11.564  20.019  0.00  0.00    +0.000 A 
BRANCH  29  32
ATOM     32  C   UNL     1      -2.995  13.880  22.522  0.00  0.00    +0.000 A 
ATOM     33  C   UNL     1      -3.047  15.287  22.456  0.00  0.00    +0.000 A 
ATOM     34  C   UNL     1      -3.236  16.071  23.598  0.00  0.00    +0.000 A 
ATOM     35  C   UNL     1      -3.414  15.466  24.836  0.00  0.00    +0.000 A 
ATOM     36  C   UNL     1      -3.412  14.079  24.929  0.00  0.00    +0.000 A 
ATOM     37  C   UNL     1      -3.199  13.298  23.787  0.00  0.00    +0.000 A 
ENDBRANCH  29  32
ENDBRANCH  21  22
ENDBRANCH   2  21
TORSDOF 8
ENDMDL
MODEL 5
REMARK VINA RESULT:      -7.9      2.831      3.263
REMARK  Name = 
REMARK  9 active torsions:
REMARK  status: ('A' for Active; 'I' for Inactive)
REMARK    1  A    between atoms: C_1  and  C_2
REMARK    2  A    between atoms: C_2  and  O_3
REMARK    3  A    between atoms: C_2  and  C_4
REMARK    4  A    between atoms: C_2  and  C_21
REMARK    5  A    between atoms: C_4  and  N_5
REMARK    6  A    between atoms: C_12  and  C_13
REMARK    7  A    between atoms: N_23  and  C_24
REMARK    8  A    between atoms: C_27  and  C_28
REMARK    9  A    between atoms: C_30  and  C_31
REMARK                            x       y       z     vdW  Elec       q    Type
REMARK                         _______ _______ _______ _____ _____    ______ ____
ROOT
ATOM      1  C   UNL     1      -0.346   9.079  22.291  0.00  0.00    +0.000 C 
ATOM      2  C   UNL     1       0.992   9.348  21.616  0.00  0.00    +0.000 C 
ENDROOT
BRANCH   2   3
ATOM      3  C   UNL     1       1.456   8.209  20.682  0.00  0.00    +0.000 C 
ATOM      4  O   UNL     1       1.669   8.510  19.502  0.00  0.00    +0.000 OA
ATOM      5  N   UNL     1       1.527   6.924  21.198  0.00  0.00    +0.000 N 
ATOM      6  H   UNL     1       1.077   6.742  22.092  0.00  0.00    +0.000 HD
BRANCH   5   7
ATOM      7  C   UNL     1       1.908   5.789  20.437  0.00  0.00    +0.000 A 
ATOM      8  C   UNL     1       1.247   4.567  20.554  0.00  0.00    +0.000 A 
ATOM      9  C   UNL     1       1.718   3.428  19.906  0.00  0.00    +0.000 A 
ATOM     10  C   UNL     1       2.867   3.486  19.111  0.00  0.00    +0.000 A 
ATOM     11  C   UNL     1       3.527   4.716  18.937  0.00  0.00    +0.000 A 
ATOM     12  C   UNL     1       3.009   5.873  19.575  0.00  0.00    +0.000 A 
BRANCH  11  13
ATOM     13  C   UNL     1       4.808   4.846  18.142  0.00  0.00    +0.000 C 
ATOM     14  F   UNL     1       5.344   6.091  18.105  0.00  0.00    +0.000 F 
ATOM     15  F   UNL     1       5.791   4.031  18.614  0.00  0.00    +0.000 F 
ATOM     16  F   UNL     1       4.627   4.490  16.839  0.00  0.00    +0.000 F 
ENDBRANCH  11  13
BRANCH  10  17
ATOM     17  C   UNL     1       3.317   2.253  18.525  0.00  0.00    +0.000 C 
ATOM     18  N   UNL     1       3.691   1.249  18.091  0.00  0.00    +0.000 NA
ENDBRANCH  10  17
ENDBRANCH   5   7
ENDBRANCH   2   3
BRANCH   2  19
ATOM     19  O   UNL     1       1.965   9.381  22.694  0.00  0.00    +0.000 OA
ATOM     20  H   UNL     1       1.575   8.848  23.422  0.00  0.00    +0.000 HD
ENDBRANCH   2  19
BRANCH   2  21
ATOM     21  C   UNL     1       1.095  10.710  20.913  0.00  0.00    +0.000 C 
BRANCH  21  22
ATOM     22  N   UNL     1      -0.157  11.272  20.445  0.00  0.00    +0.000 N 
ATOM     23  C   UNL     1      -0.839  10.802  19.351  0.00  0.00    +0.000 A 
ATOM     24  C   UNL     1      -2.000  11.526  19.230  0.00  0.00    +0.000 A 
ATOM     25  C   UNL     1      -2.010  12.494  20.268  0.00  0.00    +0.000 A 
ATOM     26  C   UNL     1      -2.914  13.496  20.644  0.00  0.00    +0.000 A 
ATOM     27  C   UNL     1      -2.615  14.308  21.741  0.00  0.00    +0.000 A 
ATOM     28  F   UNL     1      -3.521  15.249  22.051  0.00  0.00    +0.000 F 
ATOM     29  C   UNL     1      -1.434  14.178  22.490  0.00  0.00    +0.000 A 
ATOM     30  C   UNL     1      -0.518  13.181  22.086  0.00  0.00    +0.000 A 
ATOM     31  C   UNL     1      -0.831  12.341  20.999  0.00  0.00    +0.000 A 
BRANCH  29  32
ATOM     32  C   UNL     1      -1.148  15.048  23.662  0.00  0.00    +0.000 A 
ATOM     33  C   UNL     1      -1.744  14.813  24.916  0.00  0.00    +0.000 A 
ATOM     34  C   UNL     1      -1.525  15.660  26.007  0.00  0.00    +0.000 A 
ATOM     35  C   UNL     1      -0.672  16.750  25.880  0.00  0.00    +0.000 A 
ATOM     36  C   UNL     1      -0.033  16.985  24.668  0.00  0.00    +0.000 A 
ATOM     37  C   UNL     1      -0.274  16.148  23.572  0.00  0.00    +0.000 A 
ENDBRANCH  29  32
ENDBRANCH  21  22
ENDBRANCH   2  21
TORSDOF 8
ENDMDL
MODEL 6
REMARK VINA RESULT:      -7.9      1.953      2.441
REMARK  Name = 
REMARK  9 active torsions:
REMARK  status: ('A' for Active; 'I' for Inactive)
REMARK    1  A    between atoms: C_1  and  C_2
REMARK    2  A    between atoms: C_2  and  O_3
REMARK    3  A    between atoms: C_2  and  C_4
REMARK    4  A    between atoms: C_2  and  C_21
REMARK    5  A    between atoms: C_4  and  N_5
REMARK    6  A    between atoms: C_12  and  C_13
REMARK    7  A    between atoms: N_23  and  C_24
REMARK    8  A    between atoms: C_27  and  C_28
REMARK    9  A    between atoms: C_30  and  C_31
REMARK                            x       y       z     vdW  Elec       q    Type
REMARK                         _______ _______ _______ _____ _____    ______ ____
ROOT
ATOM      1  C   UNL     1      -0.469   8.422  21.307  0.00  0.00    +0.000 C 
ATOM      2  C   UNL     1       0.938   8.837  20.898  0.00  0.00    +0.000 C 
ENDROOT
BRANCH   2   3
ATOM      3  C   UNL     1       1.759   7.699  20.255  0.00  0.00    +0.000 C 
ATOM      4  O   UNL     1       1.933   6.684  20.940  0.00  0.00    +0.000 OA
ATOM      5  N   UNL     1       2.310   7.912  19.001  0.00  0.00    +0.000 N 
ATOM      6  H   UNL     1       2.335   8.865  18.646  0.00  0.00    +0.000 HD
BRANCH   5   7
ATOM      7  C   UNL     1       3.108   6.960  18.318  0.00  0.00    +0.000 A 
ATOM      8  C   UNL     1       4.196   7.338  17.531  0.00  0.00    +0.000 A 
ATOM      9  C   UNL     1       4.884   6.407  16.758  0.00  0.00    +0.000 A 
ATOM     10  C   UNL     1       4.503   5.061  16.758  0.00  0.00    +0.000 A 
ATOM     11  C   UNL     1       3.440   4.643  17.579  0.00  0.00    +0.000 A 
ATOM     12  C   UNL     1       2.776   5.602  18.388  0.00  0.00    +0.000 A 
BRANCH  11  13
ATOM     13  C   UNL     1       2.932   3.218  17.588  0.00  0.00    +0.000 C 
ATOM     14  F   UNL     1       1.928   2.966  18.463  0.00  0.00    +0.000 F 
ATOM     15  F   UNL     1       2.470   2.829  16.368  0.00  0.00    +0.000 F 
ATOM     16  F   UNL     1       3.921   2.337  17.907  0.00  0.00    +0.000 F 
ENDBRANCH  11  13
BRANCH  10  17
ATOM     17  C   UNL     1       5.231   4.178  15.888  0.00  0.00    +0.000 C 
ATOM     18  N   UNL     1       5.848   3.493  15.193  0.00  0.00    +0.000 NA
ENDBRANCH  10  17
ENDBRANCH   5   7
ENDBRANCH   2   3
BRANCH   2  19
ATOM     19  O   UNL     1       1.622   9.149  22.141  0.00  0.00    +0.000 OA
ATOM     20  H   UNL     1       1.962  10.065  22.035  0.00  0.00    +0.000 HD
ENDBRANCH   2  19
BRANCH   2  21
ATOM     21  C   UNL     1       1.010  10.114  20.047  0.00  0.00    +0.000 C 
BRANCH  21  22
ATOM     22  N   UNL     1      -0.177  10.418  19.270  0.00  0.00    +0.000 N 
ATOM     23  C   UNL     1      -0.392   9.954  17.998  0.00  0.00    +0.000 A 
ATOM     24  C   UNL     1      -1.630  10.389  17.590  0.00  0.00    +0.000 A 
ATOM     25  C   UNL     1      -2.173  11.174  18.639  0.00  0.00    +0.000 A 
ATOM     26  C   UNL     1      -3.380  11.869  18.797  0.00  0.00    +0.000 A 
ATOM     27  C   UNL     1      -3.611  12.571  19.983  0.00  0.00    +0.000 A 
ATOM     28  F   UNL     1      -4.785  13.217  20.075  0.00  0.00    +0.000 F 
ATOM     29  C   UNL     1      -2.681  12.626  21.034  0.00  0.00    +0.000 A 
ATOM     30  C   UNL     1      -1.458  11.943  20.853  0.00  0.00    +0.000 A 
ATOM     31  C   UNL     1      -1.235  11.209  19.671  0.00  0.00    +0.000 A 
BRANCH  29  32
ATOM     32  C   UNL     1      -2.960  13.370  22.292  0.00  0.00    +0.000 A 
ATOM     33  C   UNL     1      -2.561  14.711  22.458  0.00  0.00    +0.000 A 
ATOM     34  C   UNL     1      -2.769  15.398  23.658  0.00  0.00    +0.000 A 
ATOM     35  C   UNL     1      -3.415  14.770  24.716  0.00  0.00    +0.000 A 
ATOM     36  C   UNL     1      -3.861  13.462  24.569  0.00  0.00    +0.000 A 
ATOM     37  C   UNL     1      -3.629  12.770  23.375  0.00  0.00    +0.000 A 
ENDBRANCH  29  32
ENDBRANCH  21  22
ENDBRANCH   2  21
TORSDOF 8
ENDMDL
MODEL 7
REMARK VINA RESULT:      -7.8      2.367      2.882
REMARK  Name = 
REMARK  9 active torsions:
REMARK  status: ('A' for Active; 'I' for Inactive)
REMARK    1  A    between atoms: C_1  and  C_2
REMARK    2  A    between atoms: C_2  and  O_3
REMARK    3  A    between atoms: C_2  and  C_4
REMARK    4  A    between atoms: C_2  and  C_21
REMARK    5  A    between atoms: C_4  and  N_5
REMARK    6  A    between atoms: C_12  and  C_13
REMARK    7  A    between atoms: N_23  and  C_24
REMARK    8  A    between atoms: C_27  and  C_28
REMARK    9  A    between atoms: C_30  and  C_31
REMARK                            x       y       z     vdW  Elec       q    Type
REMARK                         _______ _______ _______ _____ _____    ______ ____
ROOT
ATOM      1  C   UNL     1       1.078  11.387  20.346  0.00  0.00    +0.000 C 
ATOM      2  C   UNL     1       0.550  10.706  19.091  0.00  0.00    +0.000 C 
ENDROOT
BRANCH   2   3
ATOM      3  C   UNL     1       1.556   9.732  18.443  0.00  0.00    +0.000 C 
ATOM      4  O   UNL     1       2.138  10.130  17.427  0.00  0.00    +0.000 OA
ATOM      5  N   UNL     1       1.685   8.462  18.984  0.00  0.00    +0.000 N 
ATOM      6  H   UNL     1       0.974   8.148  19.641  0.00  0.00    +0.000 HD
BRANCH   5   7
ATOM      7  C   UNL     1       2.550   7.466  18.463  0.00  0.00    +0.000 A 
ATOM      8  C   UNL     1       3.704   7.791  17.750  0.00  0.00    +0.000 A 
ATOM      9  C   UNL     1       4.466   6.807  17.127  0.00  0.00    +0.000 A 
ATOM     10  C   UNL     1       4.095   5.461  17.208  0.00  0.00    +0.000 A 
ATOM     11  C   UNL     1       2.962   5.100  17.960  0.00  0.00    +0.000 A 
ATOM     12  C   UNL     1       2.220   6.114  18.619  0.00  0.00    +0.000 A 
BRANCH  11  13
ATOM     13  C   UNL     1       2.465   3.673  18.044  0.00  0.00    +0.000 C 
ATOM     14  F   UNL     1       3.308   2.801  18.651  0.00  0.00    +0.000 F 
ATOM     15  F   UNL     1       1.284   3.579  18.716  0.00  0.00    +0.000 F 
ATOM     16  F   UNL     1       2.230   3.151  16.808  0.00  0.00    +0.000 F 
ENDBRANCH  11  13
BRANCH  10  17
ATOM     17  C   UNL     1       4.906   4.517  16.488  0.00  0.00    +0.000 C 
ATOM     18  N   UNL     1       5.576   3.749  15.945  0.00  0.00    +0.000 NA
ENDBRANCH  10  17
ENDBRANCH   5   7
ENDBRANCH   2   3
BRANCH   2  19
ATOM     19  O   UNL     1       0.370  11.773  18.123  0.00  0.00    +0.000 OA
ATOM     20  H   UNL     1      -0.274  12.396  18.529  0.00  0.00    +0.000 HD
ENDBRANCH   2  19
BRANCH   2  21
ATOM     21  C   UNL     1      -0.829  10.045  19.251  0.00  0.00    +0.000 C 
BRANCH  21  22
ATOM     22  N   UNL     1      -1.755  10.253  18.155  0.00  0.00    +0.000 N 
ATOM     23  C   UNL     1      -1.556   9.765  16.889  0.00  0.00    +0.000 A 
ATOM     24  C   UNL     1      -2.648  10.103  16.126  0.00  0.00    +0.000 A 
ATOM     25  C   UNL     1      -3.529  10.851  16.949  0.00  0.00    +0.000 A 
ATOM     26  C   UNL     1      -4.775  11.453  16.730  0.00  0.00    +0.000 A 
ATOM     27  C   UNL     1      -5.392  12.143  17.777  0.00  0.00    +0.000 A 
ATOM     28  F   UNL     1      -6.584  12.699  17.506  0.00  0.00    +0.000 F 
ATOM     29  C   UNL     1      -4.815  12.276  19.052  0.00  0.00    +0.000 A 
ATOM     30  C   UNL     1      -3.547  11.686  19.253  0.00  0.00    +0.000 A 
ATOM     31  C   UNL     1      -2.937  10.964  18.208  0.00  0.00    +0.000 A 
BRANCH  29  32
ATOM     32  C   UNL     1      -5.501  13.004  20.152  0.00  0.00    +0.000 A 
ATOM     33  C   UNL     1      -6.503  12.391  20.929  0.00  0.00    +0.000 A 
ATOM     34  C   UNL     1      -7.192  13.088  21.926  0.00  0.00    +0.000 A 
ATOM     35  C   UNL     1      -6.872  14.413  22.196  0.00  0.00    +0.000 A 
ATOM     36  C   UNL     1      -5.858  15.035  21.478  0.00  0.00    +0.000 A 
ATOM     37  C   UNL     1      -5.187  14.340  20.464  0.00  0.00    +0.000 A 
ENDBRANCH  29  32
ENDBRANCH  21  22
ENDBRANCH   2  21
TORSDOF 8
ENDMDL
MODEL 8
REMARK VINA RESULT:      -7.8      2.199      2.525
REMARK  Name = 
REMARK  9 active torsions:
REMARK  status: ('A' for Active; 'I' for Inactive)
REMARK    1  A    between atoms: C_1  and  C_2
REMARK    2  A    between atoms: C_2  and  O_3
REMARK    3  A    between atoms: C_2  and  C_4
REMARK    4  A    between atoms: C_2  and  C_21
REMARK    5  A    between atoms: C_4  and  N_5
REMARK    6  A    between atoms: C_12  and  C_13
REMARK    7  A    between atoms: N_23  and  C_24
REMARK    8  A    between atoms: C_27  and  C_28
REMARK    9  A    between atoms: C_30  and  C_31
REMARK                            x       y       z     vdW  Elec       q    Type
REMARK                         _______ _______ _______ _____ _____    ______ ____
ROOT
ATOM      1  C   UNL     1      -0.447   8.288  21.293  0.00  0.00    +0.000 C 
ATOM      2  C   UNL     1       0.978   8.697  20.951  0.00  0.00    +0.000 C 
ENDROOT
BRANCH   2   3
ATOM      3  C   UNL     1       1.801   7.579  20.276  0.00  0.00    +0.000 C 
ATOM      4  O   UNL     1       1.982   6.548  20.934  0.00  0.00    +0.000 OA
ATOM      5  N   UNL     1       2.346   7.827  19.025  0.00  0.00    +0.000 N 
ATOM      6  H   UNL     1       2.367   8.789  18.695  0.00  0.00    +0.000 HD
BRANCH   5   7
ATOM      7  C   UNL     1       3.146   6.896  18.316  0.00  0.00    +0.000 A 
ATOM      8  C   UNL     1       4.236   7.297  17.543  0.00  0.00    +0.000 A 
ATOM      9  C   UNL     1       4.925   6.389  16.743  0.00  0.00    +0.000 A 
ATOM     10  C   UNL     1       4.543   5.044  16.702  0.00  0.00    +0.000 A 
ATOM     11  C   UNL     1       3.478   4.602  17.507  0.00  0.00    +0.000 A 
ATOM     12  C   UNL     1       2.813   5.536  18.344  0.00  0.00    +0.000 A 
BRANCH  11  13
ATOM     13  C   UNL     1       2.970   3.178  17.471  0.00  0.00    +0.000 C 
ATOM     14  F   UNL     1       2.461   2.773  16.280  0.00  0.00    +0.000 F 
ATOM     15  F   UNL     1       3.941   2.277  17.786  0.00  0.00    +0.000 F 
ATOM     16  F   UNL     1       1.972   2.979  18.378  0.00  0.00    +0.000 F 
ENDBRANCH  11  13
BRANCH  10  17
ATOM     17  C   UNL     1       5.272   4.188  15.806  0.00  0.00    +0.000 C 
ATOM     18  N   UNL     1       5.875   3.533  15.069  0.00  0.00    +0.000 NA
ENDBRANCH  10  17
ENDBRANCH   5   7
ENDBRANCH   2   3
BRANCH   2  19
ATOM     19  O   UNL     1       1.627   8.933  22.229  0.00  0.00    +0.000 OA
ATOM     20  H   UNL     1       2.135   9.768  22.121  0.00  0.00    +0.000 HD
ENDBRANCH   2  19
BRANCH   2  21
ATOM     21  C   UNL     1       1.098  10.015  20.169  0.00  0.00    +0.000 C 
BRANCH  21  22
ATOM     22  N   UNL     1      -0.109  10.461  19.501  0.00  0.00    +0.000 N 
ATOM     23  C   UNL     1      -0.466  10.071  18.236  0.00  0.00    +0.000 A 
ATOM     24  C   UNL     1      -1.683  10.636  17.943  0.00  0.00    +0.000 A 
ATOM     25  C   UNL     1      -2.066  11.425  19.058  0.00  0.00    +0.000 A 
ATOM     26  C   UNL     1      -3.184  12.224  19.335  0.00  0.00    +0.000 A 
ATOM     27  C   UNL     1      -3.255  12.895  20.559  0.00  0.00    +0.000 A 
ATOM     28  F   UNL     1      -4.350  13.644  20.767  0.00  0.00    +0.000 F 
ATOM     29  C   UNL     1      -2.245  12.820  21.534  0.00  0.00    +0.000 A 
ATOM     30  C   UNL     1      -1.112  12.032  21.232  0.00  0.00    +0.000 A 
ATOM     31  C   UNL     1      -1.052  11.330  20.012  0.00  0.00    +0.000 A 
BRANCH  29  32
ATOM     32  C   UNL     1      -2.354  13.534  22.833  0.00  0.00    +0.000 A 
ATOM     33  C   UNL     1      -3.439  13.317  23.705  0.00  0.00    +0.000 A 
ATOM     34  C   UNL     1      -3.577  14.027  24.901  0.00  0.00    +0.000 A 
ATOM     35  C   UNL     1      -2.611  14.954  25.275  0.00  0.00    +0.000 A 
ATOM     36  C   UNL     1      -1.505  15.161  24.459  0.00  0.00    +0.000 A 
ATOM     37  C   UNL     1      -1.383  14.464  23.251  0.00  0.00    +0.000 A 
ENDBRANCH  29  32
ENDBRANCH  21  22
ENDBRANCH   2  21
TORSDOF 8
ENDMDL
MODEL 9
REMARK VINA RESULT:      -7.7      3.453      5.078
REMARK  Name = 
REMARK  9 active torsions:
REMARK  status: ('A' for Active; 'I' for Inactive)
REMARK    1  A    between atoms: C_1  and  C_2
REMARK    2  A    between atoms: C_2  and  O_3
REMARK    3  A    between atoms: C_2  and  C_4
REMARK    4  A    between atoms: C_2  and  C_21
REMARK    5  A    between atoms: C_4  and  N_5
REMARK    6  A    between atoms: C_12  and  C_13
REMARK    7  A    between atoms: N_23  and  C_24
REMARK    8  A    between atoms: C_27  and  C_28
REMARK    9  A    between atoms: C_30  and  C_31
REMARK                            x       y       z     vdW  Elec       q    Type
REMARK                         _______ _______ _______ _____ _____    ______ ____
ROOT
ATOM      1  C   UNL     1      -0.021   9.466  23.257  0.00  0.00    +0.000 C 
ATOM      2  C   UNL     1       0.301  10.035  21.882  0.00  0.00    +0.000 C 
ENDROOT
BRANCH   2   3
ATOM      3  C   UNL     1       0.631   8.958  20.825  0.00  0.00    +0.000 C 
ATOM      4  O   UNL     1       0.049   9.050  19.739  0.00  0.00    +0.000 OA
ATOM      5  N   UNL     1       1.486   7.927  21.183  0.00  0.00    +0.000 N 
ATOM      6  H   UNL     1       1.693   7.798  22.171  0.00  0.00    +0.000 HD
BRANCH   5   7
ATOM      7  C   UNL     1       1.842   6.862  20.316  0.00  0.00    +0.000 A 
ATOM      8  C   UNL     1       2.425   7.089  19.070  0.00  0.00    +0.000 A 
ATOM      9  C   UNL     1       2.641   6.045  18.174  0.00  0.00    +0.000 A 
ATOM     10  C   UNL     1       2.284   4.735  18.510  0.00  0.00    +0.000 A 
ATOM     11  C   UNL     1       1.738   4.470  19.779  0.00  0.00    +0.000 A 
ATOM     12  C   UNL     1       1.562   5.543  20.691  0.00  0.00    +0.000 A 
BRANCH  11  13
ATOM     13  C   UNL     1       1.273   3.090  20.191  0.00  0.00    +0.000 C 
ATOM     14  F   UNL     1       0.234   2.592  19.476  0.00  0.00    +0.000 F 
ATOM     15  F   UNL     1       2.267   2.164  20.100  0.00  0.00    +0.000 F 
ATOM     16  F   UNL     1       0.864   3.067  21.491  0.00  0.00    +0.000 F 
ENDBRANCH  11  13
BRANCH  10  17
ATOM     17  C   UNL     1       2.489   3.726  17.506  0.00  0.00    +0.000 C 
ATOM     18  N   UNL     1       2.671   2.945  16.675  0.00  0.00    +0.000 NA
ENDBRANCH  10  17
ENDBRANCH   5   7
ENDBRANCH   2   3
BRANCH   2  19
ATOM     19  O   UNL     1       1.531  10.789  22.058  0.00  0.00    +0.000 OA
ATOM     20  H   UNL     1       2.228  10.273  21.594  0.00  0.00    +0.000 HD
ENDBRANCH   2  19
BRANCH   2  21
ATOM     21  C   UNL     1      -0.732  11.035  21.342  0.00  0.00    +0.000 C 
BRANCH  21  22
ATOM     22  N   UNL     1      -0.781  12.316  22.020  0.00  0.00    +0.000 N 
ATOM     23  C   UNL     1      -1.568  12.566  23.115  0.00  0.00    +0.000 A 
ATOM     24  C   UNL     1      -1.326  13.854  23.527  0.00  0.00    +0.000 A 
ATOM     25  C   UNL     1      -0.382  14.419  22.631  0.00  0.00    +0.000 A 
ATOM     26  C   UNL     1       0.232  15.675  22.544  0.00  0.00    +0.000 A 
ATOM     27  C   UNL     1       1.135  15.922  21.506  0.00  0.00    +0.000 A 
ATOM     28  F   UNL     1       1.691  17.144  21.476  0.00  0.00    +0.000 F 
ATOM     29  C   UNL     1       1.456  14.966  20.527  0.00  0.00    +0.000 A 
ATOM     30  C   UNL     1       0.811  13.712  20.611  0.00  0.00    +0.000 A 
ATOM     31  C   UNL     1      -0.077  13.451  21.673  0.00  0.00    +0.000 A 
BRANCH  29  32
ATOM     32  C   UNL     1       2.432  15.252  19.442  0.00  0.00    +0.000 A 
ATOM     33  C   UNL     1       2.163  16.207  18.442  0.00  0.00    +0.000 A 
ATOM     34  C   UNL     1       3.051  16.439  17.387  0.00  0.00    +0.000 A 
ATOM     35  C   UNL     1       4.251  15.742  17.322  0.00  0.00    +0.000 A 
ATOM     36  C   UNL     1       4.567  14.824  18.317  0.00  0.00    +0.000 A 
ATOM     37  C   UNL     1       3.665  14.578  19.359  0.00  0.00    +0.000 A 
ENDBRANCH  29  32
ENDBRANCH  21  22
ENDBRANCH   2  21
TORSDOF 8
ENDMDL
