MODEL 1
REMARK VINA RESULT:      -8.6      0.000      0.000
REMARK  Name = 
REMARK  4 active torsions:
REMARK  status: ('A' for Active; 'I' for Inactive)
REMARK    1  A    between atoms: C_8  and  C_9
REMARK    2  A    between atoms: C_9  and  O_11
REMARK    3  A    between atoms: N_12  and  C_13
REMARK    4  A    between atoms: C_13  and  C_14
REMARK                            x       y       z     vdW  Elec       q    Type
REMARK                         _______ _______ _______ _____ _____    ______ ____
ROOT
ATOM      1  N   UNL     1       7.918   7.431  17.088  0.00  0.00    +0.000 N 
ATOM      2  C   UNL     1       6.959   6.450  16.899  0.00  0.00    +0.000 A 
ATOM      3  N   UNL     1       7.026   5.787  15.744  0.00  0.00    +0.000 NA
ATOM      4  C   UNL     1       6.128   4.820  15.542  0.00  0.00    +0.000 A 
ATOM      5 CL   UNL     1       6.177   3.961  14.080  0.00  0.00    +0.000 Cl
ATOM      6  C   UNL     1       5.160   4.507  16.475  0.00  0.00    +0.000 A 
ATOM      7  C   UNL     1       4.092   3.588  16.617  0.00  0.00    +0.000 A 
ATOM      8  C   UNL     1       3.478   3.799  17.847  0.00  0.00    +0.000 A 
ATOM      9  N   UNL     1       4.138   4.877  18.422  0.00  0.00    +0.000 N 
ATOM     10  C   UNL     1       5.176   5.290  17.612  0.00  0.00    +0.000 A 
ATOM     11  N   UNL     1       6.051   6.283  17.867  0.00  0.00    +0.000 NA
ATOM     12  H   UNL     1       8.303   7.732  16.203  0.00  0.00    +0.000 HD
ATOM     13  H   UNL     1       7.606   8.144  17.728  0.00  0.00    +0.000 HD
ENDROOT
BRANCH   8  14
ATOM     14  C   UNL     1       2.340   3.118  18.436  0.00  0.00    +0.000 C 
ATOM     15  O   UNL     1       2.381   2.309  19.350  0.00  0.00    +0.000 OA
BRANCH  14  16
ATOM     16  O   UNL     1       1.173   3.472  17.852  0.00  0.00    +0.000 OA
ATOM     17  H   UNL     1       0.455   2.827  17.974  0.00  0.00    +0.000 HD
ENDBRANCH  14  16
ENDBRANCH   8  14
BRANCH   9  18
ATOM     18  C   UNL     1       3.733   5.576  19.633  0.00  0.00    +0.000 C 
BRANCH  18  19
ATOM     19  C   UNL     1       2.579   6.544  19.483  0.00  0.00    +0.000 A 
ATOM     20  C   UNL     1       1.852   7.033  20.599  0.00  0.00    +0.000 A 
ATOM     21  C   UNL     1       1.214   8.276  20.551  0.00  0.00    +0.000 A 
ATOM     22  C   UNL     1       1.371   9.008  19.398  0.00  0.00    +0.000 A 
ATOM     23  C   UNL     1       1.952   8.476  18.267  0.00  0.00    +0.000 A 
ATOM     24  C   UNL     1       2.504   7.221  18.253  0.00  0.00    +0.000 A 
ATOM     25  O   UNL     1       2.146   9.419  17.300  0.00  0.00    +0.000 OA
ATOM     26  C   UNL     1       2.059  10.585  18.142  0.00  0.00    +0.000 C 
ATOM     27  O   UNL     1       1.191  10.357  19.274  0.00  0.00    +0.000 OA
ENDBRANCH  18  19
ENDBRANCH   9  18
TORSDOF 4
ENDMDL
MODEL 2
REMARK VINA RESULT:      -8.0      0.928      1.128
REMARK  Name = 
REMARK  4 active torsions:
REMARK  status: ('A' for Active; 'I' for Inactive)
REMARK    1  A    between atoms: C_8  and  C_9
REMARK    2  A    between atoms: C_9  and  O_11
REMARK    3  A    between atoms: N_12  and  C_13
REMARK    4  A    between atoms: C_13  and  C_14
REMARK                            x       y       z     vdW  Elec       q    Type
REMARK                         _______ _______ _______ _____ _____    ______ ____
ROOT
ATOM      1  N   UNL     1       8.308   6.548  19.106  0.00  0.00    +0.000 N 
ATOM      2  C   UNL     1       7.275   5.892  18.459  0.00  0.00    +0.000 A 
ATOM      3  N   UNL     1       7.562   5.403  17.253  0.00  0.00    +0.000 NA
ATOM      4  C   UNL     1       6.592   4.746  16.613  0.00  0.00    +0.000 A 
ATOM      5 CL   UNL     1       6.919   4.118  15.071  0.00  0.00    +0.000 Cl
ATOM      6  C   UNL     1       5.336   4.572  17.158  0.00  0.00    +0.000 A 
ATOM      7  C   UNL     1       4.110   3.957  16.805  0.00  0.00    +0.000 A 
ATOM      8  C   UNL     1       3.197   4.149  17.838  0.00  0.00    +0.000 A 
ATOM      9  N   UNL     1       3.853   4.923  18.786  0.00  0.00    +0.000 N 
ATOM     10  C   UNL     1       5.156   5.156  18.396  0.00  0.00    +0.000 A 
ATOM     11  N   UNL     1       6.093   5.837  19.085  0.00  0.00    +0.000 NA
ATOM     12  H   UNL     1       9.007   6.857  18.445  0.00  0.00    +0.000 HD
ATOM     13  H   UNL     1       7.967   7.221  19.775  0.00  0.00    +0.000 HD
ENDROOT
BRANCH   8  14
ATOM     14  C   UNL     1       1.815   3.717  17.936  0.00  0.00    +0.000 C 
ATOM     15  O   UNL     1       0.885   4.129  17.261  0.00  0.00    +0.000 OA
BRANCH  14  16
ATOM     16  O   UNL     1       1.640   2.776  18.891  0.00  0.00    +0.000 OA
ATOM     17  H   UNL     1       1.278   1.936  18.560  0.00  0.00    +0.000 HD
ENDBRANCH  14  16
ENDBRANCH   8  14
BRANCH   9  18
ATOM     18  C   UNL     1       3.242   5.528  19.961  0.00  0.00    +0.000 C 
BRANCH  18  19
ATOM     19  C   UNL     1       2.212   6.603  19.692  0.00  0.00    +0.000 A 
ATOM     20  C   UNL     1       1.460   7.208  20.732  0.00  0.00    +0.000 A 
ATOM     21  C   UNL     1       0.963   8.507  20.596  0.00  0.00    +0.000 A 
ATOM     22  C   UNL     1       1.281   9.174  19.437  0.00  0.00    +0.000 A 
ATOM     23  C   UNL     1       1.885   8.540  18.371  0.00  0.00    +0.000 A 
ATOM     24  C   UNL     1       2.300   7.236  18.439  0.00  0.00    +0.000 A 
ATOM     25  O   UNL     1       2.249   9.420  17.393  0.00  0.00    +0.000 OA
ATOM     26  C   UNL     1       2.224  10.620  18.189  0.00  0.00    +0.000 C 
ATOM     27  O   UNL     1       1.255  10.528  19.257  0.00  0.00    +0.000 OA
ENDBRANCH  18  19
ENDBRANCH   9  18
TORSDOF 4
ENDMDL
MODEL 3
REMARK VINA RESULT:      -7.8      1.188      1.881
REMARK  Name = 
REMARK  4 active torsions:
REMARK  status: ('A' for Active; 'I' for Inactive)
REMARK    1  A    between atoms: C_8  and  C_9
REMARK    2  A    between atoms: C_9  and  O_11
REMARK    3  A    between atoms: N_12  and  C_13
REMARK    4  A    between atoms: C_13  and  C_14
REMARK                            x       y       z     vdW  Elec       q    Type
REMARK                         _______ _______ _______ _____ _____    ______ ____
ROOT
ATOM      1  N   UNL     1       8.099   6.537  19.021  0.00  0.00    +0.000 N 
ATOM      2  C   UNL     1       7.100   5.861  18.341  0.00  0.00    +0.000 A 
ATOM      3  N   UNL     1       7.463   5.293  17.191  0.00  0.00    +0.000 NA
ATOM      4  C   UNL     1       6.527   4.616  16.522  0.00  0.00    +0.000 A 
ATOM      5 CL   UNL     1       6.950   3.888  15.049  0.00  0.00    +0.000 Cl
ATOM      6  C   UNL     1       5.231   4.500  16.982  0.00  0.00    +0.000 A 
ATOM      7  C   UNL     1       4.020   3.887  16.578  0.00  0.00    +0.000 A 
ATOM      8  C   UNL     1       3.040   4.159  17.526  0.00  0.00    +0.000 A 
ATOM      9  N   UNL     1       3.642   4.978  18.472  0.00  0.00    +0.000 N 
ATOM     10  C   UNL     1       4.976   5.163  18.166  0.00  0.00    +0.000 A 
ATOM     11  N   UNL     1       5.876   5.867  18.880  0.00  0.00    +0.000 NA
ATOM     12  H   UNL     1       8.850   6.791  18.396  0.00  0.00    +0.000 HD
ATOM     13  H   UNL     1       7.726   7.257  19.621  0.00  0.00    +0.000 HD
ENDROOT
BRANCH   8  14
ATOM     14  C   UNL     1       1.644   3.760  17.548  0.00  0.00    +0.000 C 
ATOM     15  O   UNL     1       0.708   4.396  17.088  0.00  0.00    +0.000 OA
BRANCH  14  16
ATOM     16  O   UNL     1       1.463   2.567  18.158  0.00  0.00    +0.000 OA
ATOM     17  H   UNL     1       1.612   2.585  19.119  0.00  0.00    +0.000 HD
ENDBRANCH  14  16
ENDBRANCH   8  14
BRANCH   9  18
ATOM     18  C   UNL     1       2.962   5.666  19.560  0.00  0.00    +0.000 C 
BRANCH  18  19
ATOM     19  C   UNL     1       2.704   7.142  19.351  0.00  0.00    +0.000 A 
ATOM     20  C   UNL     1       2.802   7.754  18.074  0.00  0.00    +0.000 A 
ATOM     21  C   UNL     1       2.061   8.899  17.768  0.00  0.00    +0.000 A 
ATOM     22  C   UNL     1       1.208   9.362  18.741  0.00  0.00    +0.000 A 
ATOM     23  C   UNL     1       1.219   8.858  20.024  0.00  0.00    +0.000 A 
ATOM     24  C   UNL     1       2.006   7.795  20.382  0.00  0.00    +0.000 A 
ATOM     25  O   UNL     1       0.192   9.351  20.776  0.00  0.00    +0.000 OA
ATOM     26  C   UNL     1      -0.648   9.797  19.693  0.00  0.00    +0.000 C 
ATOM     27  O   UNL     1       0.134  10.184  18.542  0.00  0.00    +0.000 OA
ENDBRANCH  18  19
ENDBRANCH   9  18
TORSDOF 4
ENDMDL
MODEL 4
REMARK VINA RESULT:      -7.8      3.432      5.915
REMARK  Name = 
REMARK  4 active torsions:
REMARK  status: ('A' for Active; 'I' for Inactive)
REMARK    1  A    between atoms: C_8  and  C_9
REMARK    2  A    between atoms: C_9  and  O_11
REMARK    3  A    between atoms: N_12  and  C_13
REMARK    4  A    between atoms: C_13  and  C_14
REMARK                            x       y       z     vdW  Elec       q    Type
REMARK                         _______ _______ _______ _____ _____    ______ ____
ROOT
ATOM      1  N   UNL     1       3.846   1.497  17.892  0.00  0.00    +0.000 N 
ATOM      2  C   UNL     1       3.250   2.452  18.697  0.00  0.00    +0.000 A 
ATOM      3  N   UNL     1       2.627   1.990  19.782  0.00  0.00    +0.000 NA
ATOM      4  C   UNL     1       2.059   2.889  20.590  0.00  0.00    +0.000 A 
ATOM      5 CL   UNL     1       1.249   2.337  21.975  0.00  0.00    +0.000 Cl
ATOM      6  C   UNL     1       2.101   4.244  20.330  0.00  0.00    +0.000 A 
ATOM      7  C   UNL     1       1.647   5.446  20.925  0.00  0.00    +0.000 A 
ATOM      8  C   UNL     1       2.035   6.517  20.128  0.00  0.00    +0.000 A 
ATOM      9  N   UNL     1       2.674   5.961  19.028  0.00  0.00    +0.000 N 
ATOM     10  C   UNL     1       2.746   4.589  19.158  0.00  0.00    +0.000 A 
ATOM     11  N   UNL     1       3.328   3.727  18.301  0.00  0.00    +0.000 NA
ATOM     12  H   UNL     1       3.437   0.587  18.051  0.00  0.00    +0.000 HD
ATOM     13  H   UNL     1       3.934   1.810  16.938  0.00  0.00    +0.000 HD
ENDROOT
BRANCH   8  14
ATOM     14  C   UNL     1       1.794   7.936  20.313  0.00  0.00    +0.000 C 
ATOM     15  O   UNL     1       1.545   8.744  19.431  0.00  0.00    +0.000 OA
BRANCH  14  16
ATOM     16  O   UNL     1       1.880   8.305  21.611  0.00  0.00    +0.000 OA
ATOM     17  H   UNL     1       2.513   9.024  21.779  0.00  0.00    +0.000 HD
ENDBRANCH  14  16
ENDBRANCH   8  14
BRANCH   9  18
ATOM     18  C   UNL     1       3.095   6.680  17.834  0.00  0.00    +0.000 C 
BRANCH  18  19
ATOM     19  C   UNL     1       4.573   6.619  17.513  0.00  0.00    +0.000 A 
ATOM     20  C   UNL     1       5.540   6.223  18.473  0.00  0.00    +0.000 A 
ATOM     21  C   UNL     1       6.747   5.639  18.077  0.00  0.00    +0.000 A 
ATOM     22  C   UNL     1       6.920   5.428  16.730  0.00  0.00    +0.000 A 
ATOM     23  C   UNL     1       6.049   5.941  15.791  0.00  0.00    +0.000 A 
ATOM     24  C   UNL     1       4.903   6.603  16.146  0.00  0.00    +0.000 A 
ATOM     25  O   UNL     1       6.322   5.481  14.535  0.00  0.00    +0.000 OA
ATOM     26  C   UNL     1       7.103   4.330  14.913  0.00  0.00    +0.000 C 
ATOM     27  O   UNL     1       7.796   4.548  16.162  0.00  0.00    +0.000 OA
ENDBRANCH  18  19
ENDBRANCH   9  18
TORSDOF 4
ENDMDL
MODEL 5
REMARK VINA RESULT:      -7.6      3.679      5.724
REMARK  Name = 
REMARK  4 active torsions:
REMARK  status: ('A' for Active; 'I' for Inactive)
REMARK    1  A    between atoms: C_8  and  C_9
REMARK    2  A    between atoms: C_9  and  O_11
REMARK    3  A    between atoms: N_12  and  C_13
REMARK    4  A    between atoms: C_13  and  C_14
REMARK                            x       y       z     vdW  Elec       q    Type
REMARK                         _______ _______ _______ _____ _____    ______ ____
ROOT
ATOM      1  N   UNL     1       2.129   9.608  17.392  0.00  0.00    +0.000 N 
ATOM      2  C   UNL     1       2.010   8.613  18.348  0.00  0.00    +0.000 A 
ATOM      3  N   UNL     1       1.735   9.026  19.586  0.00  0.00    +0.000 NA
ATOM      4  C   UNL     1       1.594   8.089  20.526  0.00  0.00    +0.000 A 
ATOM      5 CL   UNL     1       1.254   8.578  22.114  0.00  0.00    +0.000 Cl
ATOM      6  C   UNL     1       1.727   6.743  20.250  0.00  0.00    +0.000 A 
ATOM      7  C   UNL     1       1.644   5.511  20.944  0.00  0.00    +0.000 A 
ATOM      8  C   UNL     1       1.890   4.474  20.051  0.00  0.00    +0.000 A 
ATOM      9  N   UNL     1       2.173   5.079  18.834  0.00  0.00    +0.000 N 
ATOM     10  C   UNL     1       2.046   6.449  18.939  0.00  0.00    +0.000 A 
ATOM     11  N   UNL     1       2.208   7.351  17.951  0.00  0.00    +0.000 NA
ATOM     12  H   UNL     1       2.330  10.499  17.825  0.00  0.00    +0.000 HD
ATOM     13  H   UNL     1       2.709   9.321  16.620  0.00  0.00    +0.000 HD
ENDROOT
BRANCH   8  14
ATOM     14  C   UNL     1       1.927   3.043  20.291  0.00  0.00    +0.000 C 
ATOM     15  O   UNL     1       1.162   2.216  19.819  0.00  0.00    +0.000 OA
BRANCH  14  16
ATOM     16  O   UNL     1       2.928   2.690  21.128  0.00  0.00    +0.000 OA
ATOM     17  H   UNL     1       3.725   2.359  20.678  0.00  0.00    +0.000 HD
ENDBRANCH  14  16
ENDBRANCH   8  14
BRANCH   9  18
ATOM     18  C   UNL     1       2.667   4.404  17.642  0.00  0.00    +0.000 C 
BRANCH  18  19
ATOM     19  C   UNL     1       4.157   4.143  17.600  0.00  0.00    +0.000 A 
ATOM     20  C   UNL     1       4.880   4.079  16.381  0.00  0.00    +0.000 A 
ATOM     21  C   UNL     1       6.241   4.397  16.335  0.00  0.00    +0.000 A 
ATOM     22  C   UNL     1       6.818   4.817  17.510  0.00  0.00    +0.000 A 
ATOM     23  C   UNL     1       6.157   4.740  18.718  0.00  0.00    +0.000 A 
ATOM     24  C   UNL     1       4.849   4.341  18.808  0.00  0.00    +0.000 A 
ATOM     25  O   UNL     1       6.853   5.352  19.721  0.00  0.00    +0.000 OA
ATOM     26  C   UNL     1       7.711   6.165  18.897  0.00  0.00    +0.000 C 
ATOM     27  O   UNL     1       7.975   5.535  17.624  0.00  0.00    +0.000 OA
ENDBRANCH  18  19
ENDBRANCH   9  18
TORSDOF 4
ENDMDL
MODEL 6
REMARK VINA RESULT:      -7.6      3.640      5.583
REMARK  Name = 
REMARK  4 active torsions:
REMARK  status: ('A' for Active; 'I' for Inactive)
REMARK    1  A    between atoms: C_8  and  C_9
REMARK    2  A    between atoms: C_9  and  O_11
REMARK    3  A    between atoms: N_12  and  C_13
REMARK    4  A    between atoms: C_13  and  C_14
REMARK                            x       y       z     vdW  Elec       q    Type
REMARK                         _______ _______ _______ _____ _____    ______ ____
ROOT
ATOM      1  N   UNL     1       1.803   9.776  17.448  0.00  0.00    +0.000 N 
ATOM      2  C   UNL     1       1.860   8.742  18.367  0.00  0.00    +0.000 A 
ATOM      3  N   UNL     1       1.586   9.071  19.630  0.00  0.00    +0.000 NA
ATOM      4  C   UNL     1       1.613   8.090  20.536  0.00  0.00    +0.000 A 
ATOM      5 CL   UNL     1       1.280   8.473  22.154  0.00  0.00    +0.000 Cl
ATOM      6  C   UNL     1       1.912   6.785  20.201  0.00  0.00    +0.000 A 
ATOM      7  C   UNL     1       2.025   5.530  20.847  0.00  0.00    +0.000 A 
ATOM      8  C   UNL     1       2.368   4.567  19.904  0.00  0.00    +0.000 A 
ATOM      9  N   UNL     1       2.515   5.247  18.702  0.00  0.00    +0.000 N 
ATOM     10  C   UNL     1       2.210   6.583  18.867  0.00  0.00    +0.000 A 
ATOM     11  N   UNL     1       2.207   7.533  17.911  0.00  0.00    +0.000 NA
ATOM     12  H   UNL     1       1.902  10.670  17.908  0.00  0.00    +0.000 HD
ATOM     13  H   UNL     1       2.382   9.598  16.643  0.00  0.00    +0.000 HD
ENDROOT
BRANCH   8  14
ATOM     14  C   UNL     1       2.606   3.147  20.084  0.00  0.00    +0.000 C 
ATOM     15  O   UNL     1       3.665   2.631  20.405  0.00  0.00    +0.000 OA
BRANCH  14  16
ATOM     16  O   UNL     1       1.497   2.409  19.848  0.00  0.00    +0.000 OA
ATOM     17  H   UNL     1       1.668   1.574  19.379  0.00  0.00    +0.000 HD
ENDBRANCH  14  16
ENDBRANCH   8  14
BRANCH   9  18
ATOM     18  C   UNL     1       3.042   4.687  17.466  0.00  0.00    +0.000 C 
BRANCH  18  19
ATOM     19  C   UNL     1       4.483   5.025  17.149  0.00  0.00    +0.000 A 
ATOM     20  C   UNL     1       4.842   6.165  16.383  0.00  0.00    +0.000 A 
ATOM     21  C   UNL     1       6.086   6.780  16.553  0.00  0.00    +0.000 A 
ATOM     22  C   UNL     1       6.908   6.257  17.523  0.00  0.00    +0.000 A 
ATOM     23  C   UNL     1       6.622   5.070  18.162  0.00  0.00    +0.000 A 
ATOM     24  C   UNL     1       5.451   4.391  17.948  0.00  0.00    +0.000 A 
ATOM     25  O   UNL     1       7.485   4.822  19.190  0.00  0.00    +0.000 OA
ATOM     26  C   UNL     1       7.974   6.166  19.365  0.00  0.00    +0.000 C 
ATOM     27  O   UNL     1       7.952   6.903  18.123  0.00  0.00    +0.000 OA
ENDBRANCH  18  19
ENDBRANCH   9  18
TORSDOF 4
ENDMDL
MODEL 7
REMARK VINA RESULT:      -7.5      3.812      6.007
REMARK  Name = 
REMARK  4 active torsions:
REMARK  status: ('A' for Active; 'I' for Inactive)
REMARK    1  A    between atoms: C_8  and  C_9
REMARK    2  A    between atoms: C_9  and  O_11
REMARK    3  A    between atoms: N_12  and  C_13
REMARK    4  A    between atoms: C_13  and  C_14
REMARK                            x       y       z     vdW  Elec       q    Type
REMARK                         _______ _______ _______ _____ _____    ______ ____
ROOT
ATOM      1  N   UNL     1       1.637  10.447  17.732  0.00  0.00    +0.000 N 
ATOM      2  C   UNL     1       1.606   9.439  18.680  0.00  0.00    +0.000 A 
ATOM      3  N   UNL     1       1.236   9.807  19.907  0.00  0.00    +0.000 NA
ATOM      4  C   UNL     1       1.177   8.853  20.840  0.00  0.00    +0.000 A 
ATOM      5 CL   UNL     1       0.720   9.287  22.415  0.00  0.00    +0.000 Cl
ATOM      6  C   UNL     1       1.485   7.536  20.567  0.00  0.00    +0.000 A 
ATOM      7  C   UNL     1       1.530   6.299  21.255  0.00  0.00    +0.000 A 
ATOM      8  C   UNL     1       1.935   5.306  20.370  0.00  0.00    +0.000 A 
ATOM      9  N   UNL     1       2.187   5.949  19.166  0.00  0.00    +0.000 N 
ATOM     10  C   UNL     1       1.887   7.292  19.268  0.00  0.00    +0.000 A 
ATOM     11  N   UNL     1       1.974   8.214  18.289  0.00  0.00    +0.000 NA
ATOM     12  H   UNL     1       1.710  11.353  18.173  0.00  0.00    +0.000 HD
ATOM     13  H   UNL     1       2.277  10.239  16.981  0.00  0.00    +0.000 HD
ENDROOT
BRANCH   8  14
ATOM     14  C   UNL     1       2.140   3.889  20.609  0.00  0.00    +0.000 C 
ATOM     15  O   UNL     1       2.108   3.007  19.765  0.00  0.00    +0.000 OA
BRANCH  14  16
ATOM     16  O   UNL     1       2.375   3.618  21.913  0.00  0.00    +0.000 OA
ATOM     17  H   UNL     1       1.602   3.273  22.393  0.00  0.00    +0.000 HD
ENDBRANCH  14  16
ENDBRANCH   8  14
BRANCH   9  18
ATOM     18  C   UNL     1       2.805   5.348  17.993  0.00  0.00    +0.000 C 
BRANCH  18  19
ATOM     19  C   UNL     1       4.291   5.589  17.831  0.00  0.00    +0.000 A 
ATOM     20  C   UNL     1       5.253   4.978  18.676  0.00  0.00    +0.000 A 
ATOM     21  C   UNL     1       6.553   4.735  18.225  0.00  0.00    +0.000 A 
ATOM     22  C   UNL     1       6.829   5.070  16.921  0.00  0.00    +0.000 A 
ATOM     23  C   UNL     1       5.943   5.792  16.149  0.00  0.00    +0.000 A 
ATOM     24  C   UNL     1       4.693   6.129  16.597  0.00  0.00    +0.000 A 
ATOM     25  O   UNL     1       6.350   5.876  14.848  0.00  0.00    +0.000 OA
ATOM     26  C   UNL     1       7.273   4.770  14.859  0.00  0.00    +0.000 C 
ATOM     27  O   UNL     1       7.857   4.580  16.167  0.00  0.00    +0.000 OA
ENDBRANCH  18  19
ENDBRANCH   9  18
TORSDOF 4
ENDMDL
MODEL 8
REMARK VINA RESULT:      -7.5      3.038      5.782
REMARK  Name = 
REMARK  4 active torsions:
REMARK  status: ('A' for Active; 'I' for Inactive)
REMARK    1  A    between atoms: C_8  and  C_9
REMARK    2  A    between atoms: C_9  and  O_11
REMARK    3  A    between atoms: N_12  and  C_13
REMARK    4  A    between atoms: C_13  and  C_14
REMARK                            x       y       z     vdW  Elec       q    Type
REMARK                         _______ _______ _______ _____ _____    ______ ____
ROOT
ATOM      1  N   UNL     1       5.175   1.327  20.147  0.00  0.00    +0.000 N 
ATOM      2  C   UNL     1       4.250   2.269  19.730  0.00  0.00    +0.000 A 
ATOM      3  N   UNL     1       3.021   1.811  19.492  0.00  0.00    +0.000 NA
ATOM      4  C   UNL     1       2.101   2.700  19.108  0.00  0.00    +0.000 A 
ATOM      5 CL   UNL     1       0.529   2.151  18.786  0.00  0.00    +0.000 Cl
ATOM      6  C   UNL     1       2.391   4.041  18.956  0.00  0.00    +0.000 A 
ATOM      7  C   UNL     1       1.714   5.230  18.592  0.00  0.00    +0.000 A 
ATOM      8  C   UNL     1       2.612   6.291  18.638  0.00  0.00    +0.000 A 
ATOM      9  N   UNL     1       3.839   5.736  18.975  0.00  0.00    +0.000 N 
ATOM     10  C   UNL     1       3.707   4.380  19.200  0.00  0.00    +0.000 A 
ATOM     11  N   UNL     1       4.679   3.528  19.580  0.00  0.00    +0.000 NA
ATOM     12  H   UNL     1       4.884   0.397  19.882  0.00  0.00    +0.000 HD
ATOM     13  H   UNL     1       6.119   1.603  19.926  0.00  0.00    +0.000 HD
ENDROOT
BRANCH   8  14
ATOM     14  C   UNL     1       2.395   7.695  18.340  0.00  0.00    +0.000 C 
ATOM     15  O   UNL     1       2.652   8.254  17.286  0.00  0.00    +0.000 OA
BRANCH  14  16
ATOM     16  O   UNL     1       1.860   8.363  19.388  0.00  0.00    +0.000 OA
ATOM     17  H   UNL     1       2.366   8.276  20.215  0.00  0.00    +0.000 HD
ENDBRANCH  14  16
ENDBRANCH   8  14
BRANCH   9  18
ATOM     18  C   UNL     1       5.119   6.430  18.968  0.00  0.00    +0.000 C 
BRANCH  18  19
ATOM     19  C   UNL     1       6.034   6.120  17.803  0.00  0.00    +0.000 A 
ATOM     20  C   UNL     1       7.154   5.258  17.930  0.00  0.00    +0.000 A 
ATOM     21  C   UNL     1       7.638   4.544  16.829  0.00  0.00    +0.000 A 
ATOM     22  C   UNL     1       6.948   4.683  15.649  0.00  0.00    +0.000 A 
ATOM     23  C   UNL     1       5.953   5.625  15.490  0.00  0.00    +0.000 A 
ATOM     24  C   UNL     1       5.519   6.409  16.527  0.00  0.00    +0.000 A 
ATOM     25  O   UNL     1       5.301   5.483  14.299  0.00  0.00    +0.000 OA
ATOM     26  C   UNL     1       5.691   4.124  14.022  0.00  0.00    +0.000 C 
ATOM     27  O   UNL     1       6.982   3.817  14.593  0.00  0.00    +0.000 OA
ENDBRANCH  18  19
ENDBRANCH   9  18
TORSDOF 4
ENDMDL
MODEL 9
REMARK VINA RESULT:      -7.3      3.366      6.277
REMARK  Name = 
REMARK  4 active torsions:
REMARK  status: ('A' for Active; 'I' for Inactive)
REMARK    1  A    between atoms: C_8  and  C_9
REMARK    2  A    between atoms: C_9  and  O_11
REMARK    3  A    between atoms: N_12  and  C_13
REMARK    4  A    between atoms: C_13  and  C_14
REMARK                            x       y       z     vdW  Elec       q    Type
REMARK                         _______ _______ _______ _____ _____    ______ ____
ROOT
ATOM      1  N   UNL     1       5.338   1.438  20.408  0.00  0.00    +0.000 N 
ATOM      2  C   UNL     1       4.453   2.457  20.102  0.00  0.00    +0.000 A 
ATOM      3  N   UNL     1       3.195   2.275  20.503  0.00  0.00    +0.000 NA
ATOM      4  C   UNL     1       2.322   3.251  20.241  0.00  0.00    +0.000 A 
ATOM      5 CL   UNL     1       0.710   3.049  20.728  0.00  0.00    +0.000 Cl
ATOM      6  C   UNL     1       2.686   4.407  19.580  0.00  0.00    +0.000 A 
ATOM      7  C   UNL     1       2.077   5.611  19.150  0.00  0.00    +0.000 A 
ATOM      8  C   UNL     1       3.035   6.398  18.518  0.00  0.00    +0.000 A 
ATOM      9  N   UNL     1       4.204   5.650  18.520  0.00  0.00    +0.000 N 
ATOM     10  C   UNL     1       4.009   4.458  19.188  0.00  0.00    +0.000 A 
ATOM     11  N   UNL     1       4.932   3.503  19.417  0.00  0.00    +0.000 NA
ATOM     12  H   UNL     1       4.844   0.573  20.577  0.00  0.00    +0.000 HD
ATOM     13  H   UNL     1       6.119   1.413  19.771  0.00  0.00    +0.000 HD
ENDROOT
BRANCH   8  14
ATOM     14  C   UNL     1       2.891   7.706  17.904  0.00  0.00    +0.000 C 
ATOM     15  O   UNL     1       3.369   8.053  16.836  0.00  0.00    +0.000 OA
BRANCH  14  16
ATOM     16  O   UNL     1       2.150   8.547  18.660  0.00  0.00    +0.000 OA
ATOM     17  H   UNL     1       2.119   9.460  18.324  0.00  0.00    +0.000 HD
ENDBRANCH  14  16
ENDBRANCH   8  14
BRANCH   9  18
ATOM     18  C   UNL     1       5.431   5.986  17.812  0.00  0.00    +0.000 C 
BRANCH  18  19
ATOM     19  C   UNL     1       5.852   5.021  16.725  0.00  0.00    +0.000 A 
ATOM     20  C   UNL     1       4.922   4.191  16.047  0.00  0.00    +0.000 A 
ATOM     21  C   UNL     1       5.169   3.752  14.743  0.00  0.00    +0.000 A 
ATOM     22  C   UNL     1       6.323   4.201  14.146  0.00  0.00    +0.000 A 
ATOM     23  C   UNL     1       7.292   4.884  14.850  0.00  0.00    +0.000 A 
ATOM     24  C   UNL     1       7.120   5.249  16.160  0.00  0.00    +0.000 A 
ATOM     25  O   UNL     1       8.271   5.369  14.032  0.00  0.00    +0.000 OA
ATOM     26  C   UNL     1       7.541   5.306  12.792  0.00  0.00    +0.000 C 
ATOM     27  O   UNL     1       6.570   4.236  12.803  0.00  0.00    +0.000 OA
ENDBRANCH  18  19
ENDBRANCH   9  18
TORSDOF 4
ENDMDL
