MODEL 1
REMARK VINA RESULT:      -7.2      0.000      0.000
REMARK  Name = 
REMARK  13 active torsions:
REMARK  status: ('A' for Active; 'I' for Inactive)
REMARK    1  A    between atoms: C_1  and  O_2
REMARK    2  A    between atoms: O_2  and  C_3
REMARK    3  A    between atoms: C_3  and  C_5
REMARK    4  A    between atoms: C_8  and  O_9
REMARK    5  A    between atoms: O_9  and  C_10
REMARK    6  A    between atoms: C_10  and  C_11
REMARK    7  A    between atoms: C_14  and  O_15
REMARK    8  A    between atoms: O_15  and  C_16
REMARK    9  A    between atoms: C_17  and  O_18
REMARK   10  A    between atoms: O_18  and  C_19
REMARK   11  A    between atoms: C_25  and  C_27
REMARK   12  A    between atoms: C_30  and  O_31
REMARK   13  A    between atoms: O_31  and  C_32
REMARK                            x       y       z     vdW  Elec       q    Type
REMARK                         _______ _______ _______ _____ _____    ______ ____
ROOT
ATOM      1  C   UNL     1       0.916  10.001  18.665  0.00  0.00    +0.000 C 
ATOM      2  C   UNL     1       0.697  11.081  19.711  0.00  0.00    +0.000 A 
ATOM      3  C   UNL     1       0.805  12.413  19.324  0.00  0.00    +0.000 A 
ATOM      4  C   UNL     1       0.489  13.464  20.196  0.00  0.00    +0.000 A 
ATOM      5  C   UNL     1       0.038  13.181  21.495  0.00  0.00    +0.000 A 
ATOM      6  C   UNL     1      -0.050  11.837  21.904  0.00  0.00    +0.000 A 
ATOM      7  C   UNL     1       0.334  10.787  21.027  0.00  0.00    +0.000 A 
ATOM      8  C   UNL     1       0.355   9.340  21.453  0.00  0.00    +0.000 C 
ATOM      9  C   UNL     1       1.055   8.336  20.483  0.00  0.00    +0.000 C 
ATOM     10  N   UNL     1       1.625   8.849  19.228  0.00  0.00    +0.000 N 
ATOM     11  C   UNL     1       2.422   8.106  18.291  0.00  0.00    +0.000 C 
ATOM     12  O   UNL     1       2.908   8.614  17.294  0.00  0.00    +0.000 OA
ENDROOT
BRANCH  11  13
ATOM     13  C   UNL     1       2.623   6.623  18.496  0.00  0.00    +0.000 A 
ATOM     14  C   UNL     1       3.588   6.141  19.372  0.00  0.00    +0.000 A 
ATOM     15  C   UNL     1       3.883   4.781  19.463  0.00  0.00    +0.000 A 
ATOM     16  C   UNL     1       3.121   3.847  18.777  0.00  0.00    +0.000 A 
ATOM     17  C   UNL     1       2.024   4.289  18.039  0.00  0.00    +0.000 A 
ATOM     18  C   UNL     1       1.766   5.678  17.895  0.00  0.00    +0.000 A 
BRANCH  16  19
ATOM     19  O   UNL     1       3.610   2.574  18.862  0.00  0.00    +0.000 OA
ATOM     20  C   UNL     1       4.379   2.204  19.994  0.00  0.00    +0.000 C 
ENDBRANCH  16  19
ENDBRANCH  11  13
BRANCH   4  21
ATOM     21  O   UNL     1       0.620  14.776  19.796  0.00  0.00    +0.000 OA
ATOM     22  C   UNL     1       1.970  15.210  19.610  0.00  0.00    +0.000 C 
ENDBRANCH   4  21
BRANCH   5  23
ATOM     23  O   UNL     1      -0.288  14.275  22.269  0.00  0.00    +0.000 OA
ATOM     24  C   UNL     1      -1.649  14.628  22.469  0.00  0.00    +0.000 C 
ENDBRANCH   5  23
BRANCH   1  25
ATOM     25  C   UNL     1      -0.448   9.547  18.051  0.00  0.00    +0.000 C 
BRANCH  25  26
ATOM     26  O   UNL     1      -0.959  10.623  17.240  0.00  0.00    +0.000 OA
BRANCH  26  30
ATOM     27  C   UNL     1      -4.962  11.604  17.612  0.00  0.00    +0.000 A 
ATOM     28  C   UNL     1      -4.080  11.772  18.684  0.00  0.00    +0.000 A 
ATOM     29  C   UNL     1      -2.735  11.443  18.521  0.00  0.00    +0.000 A 
ATOM     30  C   UNL     1      -2.275  10.926  17.305  0.00  0.00    +0.000 A 
ATOM     31  C   UNL     1      -3.130  10.830  16.219  0.00  0.00    +0.000 A 
ATOM     32  C   UNL     1      -4.472  11.167  16.372  0.00  0.00    +0.000 A 
BRANCH  27  33
ATOM     33  C   UNL     1      -6.409  11.862  17.834  0.00  0.00    +0.000 C 
ATOM     34  O   UNL     1      -6.999  12.846  17.420  0.00  0.00    +0.000 OA
BRANCH  33  36
ATOM     35  C   UNL     1      -7.485  11.302  19.836  0.00  0.00    +0.000 C 
ATOM     36  O   UNL     1      -6.935  10.871  18.594  0.00  0.00    +0.000 OA
ENDBRANCH  33  36
ENDBRANCH  27  33
ENDBRANCH  26  30
ENDBRANCH  25  26
ENDBRANCH   1  25
TORSDOF 9
ENDMDL
MODEL 2
REMARK VINA RESULT:      -7.2      0.775      1.548
REMARK  Name = 
REMARK  13 active torsions:
REMARK  status: ('A' for Active; 'I' for Inactive)
REMARK    1  A    between atoms: C_1  and  O_2
REMARK    2  A    between atoms: O_2  and  C_3
REMARK    3  A    between atoms: C_3  and  C_5
REMARK    4  A    between atoms: C_8  and  O_9
REMARK    5  A    between atoms: O_9  and  C_10
REMARK    6  A    between atoms: C_10  and  C_11
REMARK    7  A    between atoms: C_14  and  O_15
REMARK    8  A    between atoms: O_15  and  C_16
REMARK    9  A    between atoms: C_17  and  O_18
REMARK   10  A    between atoms: O_18  and  C_19
REMARK   11  A    between atoms: C_25  and  C_27
REMARK   12  A    between atoms: C_30  and  O_31
REMARK   13  A    between atoms: O_31  and  C_32
REMARK                            x       y       z     vdW  Elec       q    Type
REMARK                         _______ _______ _______ _____ _____    ______ ____
ROOT
ATOM      1  C   UNL     1       0.889  10.093  18.977  0.00  0.00    +0.000 C 
ATOM      2  C   UNL     1       0.575  11.074  20.094  0.00  0.00    +0.000 A 
ATOM      3  C   UNL     1       0.783  12.431  19.866  0.00  0.00    +0.000 A 
ATOM      4  C   UNL     1       0.394  13.404  20.796  0.00  0.00    +0.000 A 
ATOM      5  C   UNL     1      -0.235  13.017  21.989  0.00  0.00    +0.000 A 
ATOM      6  C   UNL     1      -0.427  11.646  22.241  0.00  0.00    +0.000 A 
ATOM      7  C   UNL     1       0.029  10.669  21.314  0.00  0.00    +0.000 A 
ATOM      8  C   UNL     1      -0.061   9.189  21.586  0.00  0.00    +0.000 C 
ATOM      9  C   UNL     1       0.723   8.252  20.612  0.00  0.00    +0.000 C 
ATOM     10  N   UNL     1       1.474   8.856  19.502  0.00  0.00    +0.000 N 
ATOM     11  C   UNL     1       2.360   8.171  18.602  0.00  0.00    +0.000 C 
ATOM     12  O   UNL     1       2.992   8.749  17.735  0.00  0.00    +0.000 OA
ENDROOT
BRANCH  11  13
ATOM     13  C   UNL     1       2.476   6.666  18.674  0.00  0.00    +0.000 A 
ATOM     14  C   UNL     1       1.787   5.848  17.786  0.00  0.00    +0.000 A 
ATOM     15  C   UNL     1       1.769   4.461  17.929  0.00  0.00    +0.000 A 
ATOM     16  C   UNL     1       2.557   3.841  18.888  0.00  0.00    +0.000 A 
ATOM     17  C   UNL     1       3.404   4.625  19.668  0.00  0.00    +0.000 A 
ATOM     18  C   UNL     1       3.371   6.042  19.566  0.00  0.00    +0.000 A 
BRANCH  16  19
ATOM     19  O   UNL     1       2.333   2.497  18.993  0.00  0.00    +0.000 OA
ATOM     20  C   UNL     1       3.307   1.595  18.496  0.00  0.00    +0.000 C 
ENDBRANCH  16  19
ENDBRANCH  11  13
BRANCH   4  21
ATOM     21  O   UNL     1       0.626  14.742  20.556  0.00  0.00    +0.000 OA
ATOM     22  C   UNL     1       0.965  15.053  19.202  0.00  0.00    +0.000 C 
ENDBRANCH   4  21
BRANCH   5  23
ATOM     23  O   UNL     1      -0.620  14.045  22.825  0.00  0.00    +0.000 OA
ATOM     24  C   UNL     1      -1.758  13.897  23.663  0.00  0.00    +0.000 C 
ENDBRANCH   5  23
BRANCH   1  25
ATOM     25  C   UNL     1      -0.397   9.773  18.149  0.00  0.00    +0.000 C 
BRANCH  25  26
ATOM     26  O   UNL     1      -0.946  11.015  17.668  0.00  0.00    +0.000 OA
BRANCH  26  30
ATOM     27  C   UNL     1      -5.031  11.628  17.919  0.00  0.00    +0.000 A 
ATOM     28  C   UNL     1      -4.470  10.975  16.816  0.00  0.00    +0.000 A 
ATOM     29  C   UNL     1      -3.091  10.775  16.769  0.00  0.00    +0.000 A 
ATOM     30  C   UNL     1      -2.272  11.243  17.803  0.00  0.00    +0.000 A 
ATOM     31  C   UNL     1      -2.831  11.821  18.931  0.00  0.00    +0.000 A 
ATOM     32  C   UNL     1      -4.209  12.015  18.988  0.00  0.00    +0.000 A 
BRANCH  27  33
ATOM     33  C   UNL     1      -6.488  11.924  17.905  0.00  0.00    +0.000 C 
ATOM     34  O   UNL     1      -7.282  11.487  18.721  0.00  0.00    +0.000 OA
BRANCH  33  36
ATOM     35  C   UNL     1      -6.784  14.102  17.101  0.00  0.00    +0.000 C 
ATOM     36  O   UNL     1      -6.781  12.702  16.835  0.00  0.00    +0.000 OA
ENDBRANCH  33  36
ENDBRANCH  27  33
ENDBRANCH  26  30
ENDBRANCH  25  26
ENDBRANCH   1  25
TORSDOF 9
ENDMDL
MODEL 3
REMARK VINA RESULT:      -7.1      0.961      1.402
REMARK  Name = 
REMARK  13 active torsions:
REMARK  status: ('A' for Active; 'I' for Inactive)
REMARK    1  A    between atoms: C_1  and  O_2
REMARK    2  A    between atoms: O_2  and  C_3
REMARK    3  A    between atoms: C_3  and  C_5
REMARK    4  A    between atoms: C_8  and  O_9
REMARK    5  A    between atoms: O_9  and  C_10
REMARK    6  A    between atoms: C_10  and  C_11
REMARK    7  A    between atoms: C_14  and  O_15
REMARK    8  A    between atoms: O_15  and  C_16
REMARK    9  A    between atoms: C_17  and  O_18
REMARK   10  A    between atoms: O_18  and  C_19
REMARK   11  A    between atoms: C_25  and  C_27
REMARK   12  A    between atoms: C_30  and  O_31
REMARK   13  A    between atoms: O_31  and  C_32
REMARK                            x       y       z     vdW  Elec       q    Type
REMARK                         _______ _______ _______ _____ _____    ______ ____
ROOT
ATOM      1  C   UNL     1       0.796   9.959  19.221  0.00  0.00    +0.000 C 
ATOM      2  C   UNL     1       0.414  10.840  20.397  0.00  0.00    +0.000 A 
ATOM      3  C   UNL     1       0.597  12.215  20.285  0.00  0.00    +0.000 A 
ATOM      4  C   UNL     1       0.148  13.103  21.272  0.00  0.00    +0.000 A 
ATOM      5  C   UNL     1      -0.518  12.609  22.404  0.00  0.00    +0.000 A 
ATOM      6  C   UNL     1      -0.686  11.219  22.539  0.00  0.00    +0.000 A 
ATOM      7  C   UNL     1      -0.170  10.328  21.558  0.00  0.00    +0.000 A 
ATOM      8  C   UNL     1      -0.234   8.829  21.709  0.00  0.00    +0.000 C 
ATOM      9  C   UNL     1       0.611   7.990  20.698  0.00  0.00    +0.000 C 
ATOM     10  N   UNL     1       1.389   8.696  19.670  0.00  0.00    +0.000 N 
ATOM     11  C   UNL     1       2.326   8.104  18.756  0.00  0.00    +0.000 C 
ATOM     12  O   UNL     1       2.978   8.763  17.964  0.00  0.00    +0.000 OA
ENDROOT
BRANCH  11  13
ATOM     13  C   UNL     1       2.476   6.601  18.714  0.00  0.00    +0.000 A 
ATOM     14  C   UNL     1       1.736   5.828  17.827  0.00  0.00    +0.000 A 
ATOM     15  C   UNL     1       1.756   4.435  17.874  0.00  0.00    +0.000 A 
ATOM     16  C   UNL     1       2.628   3.770  18.725  0.00  0.00    +0.000 A 
ATOM     17  C   UNL     1       3.518   4.521  19.490  0.00  0.00    +0.000 A 
ATOM     18  C   UNL     1       3.451   5.940  19.489  0.00  0.00    +0.000 A 
BRANCH  16  19
ATOM     19  O   UNL     1       2.439   2.418  18.753  0.00  0.00    +0.000 OA
ATOM     20  C   UNL     1       3.552   1.561  18.558  0.00  0.00    +0.000 C 
ENDBRANCH  16  19
ENDBRANCH  11  13
BRANCH   4  21
ATOM     21  O   UNL     1       0.356  14.460  21.148  0.00  0.00    +0.000 OA
ATOM     22  C   UNL     1       1.722  14.837  20.954  0.00  0.00    +0.000 C 
ENDBRANCH   4  21
BRANCH   5  23
ATOM     23  O   UNL     1      -0.960  13.558  23.303  0.00  0.00    +0.000 OA
ATOM     24  C   UNL     1      -2.350  13.825  23.434  0.00  0.00    +0.000 C 
ENDBRANCH   5  23
BRANCH   1  25
ATOM     25  C   UNL     1      -0.449   9.678  18.318  0.00  0.00    +0.000 C 
BRANCH  25  26
ATOM     26  O   UNL     1      -1.090  10.935  18.027  0.00  0.00    +0.000 OA
BRANCH  26  30
ATOM     27  C   UNL     1      -5.186  11.336  18.462  0.00  0.00    +0.000 A 
ATOM     28  C   UNL     1      -4.304  12.085  19.248  0.00  0.00    +0.000 A 
ATOM     29  C   UNL     1      -2.930  11.934  19.068  0.00  0.00    +0.000 A 
ATOM     30  C   UNL     1      -2.435  11.025  18.127  0.00  0.00    +0.000 A 
ATOM     31  C   UNL     1      -3.304  10.338  17.294  0.00  0.00    +0.000 A 
ATOM     32  C   UNL     1      -4.678  10.492  17.463  0.00  0.00    +0.000 A 
BRANCH  27  33
ATOM     33  C   UNL     1      -6.643  11.432  18.738  0.00  0.00    +0.000 C 
ATOM     34  O   UNL     1      -7.194  10.911  19.693  0.00  0.00    +0.000 OA
BRANCH  33  36
ATOM     35  C   UNL     1      -7.841  13.362  18.175  0.00  0.00    +0.000 C 
ATOM     36  O   UNL     1      -7.246  12.139  17.751  0.00  0.00    +0.000 OA
ENDBRANCH  33  36
ENDBRANCH  27  33
ENDBRANCH  26  30
ENDBRANCH  25  26
ENDBRANCH   1  25
TORSDOF 9
ENDMDL
MODEL 4
REMARK VINA RESULT:      -7.1      2.409      6.816
REMARK  Name = 
REMARK  13 active torsions:
REMARK  status: ('A' for Active; 'I' for Inactive)
REMARK    1  A    between atoms: C_1  and  O_2
REMARK    2  A    between atoms: O_2  and  C_3
REMARK    3  A    between atoms: C_3  and  C_5
REMARK    4  A    between atoms: C_8  and  O_9
REMARK    5  A    between atoms: O_9  and  C_10
REMARK    6  A    between atoms: C_10  and  C_11
REMARK    7  A    between atoms: C_14  and  O_15
REMARK    8  A    between atoms: O_15  and  C_16
REMARK    9  A    between atoms: C_17  and  O_18
REMARK   10  A    between atoms: O_18  and  C_19
REMARK   11  A    between atoms: C_25  and  C_27
REMARK   12  A    between atoms: C_30  and  O_31
REMARK   13  A    between atoms: O_31  and  C_32
REMARK                            x       y       z     vdW  Elec       q    Type
REMARK                         _______ _______ _______ _____ _____    ______ ____
ROOT
ATOM      1  C   UNL     1      -1.643  11.987  19.356  0.00  0.00    +0.000 C 
ATOM      2  C   UNL     1      -3.158  12.018  19.251  0.00  0.00    +0.000 A 
ATOM      3  C   UNL     1      -3.861  12.932  20.030  0.00  0.00    +0.000 A 
ATOM      4  C   UNL     1      -5.244  13.111  19.892  0.00  0.00    +0.000 A 
ATOM      5  C   UNL     1      -5.953  12.364  18.938  0.00  0.00    +0.000 A 
ATOM      6  C   UNL     1      -5.256  11.419  18.163  0.00  0.00    +0.000 A 
ATOM      7  C   UNL     1      -3.864  11.207  18.359  0.00  0.00    +0.000 A 
ATOM      8  C   UNL     1      -3.095  10.135  17.627  0.00  0.00    +0.000 C 
ATOM      9  C   UNL     1      -1.650   9.839  18.141  0.00  0.00    +0.000 C 
ATOM     10  N   UNL     1      -1.130  10.617  19.275  0.00  0.00    +0.000 N 
ATOM     11  C   UNL     1       0.108  10.388  19.967  0.00  0.00    +0.000 C 
ATOM     12  O   UNL     1       0.450  11.043  20.937  0.00  0.00    +0.000 OA
ENDROOT
BRANCH  11  13
ATOM     13  C   UNL     1       1.068   9.342  19.448  0.00  0.00    +0.000 A 
ATOM     14  C   UNL     1       1.699   9.491  18.219  0.00  0.00    +0.000 A 
ATOM     15  C   UNL     1       2.473   8.473  17.664  0.00  0.00    +0.000 A 
ATOM     16  C   UNL     1       2.752   7.323  18.388  0.00  0.00    +0.000 A 
ATOM     17  C   UNL     1       2.288   7.230  19.699  0.00  0.00    +0.000 A 
ATOM     18  C   UNL     1       1.446   8.238  20.239  0.00  0.00    +0.000 A 
BRANCH  16  19
ATOM     19  O   UNL     1       3.408   6.368  17.666  0.00  0.00    +0.000 OA
ATOM     20  C   UNL     1       4.648   6.690  17.060  0.00  0.00    +0.000 C 
ENDBRANCH  16  19
ENDBRANCH  11  13
BRANCH   4  21
ATOM     21  O   UNL     1      -5.922  14.010  20.687  0.00  0.00    +0.000 OA
ATOM     22  C   UNL     1      -5.154  15.150  21.083  0.00  0.00    +0.000 C 
ENDBRANCH   4  21
BRANCH   5  23
ATOM     23  O   UNL     1      -7.302  12.635  18.844  0.00  0.00    +0.000 OA
ATOM     24  C   UNL     1      -7.791  13.478  17.811  0.00  0.00    +0.000 C 
ENDBRANCH   5  23
BRANCH   1  25
ATOM     25  C   UNL     1      -0.998  12.872  18.241  0.00  0.00    +0.000 C 
BRANCH  25  26
ATOM     26  O   UNL     1      -0.468  14.061  18.858  0.00  0.00    +0.000 OA
BRANCH  26  30
ATOM     27  C   UNL     1       3.583  14.905  18.811  0.00  0.00    +0.000 A 
ATOM     28  C   UNL     1       2.661  15.842  19.288  0.00  0.00    +0.000 A 
ATOM     29  C   UNL     1       1.305  15.521  19.300  0.00  0.00    +0.000 A 
ATOM     30  C   UNL     1       0.866  14.283  18.819  0.00  0.00    +0.000 A 
ATOM     31  C   UNL     1       1.782  13.324  18.416  0.00  0.00    +0.000 A 
ATOM     32  C   UNL     1       3.140  13.636  18.411  0.00  0.00    +0.000 A 
BRANCH  27  33
ATOM     33  C   UNL     1       5.012  15.302  18.708  0.00  0.00    +0.000 C 
ATOM     34  O   UNL     1       5.586  16.007  19.521  0.00  0.00    +0.000 OA
BRANCH  33  36
ATOM     35  C   UNL     1       6.856  14.271  17.701  0.00  0.00    +0.000 C 
ATOM     36  O   UNL     1       5.541  14.802  17.565  0.00  0.00    +0.000 OA
ENDBRANCH  33  36
ENDBRANCH  27  33
ENDBRANCH  26  30
ENDBRANCH  25  26
ENDBRANCH   1  25
TORSDOF 9
ENDMDL
MODEL 5
REMARK VINA RESULT:      -7.0      2.208      8.429
REMARK  Name = 
REMARK  13 active torsions:
REMARK  status: ('A' for Active; 'I' for Inactive)
REMARK    1  A    between atoms: C_1  and  O_2
REMARK    2  A    between atoms: O_2  and  C_3
REMARK    3  A    between atoms: C_3  and  C_5
REMARK    4  A    between atoms: C_8  and  O_9
REMARK    5  A    between atoms: O_9  and  C_10
REMARK    6  A    between atoms: C_10  and  C_11
REMARK    7  A    between atoms: C_14  and  O_15
REMARK    8  A    between atoms: O_15  and  C_16
REMARK    9  A    between atoms: C_17  and  O_18
REMARK   10  A    between atoms: O_18  and  C_19
REMARK   11  A    between atoms: C_25  and  C_27
REMARK   12  A    between atoms: C_30  and  O_31
REMARK   13  A    between atoms: O_31  and  C_32
REMARK                            x       y       z     vdW  Elec       q    Type
REMARK                         _______ _______ _______ _____ _____    ______ ____
ROOT
ATOM      1  C   UNL     1      -0.262  11.998  18.534  0.00  0.00    +0.000 C 
ATOM      2  C   UNL     1      -1.767  11.919  18.342  0.00  0.00    +0.000 A 
ATOM      3  C   UNL     1      -2.259  11.364  17.164  0.00  0.00    +0.000 A 
ATOM      4  C   UNL     1      -3.628  11.136  16.970  0.00  0.00    +0.000 A 
ATOM      5  C   UNL     1      -4.539  11.459  17.987  0.00  0.00    +0.000 A 
ATOM      6  C   UNL     1      -4.055  12.043  19.172  0.00  0.00    +0.000 A 
ATOM      7  C   UNL     1      -2.670  12.324  19.327  0.00  0.00    +0.000 A 
ATOM      8  C   UNL     1      -2.117  13.042  20.532  0.00  0.00    +0.000 C 
ATOM      9  C   UNL     1      -0.634  13.522  20.439  0.00  0.00    +0.000 C 
ATOM     10  N   UNL     1       0.125  13.238  19.212  0.00  0.00    +0.000 N 
ATOM     11  C   UNL     1       1.439  13.722  18.894  0.00  0.00    +0.000 C 
ATOM     12  O   UNL     1       1.987  13.488  17.830  0.00  0.00    +0.000 OA
ENDROOT
BRANCH  11  13
ATOM     13  C   UNL     1       2.218  14.498  19.931  0.00  0.00    +0.000 A 
ATOM     14  C   UNL     1       2.110  15.881  20.026  0.00  0.00    +0.000 A 
ATOM     15  C   UNL     1       2.927  16.624  20.878  0.00  0.00    +0.000 A 
ATOM     16  C   UNL     1       3.785  15.988  21.764  0.00  0.00    +0.000 A 
ATOM     17  C   UNL     1       3.776  14.596  21.823  0.00  0.00    +0.000 A 
ATOM     18  C   UNL     1       2.991  13.842  20.909  0.00  0.00    +0.000 A 
BRANCH  16  19
ATOM     19  O   UNL     1       4.610  16.846  22.435  0.00  0.00    +0.000 OA
ATOM     20  C   UNL     1       5.485  17.681  21.697  0.00  0.00    +0.000 C 
ENDBRANCH  16  19
ENDBRANCH  11  13
BRANCH   4  21
ATOM     21  O   UNL     1      -4.094  10.602  15.788  0.00  0.00    +0.000 OA
ATOM     22  C   UNL     1      -3.087  10.384  14.796  0.00  0.00    +0.000 C 
ENDBRANCH   4  21
BRANCH   5  23
ATOM     23  O   UNL     1      -5.861  11.162  17.725  0.00  0.00    +0.000 OA
ATOM     24  C   UNL     1      -6.840  12.192  17.737  0.00  0.00    +0.000 C 
ENDBRANCH   5  23
BRANCH   1  25
ATOM     25  C   UNL     1       0.255  10.760  19.336  0.00  0.00    +0.000 C 
BRANCH  25  26
ATOM     26  O   UNL     1       1.335  10.160  18.595  0.00  0.00    +0.000 OA
BRANCH  26  30
ATOM     27  C   UNL     1       2.412   6.310  19.663  0.00  0.00    +0.000 A 
ATOM     28  C   UNL     1       1.790   7.162  20.582  0.00  0.00    +0.000 A 
ATOM     29  C   UNL     1       1.430   8.449  20.186  0.00  0.00    +0.000 A 
ATOM     30  C   UNL     1       1.709   8.894  18.889  0.00  0.00    +0.000 A 
ATOM     31  C   UNL     1       2.255   8.029  17.954  0.00  0.00    +0.000 A 
ATOM     32  C   UNL     1       2.608   6.738  18.342  0.00  0.00    +0.000 A 
BRANCH  27  33
ATOM     33  C   UNL     1       2.882   4.979  20.132  0.00  0.00    +0.000 C 
ATOM     34  O   UNL     1       3.791   4.354  19.613  0.00  0.00    +0.000 OA
BRANCH  33  36
ATOM     35  C   UNL     1       1.345   3.401  20.923  0.00  0.00    +0.000 C 
ATOM     36  O   UNL     1       2.119   4.571  21.175  0.00  0.00    +0.000 OA
ENDBRANCH  33  36
ENDBRANCH  27  33
ENDBRANCH  26  30
ENDBRANCH  25  26
ENDBRANCH   1  25
TORSDOF 9
ENDMDL
MODEL 6
REMARK VINA RESULT:      -7.0      1.053      1.401
REMARK  Name = 
REMARK  13 active torsions:
REMARK  status: ('A' for Active; 'I' for Inactive)
REMARK    1  A    between atoms: C_1  and  O_2
REMARK    2  A    between atoms: O_2  and  C_3
REMARK    3  A    between atoms: C_3  and  C_5
REMARK    4  A    between atoms: C_8  and  O_9
REMARK    5  A    between atoms: O_9  and  C_10
REMARK    6  A    between atoms: C_10  and  C_11
REMARK    7  A    between atoms: C_14  and  O_15
REMARK    8  A    between atoms: O_15  and  C_16
REMARK    9  A    between atoms: C_17  and  O_18
REMARK   10  A    between atoms: O_18  and  C_19
REMARK   11  A    between atoms: C_25  and  C_27
REMARK   12  A    between atoms: C_30  and  O_31
REMARK   13  A    between atoms: O_31  and  C_32
REMARK                            x       y       z     vdW  Elec       q    Type
REMARK                         _______ _______ _______ _____ _____    ______ ____
ROOT
ATOM      1  C   UNL     1       0.650  10.194  18.912  0.00  0.00    +0.000 C 
ATOM      2  C   UNL     1       0.395  11.086  20.115  0.00  0.00    +0.000 A 
ATOM      3  C   UNL     1       0.394  12.466  19.932  0.00  0.00    +0.000 A 
ATOM      4  C   UNL     1       0.037  13.347  20.962  0.00  0.00    +0.000 A 
ATOM      5  C   UNL     1      -0.343  12.839  22.214  0.00  0.00    +0.000 A 
ATOM      6  C   UNL     1      -0.320  11.447  22.417  0.00  0.00    +0.000 A 
ATOM      7  C   UNL     1       0.103  10.571  21.380  0.00  0.00    +0.000 A 
ATOM      8  C   UNL     1       0.243   9.083  21.581  0.00  0.00    +0.000 C 
ATOM      9  C   UNL     1       0.975   8.292  20.451  0.00  0.00    +0.000 C 
ATOM     10  N   UNL     1       1.460   9.028  19.274  0.00  0.00    +0.000 N 
ATOM     11  C   UNL     1       2.271   8.497  18.214  0.00  0.00    +0.000 C 
ATOM     12  O   UNL     1       2.682   9.183  17.293  0.00  0.00    +0.000 OA
ENDROOT
BRANCH  11  13
ATOM     13  C   UNL     1       2.584   7.019  18.185  0.00  0.00    +0.000 A 
ATOM     14  C   UNL     1       1.608   6.082  17.867  0.00  0.00    +0.000 A 
ATOM     15  C   UNL     1       1.842   4.712  17.976  0.00  0.00    +0.000 A 
ATOM     16  C   UNL     1       3.110   4.235  18.276  0.00  0.00    +0.000 A 
ATOM     17  C   UNL     1       4.153   5.148  18.414  0.00  0.00    +0.000 A 
ATOM     18  C   UNL     1       3.899   6.545  18.367  0.00  0.00    +0.000 A 
BRANCH  16  19
ATOM     19  O   UNL     1       3.151   2.884  18.477  0.00  0.00    +0.000 OA
ATOM     20  C   UNL     1       1.970   2.208  18.871  0.00  0.00    +0.000 C 
ENDBRANCH  16  19
ENDBRANCH  11  13
BRANCH   4  21
ATOM     21  O   UNL     1       0.060  14.710  20.763  0.00  0.00    +0.000 OA
ATOM     22  C   UNL     1       0.400  15.112  19.433  0.00  0.00    +0.000 C 
ENDBRANCH   4  21
BRANCH   5  23
ATOM     23  O   UNL     1      -0.716  13.777  23.154  0.00  0.00    +0.000 OA
ATOM     24  C   UNL     1      -2.087  13.953  23.483  0.00  0.00    +0.000 C 
ENDBRANCH   5  23
BRANCH   1  25
ATOM     25  C   UNL     1      -0.701   9.736  18.272  0.00  0.00    +0.000 C 
BRANCH  25  26
ATOM     26  O   UNL     1      -1.403  10.906  17.812  0.00  0.00    +0.000 OA
BRANCH  26  30
ATOM     27  C   UNL     1      -5.289  11.588  19.062  0.00  0.00    +0.000 A 
ATOM     28  C   UNL     1      -4.222  12.306  19.613  0.00  0.00    +0.000 A 
ATOM     29  C   UNL     1      -2.927  12.059  19.161  0.00  0.00    +0.000 A 
ATOM     30  C   UNL     1      -2.691  11.087  18.182  0.00  0.00    +0.000 A 
ATOM     31  C   UNL     1      -3.752  10.429  17.581  0.00  0.00    +0.000 A 
ATOM     32  C   UNL     1      -5.050  10.678  18.022  0.00  0.00    +0.000 A 
BRANCH  27  33
ATOM     33  C   UNL     1      -6.649  11.790  19.629  0.00  0.00    +0.000 C 
ATOM     34  O   UNL     1      -7.603  12.194  18.986  0.00  0.00    +0.000 OA
BRANCH  33  36
ATOM     35  C   UNL     1      -7.682  12.110  21.703  0.00  0.00    +0.000 C 
ATOM     36  O   UNL     1      -6.636  11.501  20.952  0.00  0.00    +0.000 OA
ENDBRANCH  33  36
ENDBRANCH  27  33
ENDBRANCH  26  30
ENDBRANCH  25  26
ENDBRANCH   1  25
TORSDOF 9
ENDMDL
MODEL 7
REMARK VINA RESULT:      -7.0      1.180      1.627
REMARK  Name = 
REMARK  13 active torsions:
REMARK  status: ('A' for Active; 'I' for Inactive)
REMARK    1  A    between atoms: C_1  and  O_2
REMARK    2  A    between atoms: O_2  and  C_3
REMARK    3  A    between atoms: C_3  and  C_5
REMARK    4  A    between atoms: C_8  and  O_9
REMARK    5  A    between atoms: O_9  and  C_10
REMARK    6  A    between atoms: C_10  and  C_11
REMARK    7  A    between atoms: C_14  and  O_15
REMARK    8  A    between atoms: O_15  and  C_16
REMARK    9  A    between atoms: C_17  and  O_18
REMARK   10  A    between atoms: O_18  and  C_19
REMARK   11  A    between atoms: C_25  and  C_27
REMARK   12  A    between atoms: C_30  and  O_31
REMARK   13  A    between atoms: O_31  and  C_32
REMARK                            x       y       z     vdW  Elec       q    Type
REMARK                         _______ _______ _______ _____ _____    ______ ____
ROOT
ATOM      1  C   UNL     1       0.367  10.297  18.971  0.00  0.00    +0.000 C 
ATOM      2  C   UNL     1       0.072  11.112  20.219  0.00  0.00    +0.000 A 
ATOM      3  C   UNL     1      -0.133  12.482  20.086  0.00  0.00    +0.000 A 
ATOM      4  C   UNL     1      -0.538  13.276  21.167  0.00  0.00    +0.000 A 
ATOM      5  C   UNL     1      -0.759  12.687  22.421  0.00  0.00    +0.000 A 
ATOM      6  C   UNL     1      -0.530  11.307  22.572  0.00  0.00    +0.000 A 
ATOM      7  C   UNL     1      -0.060  10.528  21.480  0.00  0.00    +0.000 A 
ATOM      8  C   UNL     1       0.298   9.069  21.619  0.00  0.00    +0.000 C 
ATOM      9  C   UNL     1       1.054   8.419  20.417  0.00  0.00    +0.000 C 
ATOM     10  N   UNL     1       1.352   9.247  19.239  0.00  0.00    +0.000 N 
ATOM     11  C   UNL     1       2.157   8.864  18.112  0.00  0.00    +0.000 C 
ATOM     12  O   UNL     1       2.405   9.625  17.193  0.00  0.00    +0.000 OA
ENDROOT
BRANCH  11  13
ATOM     13  C   UNL     1       2.669   7.445  18.011  0.00  0.00    +0.000 A 
ATOM     14  C   UNL     1       1.810   6.360  18.133  0.00  0.00    +0.000 A 
ATOM     15  C   UNL     1       2.286   5.050  18.186  0.00  0.00    +0.000 A 
ATOM     16  C   UNL     1       3.631   4.779  17.979  0.00  0.00    +0.000 A 
ATOM     17  C   UNL     1       4.485   5.835  17.664  0.00  0.00    +0.000 A 
ATOM     18  C   UNL     1       4.011   7.174  17.676  0.00  0.00    +0.000 A 
BRANCH  16  19
ATOM     19  O   UNL     1       3.964   3.472  18.190  0.00  0.00    +0.000 OA
ATOM     20  C   UNL     1       3.229   2.717  19.139  0.00  0.00    +0.000 C 
ENDBRANCH  16  19
ENDBRANCH  11  13
BRANCH   4  21
ATOM     21  O   UNL     1      -0.718  14.634  21.016  0.00  0.00    +0.000 OA
ATOM     22  C   UNL     1      -0.382  15.138  19.720  0.00  0.00    +0.000 C 
ENDBRANCH   4  21
BRANCH   5  23
ATOM     23  O   UNL     1      -1.195  13.538  23.416  0.00  0.00    +0.000 OA
ATOM     24  C   UNL     1      -2.580  13.634  23.718  0.00  0.00    +0.000 C 
ENDBRANCH   5  23
BRANCH   1  25
ATOM     25  C   UNL     1      -0.948   9.671  18.401  0.00  0.00    +0.000 C 
BRANCH  25  26
ATOM     26  O   UNL     1      -1.477  10.562  17.401  0.00  0.00    +0.000 OA
BRANCH  26  30
ATOM     27  C   UNL     1      -5.328  12.046  17.702  0.00  0.00    +0.000 A 
ATOM     28  C   UNL     1      -4.828  11.592  16.477  0.00  0.00    +0.000 A 
ATOM     29  C   UNL     1      -3.531  11.087  16.414  0.00  0.00    +0.000 A 
ATOM     30  C   UNL     1      -2.726  11.057  17.558  0.00  0.00    +0.000 A 
ATOM     31  C   UNL     1      -3.243  11.436  18.786  0.00  0.00    +0.000 A 
ATOM     32  C   UNL     1      -4.542  11.931  18.858  0.00  0.00    +0.000 A 
BRANCH  27  33
ATOM     33  C   UNL     1      -6.675  12.676  17.731  0.00  0.00    +0.000 C 
ATOM     34  O   UNL     1      -7.274  13.053  16.738  0.00  0.00    +0.000 OA
BRANCH  33  36
ATOM     35  C   UNL     1      -7.513  14.109  19.380  0.00  0.00    +0.000 C 
ATOM     36  O   UNL     1      -7.090  12.798  19.015  0.00  0.00    +0.000 OA
ENDBRANCH  33  36
ENDBRANCH  27  33
ENDBRANCH  26  30
ENDBRANCH  25  26
ENDBRANCH   1  25
TORSDOF 9
ENDMDL
MODEL 8
REMARK VINA RESULT:      -6.9      1.263      1.625
REMARK  Name = 
REMARK  13 active torsions:
REMARK  status: ('A' for Active; 'I' for Inactive)
REMARK    1  A    between atoms: C_1  and  O_2
REMARK    2  A    between atoms: O_2  and  C_3
REMARK    3  A    between atoms: C_3  and  C_5
REMARK    4  A    between atoms: C_8  and  O_9
REMARK    5  A    between atoms: O_9  and  C_10
REMARK    6  A    between atoms: C_10  and  C_11
REMARK    7  A    between atoms: C_14  and  O_15
REMARK    8  A    between atoms: O_15  and  C_16
REMARK    9  A    between atoms: C_17  and  O_18
REMARK   10  A    between atoms: O_18  and  C_19
REMARK   11  A    between atoms: C_25  and  C_27
REMARK   12  A    between atoms: C_30  and  O_31
REMARK   13  A    between atoms: O_31  and  C_32
REMARK                            x       y       z     vdW  Elec       q    Type
REMARK                         _______ _______ _______ _____ _____    ______ ____
ROOT
ATOM      1  C   UNL     1       0.674  10.552  18.513  0.00  0.00    +0.000 C 
ATOM      2  C   UNL     1       0.597  11.796  19.380  0.00  0.00    +0.000 A 
ATOM      3  C   UNL     1       0.779  13.038  18.780  0.00  0.00    +0.000 A 
ATOM      4  C   UNL     1       0.593  14.235  19.485  0.00  0.00    +0.000 A 
ATOM      5  C   UNL     1       0.201  14.196  20.832  0.00  0.00    +0.000 A 
ATOM      6  C   UNL     1       0.039  12.946  21.456  0.00  0.00    +0.000 A 
ATOM      7  C   UNL     1       0.292  11.742  20.742  0.00  0.00    +0.000 A 
ATOM      8  C   UNL     1       0.232  10.384  21.394  0.00  0.00    +0.000 C 
ATOM      9  C   UNL     1       0.797   9.187  20.566  0.00  0.00    +0.000 C 
ATOM     10  N   UNL     1       1.328   9.448  19.220  0.00  0.00    +0.000 N 
ATOM     11  C   UNL     1       2.012   8.505  18.378  0.00  0.00    +0.000 C 
ATOM     12  O   UNL     1       2.473   8.808  17.291  0.00  0.00    +0.000 OA
ENDROOT
BRANCH  11  13
ATOM     13  C   UNL     1       2.115   7.060  18.809  0.00  0.00    +0.000 A 
ATOM     14  C   UNL     1       2.310   6.044  17.881  0.00  0.00    +0.000 A 
ATOM     15  C   UNL     1       2.263   4.699  18.245  0.00  0.00    +0.000 A 
ATOM     16  C   UNL     1       2.156   4.332  19.579  0.00  0.00    +0.000 A 
ATOM     17  C   UNL     1       2.151   5.332  20.549  0.00  0.00    +0.000 A 
ATOM     18  C   UNL     1       2.132   6.702  20.172  0.00  0.00    +0.000 A 
BRANCH  16  19
ATOM     19  O   UNL     1       1.992   2.989  19.764  0.00  0.00    +0.000 OA
ATOM     20  C   UNL     1       2.397   2.096  18.741  0.00  0.00    +0.000 C 
ENDBRANCH  16  19
ENDBRANCH  11  13
BRANCH   4  21
ATOM     21  O   UNL     1       0.796  15.453  18.873  0.00  0.00    +0.000 OA
ATOM     22  C   UNL     1       2.163  15.749  18.576  0.00  0.00    +0.000 C 
ENDBRANCH   4  21
BRANCH   5  23
ATOM     23  O   UNL     1       0.002  15.421  21.435  0.00  0.00    +0.000 OA
ATOM     24  C   UNL     1      -0.152  15.508  22.844  0.00  0.00    +0.000 C 
ENDBRANCH   5  23
BRANCH   1  25
ATOM     25  C   UNL     1      -0.754  10.120  18.045  0.00  0.00    +0.000 C 
BRANCH  25  26
ATOM     26  O   UNL     1      -1.520  11.311  17.775  0.00  0.00    +0.000 OA
BRANCH  26  30
ATOM     27  C   UNL     1      -5.342  11.685  19.318  0.00  0.00    +0.000 A 
ATOM     28  C   UNL     1      -4.269  12.385  19.880  0.00  0.00    +0.000 A 
ATOM     29  C   UNL     1      -2.997  12.245  19.328  0.00  0.00    +0.000 A 
ATOM     30  C   UNL     1      -2.788  11.394  18.237  0.00  0.00    +0.000 A 
ATOM     31  C   UNL     1      -3.859  10.758  17.631  0.00  0.00    +0.000 A 
ATOM     32  C   UNL     1      -5.135  10.902  18.172  0.00  0.00    +0.000 A 
BRANCH  27  33
ATOM     33  C   UNL     1      -6.670  11.765  19.981  0.00  0.00    +0.000 C 
ATOM     34  O   UNL     1      -6.866  11.487  21.152  0.00  0.00    +0.000 OA
BRANCH  33  36
ATOM     35  C   UNL     1      -7.686  13.549  18.859  0.00  0.00    +0.000 C 
ATOM     36  O   UNL     1      -7.606  12.144  19.078  0.00  0.00    +0.000 OA
ENDBRANCH  33  36
ENDBRANCH  27  33
ENDBRANCH  26  30
ENDBRANCH  25  26
ENDBRANCH   1  25
TORSDOF 9
ENDMDL
MODEL 9
REMARK VINA RESULT:      -6.9      2.233      8.495
REMARK  Name = 
REMARK  13 active torsions:
REMARK  status: ('A' for Active; 'I' for Inactive)
REMARK    1  A    between atoms: C_1  and  O_2
REMARK    2  A    between atoms: O_2  and  C_3
REMARK    3  A    between atoms: C_3  and  C_5
REMARK    4  A    between atoms: C_8  and  O_9
REMARK    5  A    between atoms: O_9  and  C_10
REMARK    6  A    between atoms: C_10  and  C_11
REMARK    7  A    between atoms: C_14  and  O_15
REMARK    8  A    between atoms: O_15  and  C_16
REMARK    9  A    between atoms: C_17  and  O_18
REMARK   10  A    between atoms: O_18  and  C_19
REMARK   11  A    between atoms: C_25  and  C_27
REMARK   12  A    between atoms: C_30  and  O_31
REMARK   13  A    between atoms: O_31  and  C_32
REMARK                            x       y       z     vdW  Elec       q    Type
REMARK                         _______ _______ _______ _____ _____    ______ ____
ROOT
ATOM      1  C   UNL     1      -0.274  12.043  18.671  0.00  0.00    +0.000 C 
ATOM      2  C   UNL     1      -1.777  11.967  18.464  0.00  0.00    +0.000 A 
ATOM      3  C   UNL     1      -2.258  11.378  17.298  0.00  0.00    +0.000 A 
ATOM      4  C   UNL     1      -3.626  11.152  17.096  0.00  0.00    +0.000 A 
ATOM      5  C   UNL     1      -4.548  11.514  18.091  0.00  0.00    +0.000 A 
ATOM      6  C   UNL     1      -4.074  12.133  19.262  0.00  0.00    +0.000 A 
ATOM      7  C   UNL     1      -2.689  12.410  19.424  0.00  0.00    +0.000 A 
ATOM      8  C   UNL     1      -2.146  13.163  20.612  0.00  0.00    +0.000 C 
ATOM      9  C   UNL     1      -0.658  13.631  20.522  0.00  0.00    +0.000 C 
ATOM     10  N   UNL     1       0.113  13.302  19.314  0.00  0.00    +0.000 N 
ATOM     11  C   UNL     1       1.435  13.767  18.996  0.00  0.00    +0.000 C 
ATOM     12  O   UNL     1       1.993  13.495  17.947  0.00  0.00    +0.000 OA
ENDROOT
BRANCH  11  13
ATOM     13  C   UNL     1       2.206  14.572  20.017  0.00  0.00    +0.000 A 
ATOM     14  C   UNL     1       3.072  13.957  20.913  0.00  0.00    +0.000 A 
ATOM     15  C   UNL     1       3.679  14.665  21.950  0.00  0.00    +0.000 A 
ATOM     16  C   UNL     1       3.543  16.043  22.038  0.00  0.00    +0.000 A 
ATOM     17  C   UNL     1       2.834  16.710  21.041  0.00  0.00    +0.000 A 
ATOM     18  C   UNL     1       2.163  15.981  20.023  0.00  0.00    +0.000 A 
BRANCH  16  19
ATOM     19  O   UNL     1       4.082  16.574  23.175  0.00  0.00    +0.000 OA
ATOM     20  C   UNL     1       3.222  17.143  24.147  0.00  0.00    +0.000 C 
ENDBRANCH  16  19
ENDBRANCH  11  13
BRANCH   4  21
ATOM     21  O   UNL     1      -4.082  10.583  15.926  0.00  0.00    +0.000 OA
ATOM     22  C   UNL     1      -3.070  10.358  14.941  0.00  0.00    +0.000 C 
ENDBRANCH   4  21
BRANCH   5  23
ATOM     23  O   UNL     1      -5.868  11.217  17.822  0.00  0.00    +0.000 OA
ATOM     24  C   UNL     1      -6.655  10.525  18.782  0.00  0.00    +0.000 C 
ENDBRANCH   5  23
BRANCH   1  25
ATOM     25  C   UNL     1       0.225  10.829  19.520  0.00  0.00    +0.000 C 
BRANCH  25  26
ATOM     26  O   UNL     1       1.194  10.101  18.740  0.00  0.00    +0.000 OA
BRANCH  26  30
ATOM     27  C   UNL     1       2.382   6.278  19.789  0.00  0.00    +0.000 A 
ATOM     28  C   UNL     1       2.683   6.802  18.528  0.00  0.00    +0.000 A 
ATOM     29  C   UNL     1       2.278   8.097  18.211  0.00  0.00    +0.000 A 
ATOM     30  C   UNL     1       1.556   8.859  19.137  0.00  0.00    +0.000 A 
ATOM     31  C   UNL     1       1.322   8.373  20.412  0.00  0.00    +0.000 A 
ATOM     32  C   UNL     1       1.733   7.082  20.738  0.00  0.00    +0.000 A 
BRANCH  27  33
ATOM     33  C   UNL     1       2.730   4.860  20.072  0.00  0.00    +0.000 C 
ATOM     34  O   UNL     1       3.373   4.151  19.317  0.00  0.00    +0.000 OA
BRANCH  33  36
ATOM     35  C   UNL     1       2.252   3.090  21.526  0.00  0.00    +0.000 C 
ATOM     36  O   UNL     1       2.187   4.488  21.256  0.00  0.00    +0.000 OA
ENDBRANCH  33  36
ENDBRANCH  27  33
ENDBRANCH  26  30
ENDBRANCH  25  26
ENDBRANCH   1  25
TORSDOF 9
ENDMDL
