MODEL 1
REMARK VINA RESULT:      -8.5      0.000      0.000
REMARK  Name = 
REMARK  0 active torsions:
REMARK  status: ('A' for Active; 'I' for Inactive)
REMARK                            x       y       z     vdW  Elec       q    Type
REMARK                         _______ _______ _______ _____ _____    ______ ____
ROOT
ATOM      1  O   UNL     1       0.637  11.840  21.781  0.00  0.00    +0.000 OA
ATOM      2  C   UNL     1       0.607  12.940  21.278  0.00  0.00    +0.000 C 
ATOM      3  N   UNL     1       1.682  13.761  21.031  0.00  0.00    +0.000 N 
ATOM      4  C   UNL     1       1.318  14.946  20.404  0.00  0.00    +0.000 A 
ATOM      5  C   UNL     1       2.148  15.959  19.990  0.00  0.00    +0.000 A 
ATOM      6  C   UNL     1       1.551  17.057  19.359  0.00  0.00    +0.000 A 
ATOM      7  C   UNL     1       0.162  17.106  19.174  0.00  0.00    +0.000 A 
ATOM      8 CL   UNL     1      -0.533  18.472  18.382  0.00  0.00    +0.000 Cl
ATOM      9  C   UNL     1      -0.671  16.063  19.599  0.00  0.00    +0.000 A 
ATOM     10  C   UNL     1      -0.074  14.969  20.214  0.00  0.00    +0.000 A 
ATOM     11  C   UNL     1      -0.657  13.665  20.714  0.00  0.00    +0.000 C 
ATOM     12  C   UNL     1      -1.664  13.786  21.847  0.00  0.00    +0.000 A 
ATOM     13  C   UNL     1      -2.846  13.190  21.789  0.00  0.00    +0.000 A 
ATOM     14  C   UNL     1      -3.832  13.390  22.856  0.00  0.00    +0.000 A 
ATOM     15  C   UNL     1      -5.077  12.789  22.832  0.00  0.00    +0.000 A 
ATOM     16  C   UNL     1      -6.201  13.582  22.927  0.00  0.00    +0.000 A 
ATOM     17  C   UNL     1      -6.068  14.842  23.503  0.00  0.00    +0.000 A 
ATOM     18  C   UNL     1      -4.819  15.283  23.948  0.00  0.00    +0.000 A 
ATOM     19  C   UNL     1      -3.706  14.591  23.540  0.00  0.00    +0.000 A 
ATOM     20  O   UNL     1      -2.425  15.127  23.750  0.00  0.00    +0.000 OA
ATOM     21  C   UNL     1      -1.328  14.640  22.994  0.00  0.00    +0.000 A 
ATOM     22  O   UNL     1      -0.201  14.973  23.274  0.00  0.00    +0.000 OA
ATOM     23  O   UNL     1      -3.333  12.549  20.655  0.00  0.00    +0.000 OA
ATOM     24  C   UNL     1      -2.476  12.368  19.599  0.00  0.00    +0.000 A 
ATOM     25  C   UNL     1      -1.197  12.801  19.606  0.00  0.00    +0.000 A 
ATOM     26  C   UNL     1      -0.299  12.247  18.566  0.00  0.00    +0.000 A 
ATOM     27  O   UNL     1       0.695  12.803  18.160  0.00  0.00    +0.000 OA
ATOM     28  O   UNL     1      -0.604  10.913  18.252  0.00  0.00    +0.000 OA
ATOM     29  C   UNL     1      -1.960  10.698  17.966  0.00  0.00    +0.000 A 
ATOM     30  C   UNL     1      -2.296   9.778  16.992  0.00  0.00    +0.000 A 
ATOM     31  C   UNL     1      -3.341  10.092  16.142  0.00  0.00    +0.000 A 
ATOM     32  C   UNL     1      -4.272  11.051  16.548  0.00  0.00    +0.000 A 
ATOM     33  C   UNL     1      -4.120  11.697  17.781  0.00  0.00    +0.000 A 
ATOM     34  C   UNL     1      -2.910  11.578  18.463  0.00  0.00    +0.000 A 
ATOM     35  H   UNL     1       2.635  13.505  21.278  0.00  0.00    +0.000 HD
ENDROOT
TORSDOF 0
ENDMDL
MODEL 2
REMARK VINA RESULT:      -8.4      3.023      4.799
REMARK  Name = 
REMARK  0 active torsions:
REMARK  status: ('A' for Active; 'I' for Inactive)
REMARK                            x       y       z     vdW  Elec       q    Type
REMARK                         _______ _______ _______ _____ _____    ______ ____
ROOT
ATOM      1  O   UNL     1      -4.172  11.622  24.243  0.00  0.00    +0.000 OA
ATOM      2  C   UNL     1      -3.941  12.791  24.033  0.00  0.00    +0.000 C 
ATOM      3  N   UNL     1      -3.715  13.767  24.976  0.00  0.00    +0.000 N 
ATOM      4  C   UNL     1      -3.438  15.005  24.409  0.00  0.00    +0.000 A 
ATOM      5  C   UNL     1      -3.134  16.173  25.066  0.00  0.00    +0.000 A 
ATOM      6  C   UNL     1      -2.872  17.299  24.277  0.00  0.00    +0.000 A 
ATOM      7  C   UNL     1      -2.931  17.222  22.878  0.00  0.00    +0.000 A 
ATOM      8 CL   UNL     1      -2.591  18.630  21.942  0.00  0.00    +0.000 Cl
ATOM      9  C   UNL     1      -3.239  16.023  22.223  0.00  0.00    +0.000 A 
ATOM     10  C   UNL     1      -3.486  14.902  23.009  0.00  0.00    +0.000 A 
ATOM     11  C   UNL     1      -3.768  13.463  22.633  0.00  0.00    +0.000 C 
ATOM     12  C   UNL     1      -5.047  13.227  21.846  0.00  0.00    +0.000 A 
ATOM     13  C   UNL     1      -5.050  12.521  20.724  0.00  0.00    +0.000 A 
ATOM     14  C   UNL     1      -6.279  12.377  19.940  0.00  0.00    +0.000 A 
ATOM     15  C   UNL     1      -6.323  11.651  18.763  0.00  0.00    +0.000 A 
ATOM     16  C   UNL     1      -6.775  12.269  17.616  0.00  0.00    +0.000 A 
ATOM     17  C   UNL     1      -7.591  13.389  17.752  0.00  0.00    +0.000 A 
ATOM     18  C   UNL     1      -7.915  13.872  19.022  0.00  0.00    +0.000 A 
ATOM     19  C   UNL     1      -7.186  13.416  20.093  0.00  0.00    +0.000 A 
ATOM     20  O   UNL     1      -7.301  14.044  21.344  0.00  0.00    +0.000 OA
ATOM     21  C   UNL     1      -6.287  13.857  22.319  0.00  0.00    +0.000 A 
ATOM     22  O   UNL     1      -6.448  14.256  23.447  0.00  0.00    +0.000 OA
ATOM     23  O   UNL     1      -3.894  12.076  20.090  0.00  0.00    +0.000 OA
ATOM     24  C   UNL     1      -2.700  12.221  20.749  0.00  0.00    +0.000 A 
ATOM     25  C   UNL     1      -2.597  12.791  21.969  0.00  0.00    +0.000 A 
ATOM     26  C   UNL     1      -1.327  12.575  22.701  0.00  0.00    +0.000 A 
ATOM     27  O   UNL     1      -0.901  13.316  23.556  0.00  0.00    +0.000 OA
ATOM     28  O   UNL     1      -0.774  11.309  22.451  0.00  0.00    +0.000 OA
ATOM     29  C   UNL     1      -0.671  11.000  21.087  0.00  0.00    +0.000 A 
ATOM     30  C   UNL     1       0.417  10.269  20.652  0.00  0.00    +0.000 A 
ATOM     31  C   UNL     1       0.994  10.627  19.446  0.00  0.00    +0.000 A 
ATOM     32  C   UNL     1       0.236  11.365  18.532  0.00  0.00    +0.000 A 
ATOM     33  C   UNL     1      -1.069  11.753  18.857  0.00  0.00    +0.000 A 
ATOM     34  C   UNL     1      -1.501  11.639  20.178  0.00  0.00    +0.000 A 
ATOM     35  H   UNL     1      -3.740  13.579  25.975  0.00  0.00    +0.000 HD
ENDROOT
TORSDOF 0
ENDMDL
MODEL 3
REMARK VINA RESULT:      -8.3      1.254      1.551
REMARK  Name = 
REMARK  0 active torsions:
REMARK  status: ('A' for Active; 'I' for Inactive)
REMARK                            x       y       z     vdW  Elec       q    Type
REMARK                         _______ _______ _______ _____ _____    ______ ____
ROOT
ATOM      1  O   UNL     1      -0.906  11.125  21.873  0.00  0.00    +0.000 OA
ATOM      2  C   UNL     1      -0.752  12.257  21.475  0.00  0.00    +0.000 C 
ATOM      3  N   UNL     1       0.367  13.041  21.639  0.00  0.00    +0.000 N 
ATOM      4  C   UNL     1       0.245  14.282  21.028  0.00  0.00    +0.000 A 
ATOM      5  C   UNL     1       1.188  15.281  20.973  0.00  0.00    +0.000 A 
ATOM      6  C   UNL     1       0.843  16.446  20.280  0.00  0.00    +0.000 A 
ATOM      7  C   UNL     1      -0.418  16.576  19.681  0.00  0.00    +0.000 A 
ATOM      8 CL   UNL     1      -0.798  18.025  18.826  0.00  0.00    +0.000 Cl
ATOM      9  C   UNL     1      -1.367  15.548  19.742  0.00  0.00    +0.000 A 
ATOM     10  C   UNL     1      -1.017  14.386  20.421  0.00  0.00    +0.000 A 
ATOM     11  C   UNL     1      -1.759  13.080  20.610  0.00  0.00    +0.000 C 
ATOM     12  C   UNL     1      -3.065  13.171  21.383  0.00  0.00    +0.000 A 
ATOM     13  C   UNL     1      -4.185  12.639  20.916  0.00  0.00    +0.000 A 
ATOM     14  C   UNL     1      -5.448  12.812  21.640  0.00  0.00    +0.000 A 
ATOM     15  C   UNL     1      -6.639  12.275  21.185  0.00  0.00    +0.000 A 
ATOM     16  C   UNL     1      -7.717  13.113  20.993  0.00  0.00    +0.000 A 
ATOM     17  C   UNL     1      -7.738  14.322  21.682  0.00  0.00    +0.000 A 
ATOM     18  C   UNL     1      -6.679  14.670  22.523  0.00  0.00    +0.000 A 
ATOM     19  C   UNL     1      -5.512  13.955  22.424  0.00  0.00    +0.000 A 
ATOM     20  O   UNL     1      -4.347  14.413  23.061  0.00  0.00    +0.000 OA
ATOM     21  C   UNL     1      -3.081  13.926  22.644  0.00  0.00    +0.000 A 
ATOM     22  O   UNL     1      -2.090  14.185  23.283  0.00  0.00    +0.000 OA
ATOM     23  O   UNL     1      -4.310  12.102  19.639  0.00  0.00    +0.000 OA
ATOM     24  C   UNL     1      -3.173  11.953  18.887  0.00  0.00    +0.000 A 
ATOM     25  C   UNL     1      -1.949  12.322  19.324  0.00  0.00    +0.000 A 
ATOM     26  C   UNL     1      -0.786  11.799  18.570  0.00  0.00    +0.000 A 
ATOM     27  O   UNL     1       0.298  12.332  18.536  0.00  0.00    +0.000 OA
ATOM     28  O   UNL     1      -1.011  10.505  18.070  0.00  0.00    +0.000 OA
ATOM     29  C   UNL     1      -2.215  10.377  17.364  0.00  0.00    +0.000 A 
ATOM     30  C   UNL     1      -2.254   9.544  16.263  0.00  0.00    +0.000 A 
ATOM     31  C   UNL     1      -2.976   9.966  15.160  0.00  0.00    +0.000 A 
ATOM     32  C   UNL     1      -3.963  10.939  15.336  0.00  0.00    +0.000 A 
ATOM     33  C   UNL     1      -4.186  11.489  16.603  0.00  0.00    +0.000 A 
ATOM     34  C   UNL     1      -3.251  11.265  17.614  0.00  0.00    +0.000 A 
ATOM     35  H   UNL     1       1.189  12.722  22.146  0.00  0.00    +0.000 HD
ENDROOT
TORSDOF 0
ENDMDL
MODEL 4
REMARK VINA RESULT:      -8.1      2.881      5.923
REMARK  Name = 
REMARK  0 active torsions:
REMARK  status: ('A' for Active; 'I' for Inactive)
REMARK                            x       y       z     vdW  Elec       q    Type
REMARK                         _______ _______ _______ _____ _____    ______ ____
ROOT
ATOM      1  O   UNL     1      -0.778  14.438  18.485  0.00  0.00    +0.000 OA
ATOM      2  C   UNL     1      -0.519  13.317  18.860  0.00  0.00    +0.000 C 
ATOM      3  N   UNL     1       0.562  12.554  18.485  0.00  0.00    +0.000 N 
ATOM      4  C   UNL     1       0.597  11.323  19.127  0.00  0.00    +0.000 A 
ATOM      5  C   UNL     1       1.555  10.346  19.005  0.00  0.00    +0.000 A 
ATOM      6  C   UNL     1       1.387   9.187  19.772  0.00  0.00    +0.000 A 
ATOM      7  C   UNL     1       0.277   9.043  20.617  0.00  0.00    +0.000 A 
ATOM      8 CL   UNL     1       0.113   7.604  21.553  0.00  0.00    +0.000 Cl
ATOM      9  C   UNL     1      -0.690  10.050  20.733  0.00  0.00    +0.000 A 
ATOM     10  C   UNL     1      -0.513  11.206  19.980  0.00  0.00    +0.000 A 
ATOM     11  C   UNL     1      -1.310  12.491  19.924  0.00  0.00    +0.000 C 
ATOM     12  C   UNL     1      -2.743  12.358  19.434  0.00  0.00    +0.000 A 
ATOM     13  C   UNL     1      -3.758  12.876  20.110  0.00  0.00    +0.000 A 
ATOM     14  C   UNL     1      -5.137  12.662  19.660  0.00  0.00    +0.000 A 
ATOM     15  C   UNL     1      -6.224  13.183  20.339  0.00  0.00    +0.000 A 
ATOM     16  C   UNL     1      -7.219  12.327  20.759  0.00  0.00    +0.000 A 
ATOM     17  C   UNL     1      -7.350  11.103  20.108  0.00  0.00    +0.000 A 
ATOM     18  C   UNL     1      -6.476  10.760  19.074  0.00  0.00    +0.000 A 
ATOM     19  C   UNL     1      -5.330  11.501  18.924  0.00  0.00    +0.000 A 
ATOM     20  O   UNL     1      -4.308  11.056  18.070  0.00  0.00    +0.000 OA
ATOM     21  C   UNL     1      -2.996  11.577  18.215  0.00  0.00    +0.000 A 
ATOM     22  O   UNL     1      -2.148  11.326  17.392  0.00  0.00    +0.000 OA
ATOM     23  O   UNL     1      -3.636  13.436  21.377  0.00  0.00    +0.000 OA
ATOM     24  C   UNL     1      -2.373  13.623  21.880  0.00  0.00    +0.000 A 
ATOM     25  C   UNL     1      -1.254  13.271  21.210  0.00  0.00    +0.000 A 
ATOM     26  C   UNL     1       0.024  13.834  21.705  0.00  0.00    +0.000 A 
ATOM     27  O   UNL     1       1.105  13.324  21.526  0.00  0.00    +0.000 OA
ATOM     28  O   UNL     1      -0.127  15.132  22.219  0.00  0.00    +0.000 OA
ATOM     29  C   UNL     1      -1.166  15.249  23.153  0.00  0.00    +0.000 A 
ATOM     30  C   UNL     1      -1.002  16.104  24.226  0.00  0.00    +0.000 A 
ATOM     31  C   UNL     1      -1.474  15.689  25.458  0.00  0.00    +0.000 A 
ATOM     32  C   UNL     1      -2.453  14.692  25.502  0.00  0.00    +0.000 A 
ATOM     33  C   UNL     1      -2.914  14.112  24.315  0.00  0.00    +0.000 A 
ATOM     34  C   UNL     1      -2.209  14.335  23.132  0.00  0.00    +0.000 A 
ATOM     35  H   UNL     1       1.256  12.879  17.817  0.00  0.00    +0.000 HD
ENDROOT
TORSDOF 0
ENDMDL
MODEL 5
REMARK VINA RESULT:      -8.1      2.579      5.106
REMARK  Name = 
REMARK  0 active torsions:
REMARK  status: ('A' for Active; 'I' for Inactive)
REMARK                            x       y       z     vdW  Elec       q    Type
REMARK                         _______ _______ _______ _____ _____    ______ ____
ROOT
ATOM      1  O   UNL     1      -3.160  11.274  23.751  0.00  0.00    +0.000 OA
ATOM      2  C   UNL     1      -3.365  12.466  23.703  0.00  0.00    +0.000 C 
ATOM      3  N   UNL     1      -3.502  13.320  24.773  0.00  0.00    +0.000 N 
ATOM      4  C   UNL     1      -3.689  14.640  24.383  0.00  0.00    +0.000 A 
ATOM      5  C   UNL     1      -3.823  15.738  25.198  0.00  0.00    +0.000 A 
ATOM      6  C   UNL     1      -3.985  16.980  24.573  0.00  0.00    +0.000 A 
ATOM      7  C   UNL     1      -4.016  17.079  23.175  0.00  0.00    +0.000 A 
ATOM      8 CL   UNL     1      -4.206  18.630  22.445  0.00  0.00    +0.000 Cl
ATOM      9  C   UNL     1      -3.874  15.950  22.358  0.00  0.00    +0.000 A 
ATOM     10  C   UNL     1      -3.701  14.719  22.981  0.00  0.00    +0.000 A 
ATOM     11  C   UNL     1      -3.448  13.340  22.411  0.00  0.00    +0.000 C 
ATOM     12  C   UNL     1      -4.559  12.774  21.541  0.00  0.00    +0.000 A 
ATOM     13  C   UNL     1      -4.311  12.273  20.339  0.00  0.00    +0.000 A 
ATOM     14  C   UNL     1      -5.409  11.810  19.486  0.00  0.00    +0.000 A 
ATOM     15  C   UNL     1      -5.192  11.284  18.225  0.00  0.00    +0.000 A 
ATOM     16  C   UNL     1      -5.839  11.851  17.147  0.00  0.00    +0.000 A 
ATOM     17  C   UNL     1      -7.002  12.577  17.388  0.00  0.00    +0.000 A 
ATOM     18  C   UNL     1      -7.474  12.735  18.693  0.00  0.00    +0.000 A 
ATOM     19  C   UNL     1      -6.628  12.427  19.729  0.00  0.00    +0.000 A 
ATOM     20  O   UNL     1      -6.958  12.795  21.043  0.00  0.00    +0.000 OA
ATOM     21  C   UNL     1      -5.942  12.851  22.032  0.00  0.00    +0.000 A 
ATOM     22  O   UNL     1      -6.232  13.008  23.194  0.00  0.00    +0.000 OA
ATOM     23  O   UNL     1      -3.075  12.360  19.707  0.00  0.00    +0.000 OA
ATOM     24  C   UNL     1      -2.010  12.829  20.435  0.00  0.00    +0.000 A 
ATOM     25  C   UNL     1      -2.116  13.226  21.721  0.00  0.00    +0.000 A 
ATOM     26  C   UNL     1      -0.851  13.379  22.478  0.00  0.00    +0.000 A 
ATOM     27  O   UNL     1      -0.717  14.098  23.440  0.00  0.00    +0.000 OA
ATOM     28  O   UNL     1       0.119  12.438  22.093  0.00  0.00    +0.000 OA
ATOM     29  C   UNL     1       0.322  12.376  20.707  0.00  0.00    +0.000 A 
ATOM     30  C   UNL     1       1.600  12.147  20.233  0.00  0.00    +0.000 A 
ATOM     31  C   UNL     1       2.006  12.848  19.112  0.00  0.00    +0.000 A 
ATOM     32  C   UNL     1       1.032  13.385  18.266  0.00  0.00    +0.000 A 
ATOM     33  C   UNL     1      -0.325  13.235  18.576  0.00  0.00    +0.000 A 
ATOM     34  C   UNL     1      -0.684  12.795  19.850  0.00  0.00    +0.000 A 
ATOM     35  H   UNL     1      -3.455  13.001  25.737  0.00  0.00    +0.000 HD
ENDROOT
TORSDOF 0
ENDMDL
MODEL 6
REMARK VINA RESULT:      -8.0      2.070      5.555
REMARK  Name = 
REMARK  0 active torsions:
REMARK  status: ('A' for Active; 'I' for Inactive)
REMARK                            x       y       z     vdW  Elec       q    Type
REMARK                         _______ _______ _______ _____ _____    ______ ____
ROOT
ATOM      1  O   UNL     1      -1.736  11.914  23.182  0.00  0.00    +0.000 OA
ATOM      2  C   UNL     1      -2.265  12.961  22.885  0.00  0.00    +0.000 C 
ATOM      3  N   UNL     1      -2.926  13.818  23.733  0.00  0.00    +0.000 N 
ATOM      4  C   UNL     1      -3.388  14.959  23.089  0.00  0.00    +0.000 A 
ATOM      5  C   UNL     1      -4.052  16.023  23.651  0.00  0.00    +0.000 A 
ATOM      6  C   UNL     1      -4.405  17.076  22.800  0.00  0.00    +0.000 A 
ATOM      7  C   UNL     1      -4.094  17.027  21.433  0.00  0.00    +0.000 A 
ATOM      8 CL   UNL     1      -4.538  18.351  20.421  0.00  0.00    +0.000 Cl
ATOM      9  C   UNL     1      -3.414  15.937  20.876  0.00  0.00    +0.000 A 
ATOM     10  C   UNL     1      -3.053  14.897  21.726  0.00  0.00    +0.000 A 
ATOM     11  C   UNL     1      -2.262  13.632  21.474  0.00  0.00    +0.000 C 
ATOM     12  C   UNL     1      -2.883  12.651  20.493  0.00  0.00    +0.000 A 
ATOM     13  C   UNL     1      -2.191  12.149  19.481  0.00  0.00    +0.000 A 
ATOM     14  C   UNL     1      -2.836  11.270  18.502  0.00  0.00    +0.000 A 
ATOM     15  C   UNL     1      -2.149  10.729  17.430  0.00  0.00    +0.000 A 
ATOM     16  C   UNL     1      -2.627  10.945  16.155  0.00  0.00    +0.000 A 
ATOM     17  C   UNL     1      -3.974  11.265  16.005  0.00  0.00    +0.000 A 
ATOM     18  C   UNL     1      -4.798  11.380  17.127  0.00  0.00    +0.000 A 
ATOM     19  C   UNL     1      -4.202  11.469  18.361  0.00  0.00    +0.000 A 
ATOM     20  O   UNL     1      -4.960  11.830  19.486  0.00  0.00    +0.000 OA
ATOM     21  C   UNL     1      -4.305  12.311  20.649  0.00  0.00    +0.000 A 
ATOM     22  O   UNL     1      -4.924  12.472  21.673  0.00  0.00    +0.000 OA
ATOM     23  O   UNL     1      -0.915  12.581  19.130  0.00  0.00    +0.000 OA
ATOM     24  C   UNL     1      -0.269  13.442  19.981  0.00  0.00    +0.000 A 
ATOM     25  C   UNL     1      -0.823  13.901  21.124  0.00  0.00    +0.000 A 
ATOM     26  C   UNL     1       0.093  14.534  22.101  0.00  0.00    +0.000 A 
ATOM     27  O   UNL     1      -0.251  15.345  22.929  0.00  0.00    +0.000 OA
ATOM     28  O   UNL     1       1.364  13.936  22.107  0.00  0.00    +0.000 OA
ATOM     29  C   UNL     1       1.934  13.814  20.832  0.00  0.00    +0.000 A 
ATOM     30  C   UNL     1       3.300  13.977  20.697  0.00  0.00    +0.000 A 
ATOM     31  C   UNL     1       3.759  14.664  19.587  0.00  0.00    +0.000 A 
ATOM     32  C   UNL     1       2.929  14.766  18.468  0.00  0.00    +0.000 A 
ATOM     33  C   UNL     1       1.646  14.206  18.495  0.00  0.00    +0.000 A 
ATOM     34  C   UNL     1       1.112  13.794  19.716  0.00  0.00    +0.000 A 
ATOM     35  H   UNL     1      -3.043  13.625  24.725  0.00  0.00    +0.000 HD
ENDROOT
TORSDOF 0
ENDMDL
MODEL 7
REMARK VINA RESULT:      -8.0      2.214      3.730
REMARK  Name = 
REMARK  0 active torsions:
REMARK  status: ('A' for Active; 'I' for Inactive)
REMARK                            x       y       z     vdW  Elec       q    Type
REMARK                         _______ _______ _______ _____ _____    ______ ____
ROOT
ATOM      1  O   UNL     1      -2.517  12.861  23.570  0.00  0.00    +0.000 OA
ATOM      2  C   UNL     1      -2.136  13.795  22.901  0.00  0.00    +0.000 C 
ATOM      3  N   UNL     1      -1.580  14.965  23.364  0.00  0.00    +0.000 N 
ATOM      4  C   UNL     1      -1.209  15.824  22.337  0.00  0.00    +0.000 A 
ATOM      5  C   UNL     1      -0.598  17.049  22.455  0.00  0.00    +0.000 A 
ATOM      6  C   UNL     1      -0.299  17.730  21.269  0.00  0.00    +0.000 A 
ATOM      7  C   UNL     1      -0.626  17.175  20.024  0.00  0.00    +0.000 A 
ATOM      8 CL   UNL     1      -0.232  18.043  18.586  0.00  0.00    +0.000 Cl
ATOM      9  C   UNL     1      -1.246  15.923  19.920  0.00  0.00    +0.000 A 
ATOM     10  C   UNL     1      -1.529  15.243  21.099  0.00  0.00    +0.000 A 
ATOM     11  C   UNL     1      -2.112  13.867  21.341  0.00  0.00    +0.000 C 
ATOM     12  C   UNL     1      -3.535  13.659  20.847  0.00  0.00    +0.000 A 
ATOM     13  C   UNL     1      -3.862  12.620  20.092  0.00  0.00    +0.000 A 
ATOM     14  C   UNL     1      -5.221  12.486  19.560  0.00  0.00    +0.000 A 
ATOM     15  C   UNL     1      -5.601  11.418  18.766  0.00  0.00    +0.000 A 
ATOM     16  C   UNL     1      -6.146  11.672  17.526  0.00  0.00    +0.000 A 
ATOM     17  C   UNL     1      -6.723  12.919  17.305  0.00  0.00    +0.000 A 
ATOM     18  C   UNL     1      -6.722  13.882  18.316  0.00  0.00    +0.000 A 
ATOM     19  C   UNL     1      -5.897  13.687  19.395  0.00  0.00    +0.000 A 
ATOM     20  O   UNL     1      -5.674  14.728  20.311  0.00  0.00    +0.000 OA
ATOM     21  C   UNL     1      -4.544  14.678  21.169  0.00  0.00    +0.000 A 
ATOM     22  O   UNL     1      -4.426  15.478  22.066  0.00  0.00    +0.000 OA
ATOM     23  O   UNL     1      -2.933  11.731  19.559  0.00  0.00    +0.000 OA
ATOM     24  C   UNL     1      -1.631  11.829  19.980  0.00  0.00    +0.000 A 
ATOM     25  C   UNL     1      -1.212  12.758  20.867  0.00  0.00    +0.000 A 
ATOM     26  C   UNL     1       0.116  12.538  21.486  0.00  0.00    +0.000 A 
ATOM     27  O   UNL     1       0.809  13.419  21.938  0.00  0.00    +0.000 OA
ATOM     28  O   UNL     1       0.393  11.176  21.687  0.00  0.00    +0.000 OA
ATOM     29  C   UNL     1       0.191  10.387  20.546  0.00  0.00    +0.000 A 
ATOM     30  C   UNL     1       1.042   9.324  20.313  0.00  0.00    +0.000 A 
ATOM     31  C   UNL     1       1.440   9.090  19.009  0.00  0.00    +0.000 A 
ATOM     32  C   UNL     1       0.662   9.603  17.967  0.00  0.00    +0.000 A 
ATOM     33  C   UNL     1      -0.477  10.364  18.254  0.00  0.00    +0.000 A 
ATOM     34  C   UNL     1      -0.673  10.828  19.555  0.00  0.00    +0.000 A 
ATOM     35  H   UNL     1      -1.453  15.157  24.354  0.00  0.00    +0.000 HD
ENDROOT
TORSDOF 0
ENDMDL
MODEL 8
REMARK VINA RESULT:      -7.9      1.069      1.214
REMARK  Name = 
REMARK  0 active torsions:
REMARK  status: ('A' for Active; 'I' for Inactive)
REMARK                            x       y       z     vdW  Elec       q    Type
REMARK                         _______ _______ _______ _____ _____    ______ ____
ROOT
ATOM      1  O   UNL     1       1.480  12.968  21.527  0.00  0.00    +0.000 OA
ATOM      2  C   UNL     1       1.257  13.929  20.827  0.00  0.00    +0.000 C 
ATOM      3  N   UNL     1       2.189  14.739  20.222  0.00  0.00    +0.000 N 
ATOM      4  C   UNL     1       1.610  15.737  19.448  0.00  0.00    +0.000 A 
ATOM      5  C   UNL     1       2.255  16.683  18.689  0.00  0.00    +0.000 A 
ATOM      6  C   UNL     1       1.455  17.581  17.974  0.00  0.00    +0.000 A 
ATOM      7  C   UNL     1       0.056  17.509  18.048  0.00  0.00    +0.000 A 
ATOM      8 CL   UNL     1      -0.894  18.629  17.143  0.00  0.00    +0.000 Cl
ATOM      9  C   UNL     1      -0.587  16.536  18.824  0.00  0.00    +0.000 A 
ATOM     10  C   UNL     1       0.211  15.637  19.523  0.00  0.00    +0.000 A 
ATOM     11  C   UNL     1      -0.149  14.441  20.378  0.00  0.00    +0.000 C 
ATOM     12  C   UNL     1      -0.953  14.745  21.632  0.00  0.00    +0.000 A 
ATOM     13  C   UNL     1      -2.064  14.083  21.920  0.00  0.00    +0.000 A 
ATOM     14  C   UNL     1      -2.865  14.452  23.091  0.00  0.00    +0.000 A 
ATOM     15  C   UNL     1      -4.033  13.788  23.424  0.00  0.00    +0.000 A 
ATOM     16  C   UNL     1      -5.194  14.516  23.568  0.00  0.00    +0.000 A 
ATOM     17  C   UNL     1      -5.087  15.877  23.842  0.00  0.00    +0.000 A 
ATOM     18  C   UNL     1      -3.829  16.475  23.944  0.00  0.00    +0.000 A 
ATOM     19  C   UNL     1      -2.741  15.777  23.482  0.00  0.00    +0.000 A 
ATOM     20  O   UNL     1      -1.501  16.420  23.334  0.00  0.00    +0.000 OA
ATOM     21  C   UNL     1      -0.508  15.845  22.499  0.00  0.00    +0.000 A 
ATOM     22  O   UNL     1       0.612  16.296  22.488  0.00  0.00    +0.000 OA
ATOM     23  O   UNL     1      -2.674  13.185  21.051  0.00  0.00    +0.000 OA
ATOM     24  C   UNL     1      -1.999  12.830  19.911  0.00  0.00    +0.000 A 
ATOM     25  C   UNL     1      -0.785  13.328  19.589  0.00  0.00    +0.000 A 
ATOM     26  C   UNL     1      -0.031  12.615  18.532  0.00  0.00    +0.000 A 
ATOM     27  O   UNL     1       0.820  13.127  17.843  0.00  0.00    +0.000 OA
ATOM     28  O   UNL     1      -0.255  11.229  18.558  0.00  0.00    +0.000 OA
ATOM     29  C   UNL     1      -1.613  10.879  18.582  0.00  0.00    +0.000 A 
ATOM     30  C   UNL     1      -2.021   9.752  17.895  0.00  0.00    +0.000 A 
ATOM     31  C   UNL     1      -3.222   9.814  17.212  0.00  0.00    +0.000 A 
ATOM     32  C   UNL     1      -4.158  10.782  17.584  0.00  0.00    +0.000 A 
ATOM     33  C   UNL     1      -3.859  11.687  18.610  0.00  0.00    +0.000 A 
ATOM     34  C   UNL     1      -2.543  11.789  19.062  0.00  0.00    +0.000 A 
ATOM     35  H   UNL     1       3.191  14.598  20.331  0.00  0.00    +0.000 HD
ENDROOT
TORSDOF 0
ENDMDL
MODEL 9
REMARK VINA RESULT:      -7.8      6.829      9.895
REMARK  Name = 
REMARK  0 active torsions:
REMARK  status: ('A' for Active; 'I' for Inactive)
REMARK                            x       y       z     vdW  Elec       q    Type
REMARK                         _______ _______ _______ _____ _____    ______ ____
ROOT
ATOM      1  O   UNL     1       7.763  17.502  20.695  0.00  0.00    +0.000 OA
ATOM      2  C   UNL     1       6.798  16.924  20.250  0.00  0.00    +0.000 C 
ATOM      3  N   UNL     1       5.751  17.486  19.558  0.00  0.00    +0.000 N 
ATOM      4  C   UNL     1       4.816  16.546  19.145  0.00  0.00    +0.000 A 
ATOM      5  C   UNL     1       3.678  16.769  18.407  0.00  0.00    +0.000 A 
ATOM      6  C   UNL     1       2.892  15.655  18.092  0.00  0.00    +0.000 A 
ATOM      7  C   UNL     1       3.261  14.373  18.528  0.00  0.00    +0.000 A 
ATOM      8 CL   UNL     1       2.270  13.025  18.109  0.00  0.00    +0.000 Cl
ATOM      9  C   UNL     1       4.425  14.161  19.276  0.00  0.00    +0.000 A 
ATOM     10  C   UNL     1       5.211  15.269  19.576  0.00  0.00    +0.000 A 
ATOM     11  C   UNL     1       6.543  15.383  20.287  0.00  0.00    +0.000 C 
ATOM     12  C   UNL     1       6.552  14.948  21.743  0.00  0.00    +0.000 A 
ATOM     13  C   UNL     1       7.457  14.099  22.207  0.00  0.00    +0.000 A 
ATOM     14  C   UNL     1       7.394  13.630  23.595  0.00  0.00    +0.000 A 
ATOM     15  C   UNL     1       8.318  12.742  24.116  0.00  0.00    +0.000 A 
ATOM     16  C   UNL     1       7.867  11.570  24.685  0.00  0.00    +0.000 A 
ATOM     17  C   UNL     1       6.552  11.525  25.141  0.00  0.00    +0.000 A 
ATOM     18  C   UNL     1       5.721  12.639  24.998  0.00  0.00    +0.000 A 
ATOM     19  C   UNL     1       6.123  13.641  24.150  0.00  0.00    +0.000 A 
ATOM     20  O   UNL     1       5.225  14.657  23.782  0.00  0.00    +0.000 OA
ATOM     21  C   UNL     1       5.486  15.439  22.627  0.00  0.00    +0.000 A 
ATOM     22  O   UNL     1       4.814  16.414  22.390  0.00  0.00    +0.000 OA
ATOM     23  O   UNL     1       8.361  13.417  21.399  0.00  0.00    +0.000 OA
ATOM     24  C   UNL     1       8.441  13.774  20.077  0.00  0.00    +0.000 A 
ATOM     25  C   UNL     1       7.669  14.737  19.527  0.00  0.00    +0.000 A 
ATOM     26  C   UNL     1       8.089  15.253  18.203  0.00  0.00    +0.000 A 
ATOM     27  O   UNL     1       7.340  15.763  17.403  0.00  0.00    +0.000 OA
ATOM     28  O   UNL     1       9.486  15.281  18.058  0.00  0.00    +0.000 OA
ATOM     29  C   UNL     1      10.110  14.070  18.389  0.00  0.00    +0.000 A 
ATOM     30  C   UNL     1      11.215  13.671  17.662  0.00  0.00    +0.000 A 
ATOM     31  C   UNL     1      11.329  12.328  17.348  0.00  0.00    +0.000 A 
ATOM     32  C   UNL     1      10.622  11.397  18.113  0.00  0.00    +0.000 A 
ATOM     33  C   UNL     1       9.794  11.831  19.155  0.00  0.00    +0.000 A 
ATOM     34  C   UNL     1       9.472  13.185  19.245  0.00  0.00    +0.000 A 
ATOM     35  H   UNL     1       5.692  18.484  19.368  0.00  0.00    +0.000 HD
ENDROOT
TORSDOF 0
ENDMDL
