MODEL 1
REMARK VINA RESULT:      -6.7      0.000      0.000
REMARK  Name = 
REMARK  17 active torsions:
REMARK  status: ('A' for Active; 'I' for Inactive)
REMARK    1  A    between atoms: C_1  and  N_2
REMARK    2  A    between atoms: N_2  and  C_3
REMARK    3  A    between atoms: C_3  and  C_4
REMARK    4  A    between atoms: C_5  and  C_6
REMARK    5  A    between atoms: C_6  and  N_7
REMARK    6  A    between atoms: C_12  and  C_14
REMARK    7  A    between atoms: C_14  and  C_15
REMARK    8  A    between atoms: C_15  and  C_16
REMARK    9  A    between atoms: C_16  and  N_17
REMARK   10  A    between atoms: C_18  and  C_20
REMARK   11  A    between atoms: C_20  and  C_21
REMARK   12  A    between atoms: C_21  and  N_22
REMARK   13  A    between atoms: C_23  and  O_25
REMARK   14  A    between atoms: O_25  and  C_26
REMARK   15  A    between atoms: C_26  and  C_27
REMARK   16  A    between atoms: C_26  and  C_28
REMARK   17  A    between atoms: C_26  and  C_29
REMARK                            x       y       z     vdW  Elec       q    Type
REMARK                         _______ _______ _______ _____ _____    ______ ____
ROOT
ATOM      1  C   UNL     1       8.602   9.464  18.267  0.00  0.00    +0.000 C 
ENDROOT
BRANCH   1   2
ATOM      2  N   UNL     1       8.482   8.107  18.765  0.00  0.00    +0.000 N 
ATOM      3  C   UNL     1       7.793   7.129  18.078  0.00  0.00    +0.000 C 
ATOM      4  O   UNL     1       7.183   7.344  17.037  0.00  0.00    +0.000 OA
ATOM      5  H   UNL     1       8.959   7.868  19.627  0.00  0.00    +0.000 HD
BRANCH   3   6
ATOM      6  C   UNL     1       7.816   5.775  18.757  0.00  0.00    +0.000 C 
BRANCH   6   7
ATOM      7  C   UNL     1       7.350   4.669  17.807  0.00  0.00    +0.000 C 
BRANCH   7   8
ATOM      8  N   UNL     1       6.156   3.980  18.271  0.00  0.00    +0.000 N 
ATOM      9  C   UNL     1       4.960   4.131  17.632  0.00  0.00    +0.000 C 
ATOM     10  O   UNL     1       4.833   4.751  16.584  0.00  0.00    +0.000 OA
ATOM     11  H   UNL     1       6.128   3.564  19.194  0.00  0.00    +0.000 HD
BRANCH   9  12
ATOM     12  O   UNL     1       3.959   3.500  18.301  0.00  0.00    +0.000 OA
BRANCH  12  13
ATOM     13  C   UNL     1       2.880   4.315  18.844  0.00  0.00    +0.000 C 
ATOM     14  C   UNL     1       1.721   4.419  17.840  0.00  0.00    +0.000 C 
ATOM     15  C   UNL     1       2.358   3.585  20.094  0.00  0.00    +0.000 C 
ATOM     16  C   UNL     1       3.384   5.695  19.293  0.00  0.00    +0.000 C 
ENDBRANCH  12  13
ENDBRANCH   9  12
ENDBRANCH   7   8
ENDBRANCH   6   7
ENDBRANCH   3   6
ENDBRANCH   1   2
BRANCH   1  17
ATOM     17  C   UNL     1       9.292  10.380  19.273  0.00  0.00    +0.000 C 
BRANCH  17  18
ATOM     18  C   UNL     1       9.239  11.835  18.814  0.00  0.00    +0.000 C 
BRANCH  18  21
ATOM     19  C   UNL     1      11.533  14.713  19.835  0.00  0.00    +0.000 C 
ATOM     20  N   UNL     1      10.535  13.957  19.099  0.00  0.00    +0.000 N 
ATOM     21  C   UNL     1      10.267  12.675  19.550  0.00  0.00    +0.000 C 
ATOM     22  O   UNL     1      10.804  12.211  20.559  0.00  0.00    +0.000 OA
BRANCH  20  23
ATOM     23  C   UNL     1       9.956  14.572  17.905  0.00  0.00    +0.000 C 
BRANCH  23  24
ATOM     24  C   UNL     1       8.718  15.309  18.207  0.00  0.00    +0.000 C 
ATOM     25  C   UNL     1       7.621  15.965  18.461  0.00  0.00    +0.000 C 
BRANCH  25  26
ATOM     26  C   UNL     1       6.341  16.730  18.759  0.00  0.00    +0.000 C 
BRANCH  26  27
ATOM     27  N   UNL     1       5.281  15.843  19.260  0.00  0.00    +0.000 NA
ATOM     28  C   UNL     1       4.880  14.886  18.214  0.00  0.00    +0.000 C 
ATOM     29  C   UNL     1       3.837  15.626  17.398  0.00  0.00    +0.000 C 
ATOM     30  C   UNL     1       3.057  16.376  18.459  0.00  0.00    +0.000 C 
ATOM     31  C   UNL     1       4.040  16.564  19.610  0.00  0.00    +0.000 C 
ENDBRANCH  26  27
ENDBRANCH  25  26
ENDBRANCH  23  24
ENDBRANCH  20  23
ENDBRANCH  18  21
ENDBRANCH  17  18
ENDBRANCH   1  17
TORSDOF 13
ENDMDL
MODEL 2
REMARK VINA RESULT:      -6.5      3.131      3.860
REMARK  Name = 
REMARK  17 active torsions:
REMARK  status: ('A' for Active; 'I' for Inactive)
REMARK    1  A    between atoms: C_1  and  N_2
REMARK    2  A    between atoms: N_2  and  C_3
REMARK    3  A    between atoms: C_3  and  C_4
REMARK    4  A    between atoms: C_5  and  C_6
REMARK    5  A    between atoms: C_6  and  N_7
REMARK    6  A    between atoms: C_12  and  C_14
REMARK    7  A    between atoms: C_14  and  C_15
REMARK    8  A    between atoms: C_15  and  C_16
REMARK    9  A    between atoms: C_16  and  N_17
REMARK   10  A    between atoms: C_18  and  C_20
REMARK   11  A    between atoms: C_20  and  C_21
REMARK   12  A    between atoms: C_21  and  N_22
REMARK   13  A    between atoms: C_23  and  O_25
REMARK   14  A    between atoms: O_25  and  C_26
REMARK   15  A    between atoms: C_26  and  C_27
REMARK   16  A    between atoms: C_26  and  C_28
REMARK   17  A    between atoms: C_26  and  C_29
REMARK                            x       y       z     vdW  Elec       q    Type
REMARK                         _______ _______ _______ _____ _____    ______ ____
ROOT
ATOM      1  C   UNL     1       8.604   9.627  18.245  0.00  0.00    +0.000 C 
ENDROOT
BRANCH   1   2
ATOM      2  N   UNL     1       8.482   8.280  18.769  0.00  0.00    +0.000 N 
ATOM      3  C   UNL     1       7.854   7.271  18.067  0.00  0.00    +0.000 C 
ATOM      4  O   UNL     1       7.302   7.448  16.988  0.00  0.00    +0.000 OA
ATOM      5  H   UNL     1       8.913   8.071  19.662  0.00  0.00    +0.000 HD
BRANCH   3   6
ATOM      6  C   UNL     1       7.864   5.934  18.780  0.00  0.00    +0.000 C 
BRANCH   6   7
ATOM      7  C   UNL     1       7.297   4.826  17.890  0.00  0.00    +0.000 C 
BRANCH   7   8
ATOM      8  N   UNL     1       6.164   4.136  18.487  0.00  0.00    +0.000 N 
ATOM      9  C   UNL     1       4.953   4.751  18.624  0.00  0.00    +0.000 C 
ATOM     10  O   UNL     1       4.708   5.858  18.164  0.00  0.00    +0.000 OA
ATOM     11  H   UNL     1       6.302   3.282  19.015  0.00  0.00    +0.000 HD
BRANCH   9  12
ATOM     12  O   UNL     1       4.079   3.972  19.314  0.00  0.00    +0.000 OA
BRANCH  12  13
ATOM     13  C   UNL     1       3.027   3.296  18.564  0.00  0.00    +0.000 C 
ATOM     14  C   UNL     1       2.936   1.818  18.974  0.00  0.00    +0.000 C 
ATOM     15  C   UNL     1       1.701   3.975  18.949  0.00  0.00    +0.000 C 
ATOM     16  C   UNL     1       3.211   3.468  17.049  0.00  0.00    +0.000 C 
ENDBRANCH  12  13
ENDBRANCH   9  12
ENDBRANCH   7   8
ENDBRANCH   6   7
ENDBRANCH   3   6
ENDBRANCH   1   2
BRANCH   1  17
ATOM     17  C   UNL     1       9.605  10.459  19.042  0.00  0.00    +0.000 C 
BRANCH  17  18
ATOM     18  C   UNL     1      10.125  11.629  18.213  0.00  0.00    +0.000 C 
BRANCH  18  21
ATOM     19  C   UNL     1       8.256  14.835  19.117  0.00  0.00    +0.000 C 
ATOM     20  N   UNL     1       9.240  13.767  19.166  0.00  0.00    +0.000 N 
ATOM     21  C   UNL     1       9.130  12.775  18.205  0.00  0.00    +0.000 C 
ATOM     22  O   UNL     1       8.277  12.818  17.316  0.00  0.00    +0.000 OA
BRANCH  20  23
ATOM     23  C   UNL     1      10.210  13.782  20.260  0.00  0.00    +0.000 C 
BRANCH  23  24
ATOM     24  C   UNL     1       9.557  13.813  21.579  0.00  0.00    +0.000 C 
ATOM     25  C   UNL     1       8.968  13.834  22.741  0.00  0.00    +0.000 C 
BRANCH  25  26
ATOM     26  C   UNL     1       8.282  13.860  24.098  0.00  0.00    +0.000 C 
BRANCH  26  27
ATOM     27  N   UNL     1       6.836  13.624  23.981  0.00  0.00    +0.000 NA
ATOM     28  C   UNL     1       6.214  13.604  25.316  0.00  0.00    +0.000 C 
ATOM     29  C   UNL     1       6.381  12.174  25.796  0.00  0.00    +0.000 C 
ATOM     30  C   UNL     1       6.135  11.370  24.534  0.00  0.00    +0.000 C 
ATOM     31  C   UNL     1       6.511  12.309  23.392  0.00  0.00    +0.000 C 
ENDBRANCH  26  27
ENDBRANCH  25  26
ENDBRANCH  23  24
ENDBRANCH  20  23
ENDBRANCH  18  21
ENDBRANCH  17  18
ENDBRANCH   1  17
TORSDOF 13
ENDMDL
MODEL 3
REMARK VINA RESULT:      -6.4      5.952      8.027
REMARK  Name = 
REMARK  17 active torsions:
REMARK  status: ('A' for Active; 'I' for Inactive)
REMARK    1  A    between atoms: C_1  and  N_2
REMARK    2  A    between atoms: N_2  and  C_3
REMARK    3  A    between atoms: C_3  and  C_4
REMARK    4  A    between atoms: C_5  and  C_6
REMARK    5  A    between atoms: C_6  and  N_7
REMARK    6  A    between atoms: C_12  and  C_14
REMARK    7  A    between atoms: C_14  and  C_15
REMARK    8  A    between atoms: C_15  and  C_16
REMARK    9  A    between atoms: C_16  and  N_17
REMARK   10  A    between atoms: C_18  and  C_20
REMARK   11  A    between atoms: C_20  and  C_21
REMARK   12  A    between atoms: C_21  and  N_22
REMARK   13  A    between atoms: C_23  and  O_25
REMARK   14  A    between atoms: O_25  and  C_26
REMARK   15  A    between atoms: C_26  and  C_27
REMARK   16  A    between atoms: C_26  and  C_28
REMARK   17  A    between atoms: C_26  and  C_29
REMARK                            x       y       z     vdW  Elec       q    Type
REMARK                         _______ _______ _______ _____ _____    ______ ____
ROOT
ATOM      1  C   UNL     1       2.199   3.014  21.321  0.00  0.00    +0.000 C 
ENDROOT
BRANCH   1   2
ATOM      2  N   UNL     1       2.673   2.538  20.036  0.00  0.00    +0.000 N 
ATOM      3  C   UNL     1       1.814   2.232  19.000  0.00  0.00    +0.000 C 
ATOM      4  O   UNL     1       0.594   2.279  19.106  0.00  0.00    +0.000 OA
ATOM      5  H   UNL     1       3.674   2.470  19.888  0.00  0.00    +0.000 HD
BRANCH   3   6
ATOM      6  C   UNL     1       2.517   1.781  17.736  0.00  0.00    +0.000 C 
BRANCH   6   7
ATOM      7  C   UNL     1       4.029   1.993  17.835  0.00  0.00    +0.000 C 
BRANCH   7   8
ATOM      8  N   UNL     1       4.439   3.352  17.521  0.00  0.00    +0.000 N 
ATOM      9  C   UNL     1       5.133   4.107  18.422  0.00  0.00    +0.000 C 
ATOM     10  O   UNL     1       5.546   3.669  19.487  0.00  0.00    +0.000 OA
ATOM     11  H   UNL     1       4.032   3.844  16.735  0.00  0.00    +0.000 HD
BRANCH   9  12
ATOM     12  O   UNL     1       5.305   5.379  17.973  0.00  0.00    +0.000 OA
BRANCH  12  13
ATOM     13  C   UNL     1       6.372   5.626  17.012  0.00  0.00    +0.000 C 
ATOM     14  C   UNL     1       5.799   5.768  15.592  0.00  0.00    +0.000 C 
ATOM     15  C   UNL     1       7.016   6.969  17.398  0.00  0.00    +0.000 C 
ATOM     16  C   UNL     1       7.465   4.550  17.091  0.00  0.00    +0.000 C 
ENDBRANCH  12  13
ENDBRANCH   9  12
ENDBRANCH   7   8
ENDBRANCH   6   7
ENDBRANCH   3   6
ENDBRANCH   1   2
BRANCH   1  17
ATOM     17  C   UNL     1       2.361   4.524  21.463  0.00  0.00    +0.000 C 
BRANCH  17  18
ATOM     18  C   UNL     1       1.264   5.266  20.705  0.00  0.00    +0.000 C 
BRANCH  18  21
ATOM     19  C   UNL     1       2.642   7.934  18.344  0.00  0.00    +0.000 C 
ATOM     20  N   UNL     1       2.115   7.316  19.549  0.00  0.00    +0.000 N 
ATOM     21  C   UNL     1       1.825   5.963  19.479  0.00  0.00    +0.000 C 
ATOM     22  O   UNL     1       2.053   5.297  18.466  0.00  0.00    +0.000 OA
BRANCH  20  23
ATOM     23  C   UNL     1       1.861   8.177  20.703  0.00  0.00    +0.000 C 
BRANCH  23  24
ATOM     24  C   UNL     1       0.825   9.185  20.425  0.00  0.00    +0.000 C 
ATOM     25  C   UNL     1      -0.097  10.076  20.192  0.00  0.00    +0.000 C 
BRANCH  25  26
ATOM     26  C   UNL     1      -1.173  11.116  19.918  0.00  0.00    +0.000 C 
BRANCH  26  27
ATOM     27  N   UNL     1      -0.975  12.328  20.724  0.00  0.00    +0.000 NA
ATOM     28  C   UNL     1      -0.632  11.967  22.111  0.00  0.00    +0.000 C 
ATOM     29  C   UNL     1      -1.969  11.762  22.796  0.00  0.00    +0.000 C 
ATOM     30  C   UNL     1      -2.819  12.868  22.202  0.00  0.00    +0.000 C 
ATOM     31  C   UNL     1      -2.195  13.152  20.839  0.00  0.00    +0.000 C 
ENDBRANCH  26  27
ENDBRANCH  25  26
ENDBRANCH  23  24
ENDBRANCH  20  23
ENDBRANCH  18  21
ENDBRANCH  17  18
ENDBRANCH   1  17
TORSDOF 13
ENDMDL
MODEL 4
REMARK VINA RESULT:      -6.3      4.023      6.367
REMARK  Name = 
REMARK  17 active torsions:
REMARK  status: ('A' for Active; 'I' for Inactive)
REMARK    1  A    between atoms: C_1  and  N_2
REMARK    2  A    between atoms: N_2  and  C_3
REMARK    3  A    between atoms: C_3  and  C_4
REMARK    4  A    between atoms: C_5  and  C_6
REMARK    5  A    between atoms: C_6  and  N_7
REMARK    6  A    between atoms: C_12  and  C_14
REMARK    7  A    between atoms: C_14  and  C_15
REMARK    8  A    between atoms: C_15  and  C_16
REMARK    9  A    between atoms: C_16  and  N_17
REMARK   10  A    between atoms: C_18  and  C_20
REMARK   11  A    between atoms: C_20  and  C_21
REMARK   12  A    between atoms: C_21  and  N_22
REMARK   13  A    between atoms: C_23  and  O_25
REMARK   14  A    between atoms: O_25  and  C_26
REMARK   15  A    between atoms: C_26  and  C_27
REMARK   16  A    between atoms: C_26  and  C_28
REMARK   17  A    between atoms: C_26  and  C_29
REMARK                            x       y       z     vdW  Elec       q    Type
REMARK                         _______ _______ _______ _____ _____    ______ ____
ROOT
ATOM      1  C   UNL     1       4.908   4.072  16.489  0.00  0.00    +0.000 C 
ENDROOT
BRANCH   1   2
ATOM      2  N   UNL     1       4.216   5.329  16.706  0.00  0.00    +0.000 N 
ATOM      3  C   UNL     1       4.209   5.963  17.932  0.00  0.00    +0.000 C 
ATOM      4  O   UNL     1       4.728   5.488  18.936  0.00  0.00    +0.000 OA
ATOM      5  H   UNL     1       3.761   5.769  15.916  0.00  0.00    +0.000 HD
BRANCH   3   6
ATOM      6  C   UNL     1       3.455   7.277  17.935  0.00  0.00    +0.000 C 
BRANCH   6   7
ATOM      7  C   UNL     1       2.328   7.268  18.970  0.00  0.00    +0.000 C 
BRANCH   7   8
ATOM      8  N   UNL     1       1.596   6.012  19.009  0.00  0.00    +0.000 N 
ATOM      9  C   UNL     1       1.634   5.205  20.110  0.00  0.00    +0.000 C 
ATOM     10  O   UNL     1       2.181   5.525  21.157  0.00  0.00    +0.000 OA
ATOM     11  H   UNL     1       1.234   5.600  18.157  0.00  0.00    +0.000 HD
BRANCH   9  12
ATOM     12  O   UNL     1       0.983   4.033  19.886  0.00  0.00    +0.000 OA
BRANCH  12  13
ATOM     13  C   UNL     1       1.711   2.792  20.120  0.00  0.00    +0.000 C 
ATOM     14  C   UNL     1       1.637   2.393  21.602  0.00  0.00    +0.000 C 
ATOM     15  C   UNL     1       1.000   1.700  19.301  0.00  0.00    +0.000 C 
ATOM     16  C   UNL     1       3.158   2.880  19.613  0.00  0.00    +0.000 C 
ENDBRANCH  12  13
ENDBRANCH   9  12
ENDBRANCH   7   8
ENDBRANCH   6   7
ENDBRANCH   3   6
ENDBRANCH   1   2
BRANCH   1  17
ATOM     17  C   UNL     1       5.935   4.175  15.366  0.00  0.00    +0.000 C 
BRANCH  17  18
ATOM     18  C   UNL     1       6.859   5.371  15.578  0.00  0.00    +0.000 C 
BRANCH  18  21
ATOM     19  C   UNL     1       8.246   6.267  19.023  0.00  0.00    +0.000 C 
ATOM     20  N   UNL     1       7.558   6.399  17.750  0.00  0.00    +0.000 N 
ATOM     21  C   UNL     1       7.555   5.287  16.924  0.00  0.00    +0.000 C 
ATOM     22  O   UNL     1       8.062   4.217  17.268  0.00  0.00    +0.000 OA
BRANCH  20  23
ATOM     23  C   UNL     1       6.996   7.707  17.411  0.00  0.00    +0.000 C 
BRANCH  23  24
ATOM     24  C   UNL     1       7.914   8.808  17.742  0.00  0.00    +0.000 C 
ATOM     25  C   UNL     1       8.729   9.778  18.047  0.00  0.00    +0.000 C 
BRANCH  25  26
ATOM     26  C   UNL     1       9.679  10.911  18.402  0.00  0.00    +0.000 C 
BRANCH  26  27
ATOM     27  N   UNL     1      10.213  10.767  19.764  0.00  0.00    +0.000 NA
ATOM     28  C   UNL     1       9.122  10.848  20.751  0.00  0.00    +0.000 C 
ATOM     29  C   UNL     1       8.948  12.333  21.007  0.00  0.00    +0.000 C 
ATOM     30  C   UNL     1      10.376  12.840  21.009  0.00  0.00    +0.000 C 
ATOM     31  C   UNL     1      11.144  11.850  20.138  0.00  0.00    +0.000 C 
ENDBRANCH  26  27
ENDBRANCH  25  26
ENDBRANCH  23  24
ENDBRANCH  20  23
ENDBRANCH  18  21
ENDBRANCH  17  18
ENDBRANCH   1  17
TORSDOF 13
ENDMDL
MODEL 5
REMARK VINA RESULT:      -6.3      4.322      7.859
REMARK  Name = 
REMARK  17 active torsions:
REMARK  status: ('A' for Active; 'I' for Inactive)
REMARK    1  A    between atoms: C_1  and  N_2
REMARK    2  A    between atoms: N_2  and  C_3
REMARK    3  A    between atoms: C_3  and  C_4
REMARK    4  A    between atoms: C_5  and  C_6
REMARK    5  A    between atoms: C_6  and  N_7
REMARK    6  A    between atoms: C_12  and  C_14
REMARK    7  A    between atoms: C_14  and  C_15
REMARK    8  A    between atoms: C_15  and  C_16
REMARK    9  A    between atoms: C_16  and  N_17
REMARK   10  A    between atoms: C_18  and  C_20
REMARK   11  A    between atoms: C_20  and  C_21
REMARK   12  A    between atoms: C_21  and  N_22
REMARK   13  A    between atoms: C_23  and  O_25
REMARK   14  A    between atoms: O_25  and  C_26
REMARK   15  A    between atoms: C_26  and  C_27
REMARK   16  A    between atoms: C_26  and  C_28
REMARK   17  A    between atoms: C_26  and  C_29
REMARK                            x       y       z     vdW  Elec       q    Type
REMARK                         _______ _______ _______ _____ _____    ______ ____
ROOT
ATOM      1  C   UNL     1       2.762   5.529  18.560  0.00  0.00    +0.000 C 
ENDROOT
BRANCH   1   2
ATOM      2  N   UNL     1       2.547   6.868  18.045  0.00  0.00    +0.000 N 
ATOM      3  C   UNL     1       2.162   7.915  18.856  0.00  0.00    +0.000 C 
ATOM      4  O   UNL     1       1.913   7.784  20.049  0.00  0.00    +0.000 OA
ATOM      5  H   UNL     1       2.730   7.040  17.063  0.00  0.00    +0.000 HD
BRANCH   3   6
ATOM      6  C   UNL     1       2.023   9.235  18.125  0.00  0.00    +0.000 C 
BRANCH   6   7
ATOM      7  C   UNL     1       0.645   9.857  18.357  0.00  0.00    +0.000 C 
BRANCH   7   8
ATOM      8  N   UNL     1       0.496  10.446  19.678  0.00  0.00    +0.000 N 
ATOM      9  C   UNL     1       0.897  11.726  19.930  0.00  0.00    +0.000 C 
ATOM     10  O   UNL     1       1.294  12.488  19.058  0.00  0.00    +0.000 OA
ATOM     11  H   UNL     1       0.311   9.862  20.485  0.00  0.00    +0.000 HD
BRANCH   9  12
ATOM     12  O   UNL     1       0.781  12.030  21.250  0.00  0.00    +0.000 OA
BRANCH  12  13
ATOM     13  C   UNL     1      -0.555  12.049  21.832  0.00  0.00    +0.000 C 
ATOM     14  C   UNL     1      -0.752  10.851  22.774  0.00  0.00    +0.000 C 
ATOM     15  C   UNL     1      -0.654  13.333  22.675  0.00  0.00    +0.000 C 
ATOM     16  C   UNL     1      -1.643  12.122  20.751  0.00  0.00    +0.000 C 
ENDBRANCH  12  13
ENDBRANCH   9  12
ENDBRANCH   7   8
ENDBRANCH   6   7
ENDBRANCH   3   6
ENDBRANCH   1   2
BRANCH   1  17
ATOM     17  C   UNL     1       3.598   4.680  17.607  0.00  0.00    +0.000 C 
BRANCH  17  18
ATOM     18  C   UNL     1       4.822   5.451  17.119  0.00  0.00    +0.000 C 
BRANCH  18  21
ATOM     19  C   UNL     1       8.046   6.062  19.074  0.00  0.00    +0.000 C 
ATOM     20  N   UNL     1       6.948   6.278  18.147  0.00  0.00    +0.000 N 
ATOM     21  C   UNL     1       5.987   5.283  18.077  0.00  0.00    +0.000 C 
ATOM     22  O   UNL     1       6.025   4.285  18.801  0.00  0.00    +0.000 OA
BRANCH  20  23
ATOM     23  C   UNL     1       6.985   7.480  17.314  0.00  0.00    +0.000 C 
BRANCH  23  24
ATOM     24  C   UNL     1       7.885   8.507  17.862  0.00  0.00    +0.000 C 
ATOM     25  C   UNL     1       8.679   9.425  18.338  0.00  0.00    +0.000 C 
BRANCH  25  26
ATOM     26  C   UNL     1       9.605  10.495  18.894  0.00  0.00    +0.000 C 
BRANCH  26  27
ATOM     27  N   UNL     1       8.915  11.783  19.052  0.00  0.00    +0.000 NA
ATOM     28  C   UNL     1       8.828  12.477  17.756  0.00  0.00    +0.000 C 
ATOM     29  C   UNL     1      10.141  13.227  17.634  0.00  0.00    +0.000 C 
ATOM     30  C   UNL     1      10.375  13.717  19.049  0.00  0.00    +0.000 C 
ATOM     31  C   UNL     1       9.635  12.721  19.936  0.00  0.00    +0.000 C 
ENDBRANCH  26  27
ENDBRANCH  25  26
ENDBRANCH  23  24
ENDBRANCH  20  23
ENDBRANCH  18  21
ENDBRANCH  17  18
ENDBRANCH   1  17
TORSDOF 13
ENDMDL
MODEL 6
REMARK VINA RESULT:      -6.3      5.973     10.459
REMARK  Name = 
REMARK  17 active torsions:
REMARK  status: ('A' for Active; 'I' for Inactive)
REMARK    1  A    between atoms: C_1  and  N_2
REMARK    2  A    between atoms: N_2  and  C_3
REMARK    3  A    between atoms: C_3  and  C_4
REMARK    4  A    between atoms: C_5  and  C_6
REMARK    5  A    between atoms: C_6  and  N_7
REMARK    6  A    between atoms: C_12  and  C_14
REMARK    7  A    between atoms: C_14  and  C_15
REMARK    8  A    between atoms: C_15  and  C_16
REMARK    9  A    between atoms: C_16  and  N_17
REMARK   10  A    between atoms: C_18  and  C_20
REMARK   11  A    between atoms: C_20  and  C_21
REMARK   12  A    between atoms: C_21  and  N_22
REMARK   13  A    between atoms: C_23  and  O_25
REMARK   14  A    between atoms: O_25  and  C_26
REMARK   15  A    between atoms: C_26  and  C_27
REMARK   16  A    between atoms: C_26  and  C_28
REMARK   17  A    between atoms: C_26  and  C_29
REMARK                            x       y       z     vdW  Elec       q    Type
REMARK                         _______ _______ _______ _____ _____    ______ ____
ROOT
ATOM      1  C   UNL     1       2.218   7.364  17.804  0.00  0.00    +0.000 C 
ENDROOT
BRANCH   1   2
ATOM      2  N   UNL     1       1.796   8.739  17.988  0.00  0.00    +0.000 N 
ATOM      3  C   UNL     1       1.398   9.229  19.215  0.00  0.00    +0.000 C 
ATOM      4  O   UNL     1       1.312   8.532  20.220  0.00  0.00    +0.000 OA
ATOM      5  H   UNL     1       1.838   9.365  17.193  0.00  0.00    +0.000 HD
BRANCH   3   6
ATOM      6  C   UNL     1       1.027  10.698  19.195  0.00  0.00    +0.000 C 
BRANCH   6   7
ATOM      7  C   UNL     1      -0.375  10.909  18.619  0.00  0.00    +0.000 C 
BRANCH   7   8
ATOM      8  N   UNL     1      -1.369  11.230  19.632  0.00  0.00    +0.000 N 
ATOM      9  C   UNL     1      -1.410  12.464  20.214  0.00  0.00    +0.000 C 
ATOM     10  O   UNL     1      -0.707  13.399  19.856  0.00  0.00    +0.000 OA
ATOM     11  H   UNL     1      -1.895  10.495  20.088  0.00  0.00    +0.000 HD
BRANCH   9  12
ATOM     12  O   UNL     1      -2.331  12.507  21.213  0.00  0.00    +0.000 OA
BRANCH  12  13
ATOM     13  C   UNL     1      -1.861  12.339  22.583  0.00  0.00    +0.000 C 
ATOM     14  C   UNL     1      -0.821  11.211  22.664  0.00  0.00    +0.000 C 
ATOM     15  C   UNL     1      -1.164  13.653  22.978  0.00  0.00    +0.000 C 
ATOM     16  C   UNL     1      -3.027  12.125  23.559  0.00  0.00    +0.000 C 
ENDBRANCH  12  13
ENDBRANCH   9  12
ENDBRANCH   7   8
ENDBRANCH   6   7
ENDBRANCH   3   6
ENDBRANCH   1   2
BRANCH   1  17
ATOM     17  C   UNL     1       3.730   7.210  17.936  0.00  0.00    +0.000 C 
BRANCH  17  18
ATOM     18  C   UNL     1       4.391   7.098  16.565  0.00  0.00    +0.000 C 
BRANCH  18  21
ATOM     19  C   UNL     1       7.360   4.698  16.468  0.00  0.00    +0.000 C 
ATOM     20  N   UNL     1       6.003   5.200  16.329  0.00  0.00    +0.000 N 
ATOM     21  C   UNL     1       5.790   6.523  16.681  0.00  0.00    +0.000 C 
ATOM     22  O   UNL     1       6.710   7.260  17.041  0.00  0.00    +0.000 OA
BRANCH  20  23
ATOM     23  C   UNL     1       4.967   4.257  15.910  0.00  0.00    +0.000 C 
BRANCH  23  24
ATOM     24  C   UNL     1       4.381   3.534  17.050  0.00  0.00    +0.000 C 
ATOM     25  C   UNL     1       3.875   2.893  18.066  0.00  0.00    +0.000 C 
BRANCH  25  26
ATOM     26  C   UNL     1       3.283   2.145  19.250  0.00  0.00    +0.000 C 
BRANCH  26  27
ATOM     27  N   UNL     1       3.246   2.980  20.458  0.00  0.00    +0.000 NA
ATOM     28  C   UNL     1       2.092   2.613  21.297  0.00  0.00    +0.000 C 
ATOM     29  C   UNL     1       0.938   3.422  20.736  0.00  0.00    +0.000 C 
ATOM     30  C   UNL     1       1.591   4.751  20.411  0.00  0.00    +0.000 C 
ATOM     31  C   UNL     1       3.059   4.415  20.164  0.00  0.00    +0.000 C 
ENDBRANCH  26  27
ENDBRANCH  25  26
ENDBRANCH  23  24
ENDBRANCH  20  23
ENDBRANCH  18  21
ENDBRANCH  17  18
ENDBRANCH   1  17
TORSDOF 13
ENDMDL
MODEL 7
REMARK VINA RESULT:      -6.3      5.322      8.013
REMARK  Name = 
REMARK  17 active torsions:
REMARK  status: ('A' for Active; 'I' for Inactive)
REMARK    1  A    between atoms: C_1  and  N_2
REMARK    2  A    between atoms: N_2  and  C_3
REMARK    3  A    between atoms: C_3  and  C_4
REMARK    4  A    between atoms: C_5  and  C_6
REMARK    5  A    between atoms: C_6  and  N_7
REMARK    6  A    between atoms: C_12  and  C_14
REMARK    7  A    between atoms: C_14  and  C_15
REMARK    8  A    between atoms: C_15  and  C_16
REMARK    9  A    between atoms: C_16  and  N_17
REMARK   10  A    between atoms: C_18  and  C_20
REMARK   11  A    between atoms: C_20  and  C_21
REMARK   12  A    between atoms: C_21  and  N_22
REMARK   13  A    between atoms: C_23  and  O_25
REMARK   14  A    between atoms: O_25  and  C_26
REMARK   15  A    between atoms: C_26  and  C_27
REMARK   16  A    between atoms: C_26  and  C_28
REMARK   17  A    between atoms: C_26  and  C_29
REMARK                            x       y       z     vdW  Elec       q    Type
REMARK                         _______ _______ _______ _____ _____    ______ ____
ROOT
ATOM      1  C   UNL     1       3.936   2.397  18.428  0.00  0.00    +0.000 C 
ENDROOT
BRANCH   1   2
ATOM      2  N   UNL     1       4.690   3.423  17.733  0.00  0.00    +0.000 N 
ATOM      3  C   UNL     1       5.504   4.317  18.399  0.00  0.00    +0.000 C 
ATOM      4  O   UNL     1       5.603   4.353  19.620  0.00  0.00    +0.000 OA
ATOM      5  H   UNL     1       4.645   3.450  16.721  0.00  0.00    +0.000 HD
BRANCH   3   6
ATOM      6  C   UNL     1       6.225   5.285  17.484  0.00  0.00    +0.000 C 
BRANCH   6   7
ATOM      7  C   UNL     1       5.508   5.417  16.139  0.00  0.00    +0.000 C 
BRANCH   7   8
ATOM      8  N   UNL     1       5.673   4.253  15.283  0.00  0.00    +0.000 N 
ATOM      9  C   UNL     1       6.513   4.281  14.207  0.00  0.00    +0.000 C 
ATOM     10  O   UNL     1       7.252   5.224  13.958  0.00  0.00    +0.000 OA
ATOM     11  H   UNL     1       5.013   3.486  15.324  0.00  0.00    +0.000 HD
BRANCH   9  12
ATOM     12  O   UNL     1       6.422   3.136  13.480  0.00  0.00    +0.000 OA
BRANCH  12  13
ATOM     13  C   UNL     1       6.135   3.252  12.056  0.00  0.00    +0.000 C 
ATOM     14  C   UNL     1       7.140   4.195  11.377  0.00  0.00    +0.000 C 
ATOM     15  C   UNL     1       6.321   1.849  11.450  0.00  0.00    +0.000 C 
ATOM     16  C   UNL     1       4.681   3.674  11.804  0.00  0.00    +0.000 C 
ENDBRANCH  12  13
ENDBRANCH   9  12
ENDBRANCH   7   8
ENDBRANCH   6   7
ENDBRANCH   3   6
ENDBRANCH   1   2
BRANCH   1  17
ATOM     17  C   UNL     1       2.507   2.289  17.904  0.00  0.00    +0.000 C 
BRANCH  17  18
ATOM     18  C   UNL     1       1.871   3.668  17.760  0.00  0.00    +0.000 C 
BRANCH  18  21
ATOM     19  C   UNL     1       1.727   6.121  20.686  0.00  0.00    +0.000 C 
ATOM     20  N   UNL     1       2.008   5.584  19.365  0.00  0.00    +0.000 N 
ATOM     21  C   UNL     1       1.597   4.284  19.120  0.00  0.00    +0.000 C 
ATOM     22  O   UNL     1       0.974   3.627  19.958  0.00  0.00    +0.000 OA
BRANCH  20  23
ATOM     23  C   UNL     1       2.763   6.422  18.434  0.00  0.00    +0.000 C 
BRANCH  23  24
ATOM     24  C   UNL     1       2.183   7.768  18.304  0.00  0.00    +0.000 C 
ATOM     25  C   UNL     1       1.679   8.965  18.197  0.00  0.00    +0.000 C 
BRANCH  25  26
ATOM     26  C   UNL     1       1.089  10.361  18.072  0.00  0.00    +0.000 C 
BRANCH  26  27
ATOM     27  N   UNL     1       1.718  11.304  19.009  0.00  0.00    +0.000 NA
ATOM     28  C   UNL     1       0.763  11.688  20.063  0.00  0.00    +0.000 C 
ATOM     29  C   UNL     1      -0.019  12.844  19.468  0.00  0.00    +0.000 C 
ATOM     30  C   UNL     1       1.049  13.614  18.716  0.00  0.00    +0.000 C 
ATOM     31  C   UNL     1       2.112  12.576  18.372  0.00  0.00    +0.000 C 
ENDBRANCH  26  27
ENDBRANCH  25  26
ENDBRANCH  23  24
ENDBRANCH  20  23
ENDBRANCH  18  21
ENDBRANCH  17  18
ENDBRANCH   1  17
TORSDOF 13
ENDMDL
MODEL 8
REMARK VINA RESULT:      -6.2      4.450     10.570
REMARK  Name = 
REMARK  17 active torsions:
REMARK  status: ('A' for Active; 'I' for Inactive)
REMARK    1  A    between atoms: C_1  and  N_2
REMARK    2  A    between atoms: N_2  and  C_3
REMARK    3  A    between atoms: C_3  and  C_4
REMARK    4  A    between atoms: C_5  and  C_6
REMARK    5  A    between atoms: C_6  and  N_7
REMARK    6  A    between atoms: C_12  and  C_14
REMARK    7  A    between atoms: C_14  and  C_15
REMARK    8  A    between atoms: C_15  and  C_16
REMARK    9  A    between atoms: C_16  and  N_17
REMARK   10  A    between atoms: C_18  and  C_20
REMARK   11  A    between atoms: C_20  and  C_21
REMARK   12  A    between atoms: C_21  and  N_22
REMARK   13  A    between atoms: C_23  and  O_25
REMARK   14  A    between atoms: O_25  and  C_26
REMARK   15  A    between atoms: C_26  and  C_27
REMARK   16  A    between atoms: C_26  and  C_28
REMARK   17  A    between atoms: C_26  and  C_29
REMARK                            x       y       z     vdW  Elec       q    Type
REMARK                         _______ _______ _______ _____ _____    ______ ____
ROOT
ATOM      1  C   UNL     1       2.467   7.950  17.765  0.00  0.00    +0.000 C 
ENDROOT
BRANCH   1   2
ATOM      2  N   UNL     1       1.960   8.555  18.982  0.00  0.00    +0.000 N 
ATOM      3  C   UNL     1       0.989   9.535  18.968  0.00  0.00    +0.000 C 
ATOM      4  O   UNL     1       0.529  10.009  17.936  0.00  0.00    +0.000 OA
ATOM      5  H   UNL     1       2.307   8.211  19.870  0.00  0.00    +0.000 HD
BRANCH   3   6
ATOM      6  C   UNL     1       0.581  10.010  20.348  0.00  0.00    +0.000 C 
BRANCH   6   7
ATOM      7  C   UNL     1       0.430  11.532  20.390  0.00  0.00    +0.000 C 
BRANCH   7   8
ATOM      8  N   UNL     1       1.508  12.234  19.713  0.00  0.00    +0.000 N 
ATOM      9  C   UNL     1       2.193  13.241  20.329  0.00  0.00    +0.000 C 
ATOM     10  O   UNL     1       2.029  13.541  21.505  0.00  0.00    +0.000 OA
ATOM     11  H   UNL     1       1.624  12.155  18.710  0.00  0.00    +0.000 HD
BRANCH   9  12
ATOM     12  O   UNL     1       3.068  13.837  19.478  0.00  0.00    +0.000 OA
BRANCH  12  13
ATOM     13  C   UNL     1       2.763  15.185  19.017  0.00  0.00    +0.000 C 
ATOM     14  C   UNL     1       3.363  15.429  17.623  0.00  0.00    +0.000 C 
ATOM     15  C   UNL     1       1.232  15.278  18.895  0.00  0.00    +0.000 C 
ATOM     16  C   UNL     1       3.210  16.246  20.034  0.00  0.00    +0.000 C 
ENDBRANCH  12  13
ENDBRANCH   9  12
ENDBRANCH   7   8
ENDBRANCH   6   7
ENDBRANCH   3   6
ENDBRANCH   1   2
BRANCH   1  17
ATOM     17  C   UNL     1       3.673   7.056  18.033  0.00  0.00    +0.000 C 
BRANCH  17  18
ATOM     18  C   UNL     1       4.536   6.912  16.783  0.00  0.00    +0.000 C 
BRANCH  18  21
ATOM     19  C   UNL     1       7.521   4.541  17.026  0.00  0.00    +0.000 C 
ATOM     20  N   UNL     1       6.213   5.059  16.662  0.00  0.00    +0.000 N 
ATOM     21  C   UNL     1       5.893   6.325  17.125  0.00  0.00    +0.000 C 
ATOM     22  O   UNL     1       6.695   7.008  17.767  0.00  0.00    +0.000 OA
BRANCH  20  23
ATOM     23  C   UNL     1       5.316   4.180  15.912  0.00  0.00    +0.000 C 
BRANCH  23  24
ATOM     24  C   UNL     1       4.158   3.755  16.714  0.00  0.00    +0.000 C 
ATOM     25  C   UNL     1       3.137   3.367  17.426  0.00  0.00    +0.000 C 
BRANCH  25  26
ATOM     26  C   UNL     1       1.946   2.914  18.256  0.00  0.00    +0.000 C 
BRANCH  26  27
ATOM     27  N   UNL     1       1.703   3.814  19.393  0.00  0.00    +0.000 NA
ATOM     28  C   UNL     1       2.921   3.939  20.212  0.00  0.00    +0.000 C 
ATOM     29  C   UNL     1       2.864   2.762  21.167  0.00  0.00    +0.000 C 
ATOM     30  C   UNL     1       1.391   2.690  21.518  0.00  0.00    +0.000 C 
ATOM     31  C   UNL     1       0.672   3.307  20.321  0.00  0.00    +0.000 C 
ENDBRANCH  26  27
ENDBRANCH  25  26
ENDBRANCH  23  24
ENDBRANCH  20  23
ENDBRANCH  18  21
ENDBRANCH  17  18
ENDBRANCH   1  17
TORSDOF 13
ENDMDL
MODEL 9
REMARK VINA RESULT:      -6.2      2.945     10.599
REMARK  Name = 
REMARK  17 active torsions:
REMARK  status: ('A' for Active; 'I' for Inactive)
REMARK    1  A    between atoms: C_1  and  N_2
REMARK    2  A    between atoms: N_2  and  C_3
REMARK    3  A    between atoms: C_3  and  C_4
REMARK    4  A    between atoms: C_5  and  C_6
REMARK    5  A    between atoms: C_6  and  N_7
REMARK    6  A    between atoms: C_12  and  C_14
REMARK    7  A    between atoms: C_14  and  C_15
REMARK    8  A    between atoms: C_15  and  C_16
REMARK    9  A    between atoms: C_16  and  N_17
REMARK   10  A    between atoms: C_18  and  C_20
REMARK   11  A    between atoms: C_20  and  C_21
REMARK   12  A    between atoms: C_21  and  N_22
REMARK   13  A    between atoms: C_23  and  O_25
REMARK   14  A    between atoms: O_25  and  C_26
REMARK   15  A    between atoms: C_26  and  C_27
REMARK   16  A    between atoms: C_26  and  C_28
REMARK   17  A    between atoms: C_26  and  C_29
REMARK                            x       y       z     vdW  Elec       q    Type
REMARK                         _______ _______ _______ _____ _____    ______ ____
ROOT
ATOM      1  C   UNL     1       8.466   8.143  18.295  0.00  0.00    +0.000 C 
ENDROOT
BRANCH   1   2
ATOM      2  N   UNL     1       8.514   9.538  17.902  0.00  0.00    +0.000 N 
ATOM      3  C   UNL     1       9.116  10.503  18.683  0.00  0.00    +0.000 C 
ATOM      4  O   UNL     1       9.596  10.270  19.786  0.00  0.00    +0.000 OA
ATOM      5  H   UNL     1       8.126   9.797  17.002  0.00  0.00    +0.000 HD
BRANCH   3   6
ATOM      6  C   UNL     1       9.081  11.890  18.074  0.00  0.00    +0.000 C 
BRANCH   6   7
ATOM      7  C   UNL     1       9.733  12.919  18.999  0.00  0.00    +0.000 C 
BRANCH   7   8
ATOM      8  N   UNL     1       9.104  12.994  20.308  0.00  0.00    +0.000 N 
ATOM      9  C   UNL     1       8.275  14.028  20.636  0.00  0.00    +0.000 C 
ATOM     10  O   UNL     1       7.923  14.885  19.835  0.00  0.00    +0.000 OA
ATOM     11  H   UNL     1       9.436  12.420  21.073  0.00  0.00    +0.000 HD
BRANCH   9  12
ATOM     12  O   UNL     1       7.898  13.965  21.940  0.00  0.00    +0.000 OA
BRANCH  12  13
ATOM     13  C   UNL     1       8.404  14.986  22.848  0.00  0.00    +0.000 C 
ATOM     14  C   UNL     1       8.498  14.438  24.281  0.00  0.00    +0.000 C 
ATOM     15  C   UNL     1       9.829  15.330  22.381  0.00  0.00    +0.000 C 
ATOM     16  C   UNL     1       7.570  16.274  22.773  0.00  0.00    +0.000 C 
ENDBRANCH  12  13
ENDBRANCH   9  12
ENDBRANCH   7   8
ENDBRANCH   6   7
ENDBRANCH   3   6
ENDBRANCH   1   2
BRANCH   1  17
ATOM     17  C   UNL     1       7.317   7.400  17.620  0.00  0.00    +0.000 C 
BRANCH  17  18
ATOM     18  C   UNL     1       7.145   6.004  18.213  0.00  0.00    +0.000 C 
BRANCH  18  21
ATOM     19  C   UNL     1       6.372   3.860  15.148  0.00  0.00    +0.000 C 
ATOM     20  N   UNL     1       6.249   4.903  16.152  0.00  0.00    +0.000 N 
ATOM     21  C   UNL     1       7.227   4.942  17.133  0.00  0.00    +0.000 C 
ATOM     22  O   UNL     1       8.187   4.167  17.129  0.00  0.00    +0.000 OA
BRANCH  20  23
ATOM     23  C   UNL     1       5.074   5.772  16.094  0.00  0.00    +0.000 C 
BRANCH  23  24
ATOM     24  C   UNL     1       4.008   5.322  17.004  0.00  0.00    +0.000 C 
ATOM     25  C   UNL     1       3.067   4.912  17.808  0.00  0.00    +0.000 C 
BRANCH  25  26
ATOM     26  C   UNL     1       1.970   4.435  18.745  0.00  0.00    +0.000 C 
BRANCH  26  27
ATOM     27  N   UNL     1       2.167   3.034  19.146  0.00  0.00    +0.000 NA
ATOM     28  C   UNL     1       0.972   2.531  19.844  0.00  0.00    +0.000 C 
ATOM     29  C   UNL     1       1.170   2.944  21.291  0.00  0.00    +0.000 C 
ATOM     30  C   UNL     1       2.654   2.718  21.499  0.00  0.00    +0.000 C 
ATOM     31  C   UNL     1       3.271   2.859  20.111  0.00  0.00    +0.000 C 
ENDBRANCH  26  27
ENDBRANCH  25  26
ENDBRANCH  23  24
ENDBRANCH  20  23
ENDBRANCH  18  21
ENDBRANCH  17  18
ENDBRANCH   1  17
TORSDOF 13
ENDMDL
