MODEL 1
REMARK VINA RESULT:      -8.7      0.000      0.000
REMARK  Name = 
REMARK  4 active torsions:
REMARK  status: ('A' for Active; 'I' for Inactive)
REMARK    1  A    between atoms: C_1  and  N_2
REMARK    2  A    between atoms: C_4  and  N_5
REMARK    3  A    between atoms: C_6  and  C_8
REMARK    4  A    between atoms: N_10  and  C_11
REMARK                            x       y       z     vdW  Elec       q    Type
REMARK                         _______ _______ _______ _____ _____    ______ ____
ROOT
ATOM      1  C   UNL     1       2.708   6.068  18.942  0.00  0.00    +0.000 A 
ATOM      2  C   UNL     1       3.573   6.017  17.913  0.00  0.00    +0.000 A 
ATOM      3  N   UNL     1       4.105   4.842  17.402  0.00  0.00    +0.000 N 
ATOM      4  C   UNL     1       3.749   3.585  17.917  0.00  0.00    +0.000 A 
ATOM      5  O   UNL     1       4.175   2.512  17.491  0.00  0.00    +0.000 OA
ATOM      6  C   UNL     1       2.833   3.583  19.087  0.00  0.00    +0.000 A 
ATOM      7  C   UNL     1       2.544   2.359  19.714  0.00  0.00    +0.000 A 
ATOM      8  C   UNL     1       1.691   2.318  20.811  0.00  0.00    +0.000 A 
ATOM      9  C   UNL     1       1.109   3.494  21.268  0.00  0.00    +0.000 A 
ATOM     10  C   UNL     1       1.409   4.716  20.656  0.00  0.00    +0.000 A 
ATOM     11  C   UNL     1       2.294   4.789  19.566  0.00  0.00    +0.000 A 
ENDROOT
BRANCH   3  12
ATOM     12  C   UNL     1       5.065   4.886  16.348  0.00  0.00    +0.000 A 
ATOM     13  C   UNL     1       6.210   5.685  16.460  0.00  0.00    +0.000 A 
ATOM     14  C   UNL     1       7.134   5.717  15.418  0.00  0.00    +0.000 A 
ATOM     15  F   UNL     1       8.248   6.450  15.554  0.00  0.00    +0.000 F 
ATOM     16  C   UNL     1       6.917   4.992  14.254  0.00  0.00    +0.000 A 
ATOM     17  F   UNL     1       7.802   5.042  13.251  0.00  0.00    +0.000 F 
ATOM     18  C   UNL     1       5.774   4.213  14.140  0.00  0.00    +0.000 A 
ATOM     19  F   UNL     1       5.534   3.528  13.013  0.00  0.00    +0.000 F 
ATOM     20  C   UNL     1       4.856   4.135  15.184  0.00  0.00    +0.000 A 
ENDBRANCH   3  12
BRANCH   1  22
ATOM     21  N   UNL     1       1.718   7.478  20.672  0.00  0.00    +0.000 N 
ATOM     22  C   UNL     1       2.153   7.409  19.361  0.00  0.00    +0.000 C 
ATOM     23  O   UNL     1       2.105   8.331  18.552  0.00  0.00    +0.000 OA
ATOM     24  H   UNL     1       1.815   6.682  21.287  0.00  0.00    +0.000 HD
BRANCH  21  28
ATOM     25  C   UNL     1      -1.081  11.415  21.577  0.00  0.00    +0.000 C 
ATOM     26  N   UNL     1      -0.117  10.346  21.671  0.00  0.00    +0.000 N 
ATOM     27  C   UNL     1       0.145   9.403  20.724  0.00  0.00    +0.000 A 
ATOM     28  C   UNL     1       1.123   8.590  21.243  0.00  0.00    +0.000 A 
ATOM     29  C   UNL     1       1.377   9.137  22.523  0.00  0.00    +0.000 A 
ATOM     30  N   UNL     1       0.627  10.207  22.786  0.00  0.00    +0.000 NA
ENDBRANCH  21  28
ENDBRANCH   1  22
TORSDOF 3
ENDMDL
MODEL 2
REMARK VINA RESULT:      -8.7      0.085      1.532
REMARK  Name = 
REMARK  4 active torsions:
REMARK  status: ('A' for Active; 'I' for Inactive)
REMARK    1  A    between atoms: C_1  and  N_2
REMARK    2  A    between atoms: C_4  and  N_5
REMARK    3  A    between atoms: C_6  and  C_8
REMARK    4  A    between atoms: N_10  and  C_11
REMARK                            x       y       z     vdW  Elec       q    Type
REMARK                         _______ _______ _______ _____ _____    ______ ____
ROOT
ATOM      1  C   UNL     1       2.703   6.075  18.927  0.00  0.00    +0.000 A 
ATOM      2  C   UNL     1       3.542   6.014  17.877  0.00  0.00    +0.000 A 
ATOM      3  N   UNL     1       4.053   4.834  17.357  0.00  0.00    +0.000 N 
ATOM      4  C   UNL     1       3.702   3.581  17.885  0.00  0.00    +0.000 A 
ATOM      5  O   UNL     1       4.110   2.504  17.453  0.00  0.00    +0.000 OA
ATOM      6  C   UNL     1       2.815   3.590  19.078  0.00  0.00    +0.000 A 
ATOM      7  C   UNL     1       2.533   2.370  19.715  0.00  0.00    +0.000 A 
ATOM      8  C   UNL     1       1.707   2.338  20.833  0.00  0.00    +0.000 A 
ATOM      9  C   UNL     1       1.144   3.519  21.301  0.00  0.00    +0.000 A 
ATOM     10  C   UNL     1       1.437   4.737  20.677  0.00  0.00    +0.000 A 
ATOM     11  C   UNL     1       2.296   4.801  19.565  0.00  0.00    +0.000 A 
ENDROOT
BRANCH   3  12
ATOM     12  C   UNL     1       4.988   4.868  16.280  0.00  0.00    +0.000 A 
ATOM     13  C   UNL     1       4.737   4.162  15.097  0.00  0.00    +0.000 A 
ATOM     14  C   UNL     1       5.664   4.206  14.058  0.00  0.00    +0.000 A 
ATOM     15  F   UNL     1       5.395   3.563  12.913  0.00  0.00    +0.000 F 
ATOM     16  C   UNL     1       6.851   4.913  14.194  0.00  0.00    +0.000 A 
ATOM     17  F   UNL     1       7.744   4.935  13.197  0.00  0.00    +0.000 F 
ATOM     18  C   UNL     1       7.103   5.600  15.374  0.00  0.00    +0.000 A 
ATOM     19  F   UNL     1       8.256   6.266  15.533  0.00  0.00    +0.000 F 
ATOM     20  C   UNL     1       6.174   5.603  16.411  0.00  0.00    +0.000 A 
ENDBRANCH   3  12
BRANCH   1  22
ATOM     21  N   UNL     1       1.705   7.479  20.657  0.00  0.00    +0.000 N 
ATOM     22  C   UNL     1       2.168   7.421  19.354  0.00  0.00    +0.000 C 
ATOM     23  O   UNL     1       2.156   8.355  18.560  0.00  0.00    +0.000 OA
ATOM     24  H   UNL     1       1.773   6.672  21.262  0.00  0.00    +0.000 HD
BRANCH  21  28
ATOM     25  C   UNL     1      -1.082  11.417  21.596  0.00  0.00    +0.000 C 
ATOM     26  N   UNL     1      -0.112  10.351  21.676  0.00  0.00    +0.000 N 
ATOM     27  C   UNL     1       0.129   9.400  20.731  0.00  0.00    +0.000 A 
ATOM     28  C   UNL     1       1.122   8.595  21.233  0.00  0.00    +0.000 A 
ATOM     29  C   UNL     1       1.407   9.155  22.500  0.00  0.00    +0.000 A 
ATOM     30  N   UNL     1       0.660  10.226  22.772  0.00  0.00    +0.000 NA
ENDBRANCH  21  28
ENDBRANCH   1  22
TORSDOF 3
ENDMDL
MODEL 3
REMARK VINA RESULT:      -8.7      4.709      7.311
REMARK  Name = 
REMARK  4 active torsions:
REMARK  status: ('A' for Active; 'I' for Inactive)
REMARK    1  A    between atoms: C_1  and  N_2
REMARK    2  A    between atoms: C_4  and  N_5
REMARK    3  A    between atoms: C_6  and  C_8
REMARK    4  A    between atoms: N_10  and  C_11
REMARK                            x       y       z     vdW  Elec       q    Type
REMARK                         _______ _______ _______ _____ _____    ______ ____
ROOT
ATOM      1  C   UNL     1       6.466   5.782  17.780  0.00  0.00    +0.000 A 
ATOM      2  C   UNL     1       5.563   5.317  18.663  0.00  0.00    +0.000 A 
ATOM      3  N   UNL     1       4.618   4.346  18.369  0.00  0.00    +0.000 N 
ATOM      4  C   UNL     1       4.550   3.739  17.104  0.00  0.00    +0.000 A 
ATOM      5  O   UNL     1       3.745   2.861  16.795  0.00  0.00    +0.000 OA
ATOM      6  C   UNL     1       5.493   4.248  16.074  0.00  0.00    +0.000 A 
ATOM      7  C   UNL     1       5.382   3.760  14.761  0.00  0.00    +0.000 A 
ATOM      8  C   UNL     1       6.247   4.212  13.770  0.00  0.00    +0.000 A 
ATOM      9  C   UNL     1       7.235   5.133  14.094  0.00  0.00    +0.000 A 
ATOM     10  C   UNL     1       7.336   5.632  15.398  0.00  0.00    +0.000 A 
ATOM     11  C   UNL     1       6.453   5.217  16.410  0.00  0.00    +0.000 A 
ENDROOT
BRANCH   3  12
ATOM     12  C   UNL     1       3.657   3.958  19.349  0.00  0.00    +0.000 A 
ATOM     13  C   UNL     1       2.441   4.643  19.466  0.00  0.00    +0.000 A 
ATOM     14  C   UNL     1       1.518   4.250  20.432  0.00  0.00    +0.000 A 
ATOM     15  F   UNL     1       0.339   4.883  20.507  0.00  0.00    +0.000 F 
ATOM     16  C   UNL     1       1.803   3.209  21.305  0.00  0.00    +0.000 A 
ATOM     17  F   UNL     1       0.916   2.850  22.243  0.00  0.00    +0.000 F 
ATOM     18  C   UNL     1       3.015   2.541  21.197  0.00  0.00    +0.000 A 
ATOM     19  F   UNL     1       3.319   1.552  22.049  0.00  0.00    +0.000 F 
ATOM     20  C   UNL     1       3.937   2.891  20.214  0.00  0.00    +0.000 A 
ENDBRANCH   3  12
BRANCH   1  22
ATOM     21  N   UNL     1       7.253   8.092  17.821  0.00  0.00    +0.000 N 
ATOM     22  C   UNL     1       7.484   6.796  18.246  0.00  0.00    +0.000 C 
ATOM     23  O   UNL     1       8.432   6.438  18.937  0.00  0.00    +0.000 OA
ATOM     24  H   UNL     1       6.433   8.315  17.274  0.00  0.00    +0.000 HD
BRANCH  21  28
ATOM     25  C   UNL     1       9.606  12.406  17.708  0.00  0.00    +0.000 C 
ATOM     26  N   UNL     1       9.149  11.083  18.056  0.00  0.00    +0.000 N 
ATOM     27  C   UNL     1       8.208  10.349  17.400  0.00  0.00    +0.000 A 
ATOM     28  C   UNL     1       8.090   9.164  18.084  0.00  0.00    +0.000 A 
ATOM     29  C   UNL     1       9.013   9.291  19.148  0.00  0.00    +0.000 A 
ATOM     30  N   UNL     1       9.662  10.456  19.133  0.00  0.00    +0.000 NA
ENDBRANCH  21  28
ENDBRANCH   1  22
TORSDOF 3
ENDMDL
MODEL 4
REMARK VINA RESULT:      -8.7      4.695      7.315
REMARK  Name = 
REMARK  4 active torsions:
REMARK  status: ('A' for Active; 'I' for Inactive)
REMARK    1  A    between atoms: C_1  and  N_2
REMARK    2  A    between atoms: C_4  and  N_5
REMARK    3  A    between atoms: C_6  and  C_8
REMARK    4  A    between atoms: N_10  and  C_11
REMARK                            x       y       z     vdW  Elec       q    Type
REMARK                         _______ _______ _______ _____ _____    ______ ____
ROOT
ATOM      1  C   UNL     1       6.498   5.804  17.816  0.00  0.00    +0.000 A 
ATOM      2  C   UNL     1       5.603   5.345  18.710  0.00  0.00    +0.000 A 
ATOM      3  N   UNL     1       4.654   4.373  18.430  0.00  0.00    +0.000 N 
ATOM      4  C   UNL     1       4.573   3.760  17.169  0.00  0.00    +0.000 A 
ATOM      5  O   UNL     1       3.764   2.882  16.872  0.00  0.00    +0.000 OA
ATOM      6  C   UNL     1       5.507   4.263  16.127  0.00  0.00    +0.000 A 
ATOM      7  C   UNL     1       5.383   3.768  14.818  0.00  0.00    +0.000 A 
ATOM      8  C   UNL     1       6.240   4.213  13.817  0.00  0.00    +0.000 A 
ATOM      9  C   UNL     1       7.232   5.134  14.127  0.00  0.00    +0.000 A 
ATOM     10  C   UNL     1       7.345   5.641  15.427  0.00  0.00    +0.000 A 
ATOM     11  C   UNL     1       6.471   5.232  16.449  0.00  0.00    +0.000 A 
ENDROOT
BRANCH   3  12
ATOM     12  C   UNL     1       3.702   3.992  19.421  0.00  0.00    +0.000 A 
ATOM     13  C   UNL     1       3.956   2.911  20.275  0.00  0.00    +0.000 A 
ATOM     14  C   UNL     1       3.012   2.552  21.235  0.00  0.00    +0.000 A 
ATOM     15  F   UNL     1       3.284   1.545  22.076  0.00  0.00    +0.000 F 
ATOM     16  C   UNL     1       1.805   3.232  21.332  0.00  0.00    +0.000 A 
ATOM     17  F   UNL     1       0.896   2.869  22.246  0.00  0.00    +0.000 F 
ATOM     18  C   UNL     1       1.549   4.293  20.474  0.00  0.00    +0.000 A 
ATOM     19  F   UNL     1       0.378   4.943  20.536  0.00  0.00    +0.000 F 
ATOM     20  C   UNL     1       2.495   4.694  19.534  0.00  0.00    +0.000 A 
ENDBRANCH   3  12
BRANCH   1  22
ATOM     21  N   UNL     1       7.286   8.115  17.843  0.00  0.00    +0.000 N 
ATOM     22  C   UNL     1       7.522   6.819  18.267  0.00  0.00    +0.000 C 
ATOM     23  O   UNL     1       8.479   6.463  18.947  0.00  0.00    +0.000 OA
ATOM     24  H   UNL     1       6.459   8.336  17.306  0.00  0.00    +0.000 HD
BRANCH  21  28
ATOM     25  C   UNL     1       9.687  12.398  17.648  0.00  0.00    +0.000 C 
ATOM     26  N   UNL     1       9.206  11.092  18.030  0.00  0.00    +0.000 N 
ATOM     27  C   UNL     1       8.278  10.345  17.371  0.00  0.00    +0.000 A 
ATOM     28  C   UNL     1       8.126   9.187  18.093  0.00  0.00    +0.000 A 
ATOM     29  C   UNL     1       9.017   9.343  19.180  0.00  0.00    +0.000 A 
ATOM     30  N   UNL     1       9.678  10.501  19.144  0.00  0.00    +0.000 NA
ENDBRANCH  21  28
ENDBRANCH   1  22
TORSDOF 3
ENDMDL
MODEL 5
REMARK VINA RESULT:      -8.7      1.617      2.327
REMARK  Name = 
REMARK  4 active torsions:
REMARK  status: ('A' for Active; 'I' for Inactive)
REMARK    1  A    between atoms: C_1  and  N_2
REMARK    2  A    between atoms: C_4  and  N_5
REMARK    3  A    between atoms: C_6  and  C_8
REMARK    4  A    between atoms: N_10  and  C_11
REMARK                            x       y       z     vdW  Elec       q    Type
REMARK                         _______ _______ _______ _____ _____    ______ ____
ROOT
ATOM      1  C   UNL     1       2.692   6.128  18.791  0.00  0.00    +0.000 A 
ATOM      2  C   UNL     1       3.556   6.060  17.761  0.00  0.00    +0.000 A 
ATOM      3  N   UNL     1       4.078   4.876  17.262  0.00  0.00    +0.000 N 
ATOM      4  C   UNL     1       3.713   3.627  17.789  0.00  0.00    +0.000 A 
ATOM      5  O   UNL     1       4.130   2.546  17.374  0.00  0.00    +0.000 OA
ATOM      6  C   UNL     1       2.797   3.644  18.960  0.00  0.00    +0.000 A 
ATOM      7  C   UNL     1       2.499   2.428  19.598  0.00  0.00    +0.000 A 
ATOM      8  C   UNL     1       1.646   2.404  20.696  0.00  0.00    +0.000 A 
ATOM      9  C   UNL     1       1.073   3.589  21.142  0.00  0.00    +0.000 A 
ATOM     10  C   UNL     1       1.383   4.803  20.518  0.00  0.00    +0.000 A 
ATOM     11  C   UNL     1       2.268   4.859  19.427  0.00  0.00    +0.000 A 
ENDROOT
BRANCH   3  12
ATOM     12  C   UNL     1       5.038   4.902  16.207  0.00  0.00    +0.000 A 
ATOM     13  C   UNL     1       4.851   4.131  15.053  0.00  0.00    +0.000 A 
ATOM     14  C   UNL     1       5.802   4.168  14.036  0.00  0.00    +0.000 A 
ATOM     15  F   UNL     1       5.591   3.461  12.917  0.00  0.00    +0.000 F 
ATOM     16  C   UNL     1       6.952   4.935  14.168  0.00  0.00    +0.000 A 
ATOM     17  F   UNL     1       7.869   4.951  13.192  0.00  0.00    +0.000 F 
ATOM     18  C   UNL     1       7.143   5.686  15.319  0.00  0.00    +0.000 A 
ATOM     19  F   UNL     1       8.260   6.410  15.474  0.00  0.00    +0.000 F 
ATOM     20  C   UNL     1       6.187   5.695  16.332  0.00  0.00    +0.000 A 
ENDBRANCH   3  12
BRANCH   1  22
ATOM     21  N   UNL     1       1.837   8.322  18.146  0.00  0.00    +0.000 N 
ATOM     22  C   UNL     1       2.148   7.478  19.196  0.00  0.00    +0.000 C 
ATOM     23  O   UNL     1       2.024   7.755  20.385  0.00  0.00    +0.000 OA
ATOM     24  H   UNL     1       1.941   8.012  17.190  0.00  0.00    +0.000 HD
BRANCH  21  28
ATOM     25  C   UNL     1      -0.938  12.322  18.825  0.00  0.00    +0.000 C 
ATOM     26  N   UNL     1       0.165  11.419  18.598  0.00  0.00    +0.000 N 
ATOM     27  C   UNL     1       0.097  10.062  18.502  0.00  0.00    +0.000 A 
ATOM     28  C   UNL     1       1.381   9.621  18.293  0.00  0.00    +0.000 A 
ATOM     29  C   UNL     1       2.151  10.807  18.284  0.00  0.00    +0.000 A 
ATOM     30  N   UNL     1       1.415  11.904  18.467  0.00  0.00    +0.000 NA
ENDBRANCH  21  28
ENDBRANCH   1  22
TORSDOF 3
ENDMDL
MODEL 6
REMARK VINA RESULT:      -8.6      1.614      1.749
REMARK  Name = 
REMARK  4 active torsions:
REMARK  status: ('A' for Active; 'I' for Inactive)
REMARK    1  A    between atoms: C_1  and  N_2
REMARK    2  A    between atoms: C_4  and  N_5
REMARK    3  A    between atoms: C_6  and  C_8
REMARK    4  A    between atoms: N_10  and  C_11
REMARK                            x       y       z     vdW  Elec       q    Type
REMARK                         _______ _______ _______ _____ _____    ______ ____
ROOT
ATOM      1  C   UNL     1       2.715   6.092  18.793  0.00  0.00    +0.000 A 
ATOM      2  C   UNL     1       3.583   6.021  17.767  0.00  0.00    +0.000 A 
ATOM      3  N   UNL     1       4.102   4.835  17.269  0.00  0.00    +0.000 N 
ATOM      4  C   UNL     1       3.728   3.587  17.793  0.00  0.00    +0.000 A 
ATOM      5  O   UNL     1       4.142   2.505  17.378  0.00  0.00    +0.000 OA
ATOM      6  C   UNL     1       2.808   3.608  18.960  0.00  0.00    +0.000 A 
ATOM      7  C   UNL     1       2.501   2.393  19.595  0.00  0.00    +0.000 A 
ATOM      8  C   UNL     1       1.643   2.372  20.690  0.00  0.00    +0.000 A 
ATOM      9  C   UNL     1       1.074   3.559  21.135  0.00  0.00    +0.000 A 
ATOM     10  C   UNL     1       1.393   4.771  20.513  0.00  0.00    +0.000 A 
ATOM     11  C   UNL     1       2.283   4.824  19.426  0.00  0.00    +0.000 A 
ENDROOT
BRANCH   3  12
ATOM     12  C   UNL     1       5.067   4.858  16.218  0.00  0.00    +0.000 A 
ATOM     13  C   UNL     1       6.225   5.637  16.331  0.00  0.00    +0.000 A 
ATOM     14  C   UNL     1       7.153   5.648  15.293  0.00  0.00    +0.000 A 
ATOM     15  F   UNL     1       8.280   6.361  15.429  0.00  0.00    +0.000 F 
ATOM     16  C   UNL     1       6.927   4.923  14.130  0.00  0.00    +0.000 A 
ATOM     17  F   UNL     1       7.817   4.953  13.130  0.00  0.00    +0.000 F 
ATOM     18  C   UNL     1       5.770   4.164  14.015  0.00  0.00    +0.000 A 
ATOM     19  F   UNL     1       5.523   3.479  12.889  0.00  0.00    +0.000 F 
ATOM     20  C   UNL     1       4.847   4.106  15.056  0.00  0.00    +0.000 A 
ENDBRANCH   3  12
BRANCH   1  22
ATOM     21  N   UNL     1       1.854   8.284  18.147  0.00  0.00    +0.000 N 
ATOM     22  C   UNL     1       2.176   7.444  19.198  0.00  0.00    +0.000 C 
ATOM     23  O   UNL     1       2.065   7.727  20.386  0.00  0.00    +0.000 OA
ATOM     24  H   UNL     1       1.948   7.969  17.191  0.00  0.00    +0.000 HD
BRANCH  21  28
ATOM     25  C   UNL     1      -0.911  12.287  18.840  0.00  0.00    +0.000 C 
ATOM     26  N   UNL     1       0.188  11.383  18.604  0.00  0.00    +0.000 N 
ATOM     27  C   UNL     1       0.119  10.026  18.516  0.00  0.00    +0.000 A 
ATOM     28  C   UNL     1       1.400   9.584  18.293  0.00  0.00    +0.000 A 
ATOM     29  C   UNL     1       2.170  10.769  18.266  0.00  0.00    +0.000 A 
ATOM     30  N   UNL     1       1.436  11.867  18.452  0.00  0.00    +0.000 NA
ENDBRANCH  21  28
ENDBRANCH   1  22
TORSDOF 3
ENDMDL
MODEL 7
REMARK VINA RESULT:      -8.6      3.923      7.896
REMARK  Name = 
REMARK  4 active torsions:
REMARK  status: ('A' for Active; 'I' for Inactive)
REMARK    1  A    between atoms: C_1  and  N_2
REMARK    2  A    between atoms: C_4  and  N_5
REMARK    3  A    between atoms: C_6  and  C_8
REMARK    4  A    between atoms: N_10  and  C_11
REMARK                            x       y       z     vdW  Elec       q    Type
REMARK                         _______ _______ _______ _____ _____    ______ ____
ROOT
ATOM      1  C   UNL     1       3.841   5.456  18.135  0.00  0.00    +0.000 A 
ATOM      2  C   UNL     1       3.331   6.598  18.632  0.00  0.00    +0.000 A 
ATOM      3  N   UNL     1       2.301   6.651  19.559  0.00  0.00    +0.000 N 
ATOM      4  C   UNL     1       1.717   5.485  20.082  0.00  0.00    +0.000 A 
ATOM      5  O   UNL     1       0.815   5.474  20.919  0.00  0.00    +0.000 OA
ATOM      6  C   UNL     1       2.208   4.195  19.534  0.00  0.00    +0.000 A 
ATOM      7  C   UNL     1       1.572   3.008  19.935  0.00  0.00    +0.000 A 
ATOM      8  C   UNL     1       2.004   1.780  19.444  0.00  0.00    +0.000 A 
ATOM      9  C   UNL     1       3.084   1.736  18.570  0.00  0.00    +0.000 A 
ATOM     10  C   UNL     1       3.707   2.919  18.156  0.00  0.00    +0.000 A 
ATOM     11  C   UNL     1       3.269   4.174  18.612  0.00  0.00    +0.000 A 
ENDROOT
BRANCH   3  12
ATOM     12  C   UNL     1       1.780   7.909  19.983  0.00  0.00    +0.000 A 
ATOM     13  C   UNL     1       1.512   8.149  21.337  0.00  0.00    +0.000 A 
ATOM     14  C   UNL     1       1.001   9.384  21.731  0.00  0.00    +0.000 A 
ATOM     15  F   UNL     1       0.789   9.619  23.033  0.00  0.00    +0.000 F 
ATOM     16  C   UNL     1       0.720  10.368  20.792  0.00  0.00    +0.000 A 
ATOM     17  F   UNL     1       0.213  11.545  21.179  0.00  0.00    +0.000 F 
ATOM     18  C   UNL     1       0.973  10.122  19.450  0.00  0.00    +0.000 A 
ATOM     19  F   UNL     1       0.683  11.051  18.528  0.00  0.00    +0.000 F 
ATOM     20  C   UNL     1       1.521   8.910  19.037  0.00  0.00    +0.000 A 
ENDBRANCH   3  12
BRANCH   1  22
ATOM     21  N   UNL     1       4.808   4.904  15.962  0.00  0.00    +0.000 N 
ATOM     22  C   UNL     1       5.007   5.534  17.178  0.00  0.00    +0.000 C 
ATOM     23  O   UNL     1       6.034   6.116  17.512  0.00  0.00    +0.000 OA
ATOM     24  H   UNL     1       3.922   4.468  15.749  0.00  0.00    +0.000 HD
BRANCH  21  28
ATOM     25  C   UNL     1       7.261   3.840  11.839  0.00  0.00    +0.000 C 
ATOM     26  N   UNL     1       6.876   4.348  13.133  0.00  0.00    +0.000 N 
ATOM     27  C   UNL     1       5.695   4.126  13.774  0.00  0.00    +0.000 A 
ATOM     28  C   UNL     1       5.764   4.805  14.965  0.00  0.00    +0.000 A 
ATOM     29  C   UNL     1       7.042   5.411  14.939  0.00  0.00    +0.000 A 
ATOM     30  N   UNL     1       7.723   5.132  13.826  0.00  0.00    +0.000 NA
ENDBRANCH  21  28
ENDBRANCH   1  22
TORSDOF 3
ENDMDL
MODEL 8
REMARK VINA RESULT:      -8.5      3.908      7.932
REMARK  Name = 
REMARK  4 active torsions:
REMARK  status: ('A' for Active; 'I' for Inactive)
REMARK    1  A    between atoms: C_1  and  N_2
REMARK    2  A    between atoms: C_4  and  N_5
REMARK    3  A    between atoms: C_6  and  C_8
REMARK    4  A    between atoms: N_10  and  C_11
REMARK                            x       y       z     vdW  Elec       q    Type
REMARK                         _______ _______ _______ _____ _____    ______ ____
ROOT
ATOM      1  C   UNL     1       3.864   5.419  18.135  0.00  0.00    +0.000 A 
ATOM      2  C   UNL     1       3.346   6.563  18.617  0.00  0.00    +0.000 A 
ATOM      3  N   UNL     1       2.308   6.620  19.536  0.00  0.00    +0.000 N 
ATOM      4  C   UNL     1       1.726   5.456  20.066  0.00  0.00    +0.000 A 
ATOM      5  O   UNL     1       0.818   5.448  20.895  0.00  0.00    +0.000 OA
ATOM      6  C   UNL     1       2.227   4.163  19.532  0.00  0.00    +0.000 A 
ATOM      7  C   UNL     1       1.593   2.977  19.940  0.00  0.00    +0.000 A 
ATOM      8  C   UNL     1       2.034   1.747  19.463  0.00  0.00    +0.000 A 
ATOM      9  C   UNL     1       3.120   1.700  18.598  0.00  0.00    +0.000 A 
ATOM     10  C   UNL     1       3.741   2.882  18.177  0.00  0.00    +0.000 A 
ATOM     11  C   UNL     1       3.294   4.139  18.619  0.00  0.00    +0.000 A 
ENDROOT
BRANCH   3  12
ATOM     12  C   UNL     1       1.779   7.879  19.945  0.00  0.00    +0.000 A 
ATOM     13  C   UNL     1       1.532   8.888  19.006  0.00  0.00    +0.000 A 
ATOM     14  C   UNL     1       1.017  10.112  19.426  0.00  0.00    +0.000 A 
ATOM     15  F   UNL     1       0.743  11.055  18.515  0.00  0.00    +0.000 F 
ATOM     16  C   UNL     1       0.780  10.357  20.772  0.00  0.00    +0.000 A 
ATOM     17  F   UNL     1       0.301  11.544  21.169  0.00  0.00    +0.000 F 
ATOM     18  C   UNL     1       1.040   9.361  21.703  0.00  0.00    +0.000 A 
ATOM     19  F   UNL     1       0.842   9.590  23.009  0.00  0.00    +0.000 F 
ATOM     20  C   UNL     1       1.517   8.116  21.301  0.00  0.00    +0.000 A 
ENDBRANCH   3  12
BRANCH   1  22
ATOM     21  N   UNL     1       4.822   4.919  15.945  0.00  0.00    +0.000 N 
ATOM     22  C   UNL     1       5.037   5.494  17.185  0.00  0.00    +0.000 C 
ATOM     23  O   UNL     1       6.082   6.025  17.545  0.00  0.00    +0.000 OA
ATOM     24  H   UNL     1       3.922   4.523  15.712  0.00  0.00    +0.000 HD
BRANCH  21  28
ATOM     25  C   UNL     1       7.294   3.844  11.836  0.00  0.00    +0.000 C 
ATOM     26  N   UNL     1       6.898   4.364  13.122  0.00  0.00    +0.000 N 
ATOM     27  C   UNL     1       5.724   4.125  13.768  0.00  0.00    +0.000 A 
ATOM     28  C   UNL     1       5.779   4.826  14.948  0.00  0.00    +0.000 A 
ATOM     29  C   UNL     1       7.042   5.461  14.910  0.00  0.00    +0.000 A 
ATOM     30  N   UNL     1       7.728   5.180  13.801  0.00  0.00    +0.000 NA
ENDBRANCH  21  28
ENDBRANCH   1  22
TORSDOF 3
ENDMDL
MODEL 9
REMARK VINA RESULT:      -8.5      4.100      7.909
REMARK  Name = 
REMARK  4 active torsions:
REMARK  status: ('A' for Active; 'I' for Inactive)
REMARK    1  A    between atoms: C_1  and  N_2
REMARK    2  A    between atoms: C_4  and  N_5
REMARK    3  A    between atoms: C_6  and  C_8
REMARK    4  A    between atoms: N_10  and  C_11
REMARK                            x       y       z     vdW  Elec       q    Type
REMARK                         _______ _______ _______ _____ _____    ______ ____
ROOT
ATOM      1  C   UNL     1       3.667   6.366  18.285  0.00  0.00    +0.000 A 
ATOM      2  C   UNL     1       2.948   7.497  18.409  0.00  0.00    +0.000 A 
ATOM      3  N   UNL     1       1.965   7.692  19.368  0.00  0.00    +0.000 N 
ATOM      4  C   UNL     1       1.659   6.709  20.323  0.00  0.00    +0.000 A 
ATOM      5  O   UNL     1       0.812   6.835  21.206  0.00  0.00    +0.000 OA
ATOM      6  C   UNL     1       2.390   5.420  20.204  0.00  0.00    +0.000 A 
ATOM      7  C   UNL     1       2.033   4.363  21.059  0.00  0.00    +0.000 A 
ATOM      8  C   UNL     1       2.694   3.142  20.979  0.00  0.00    +0.000 A 
ATOM      9  C   UNL     1       3.725   2.984  20.061  0.00  0.00    +0.000 A 
ATOM     10  C   UNL     1       4.070   4.030  19.197  0.00  0.00    +0.000 A 
ATOM     11  C   UNL     1       3.395   5.262  19.236  0.00  0.00    +0.000 A 
ENDROOT
BRANCH   3  12
ATOM     12  C   UNL     1       1.208   8.901  19.386  0.00  0.00    +0.000 A 
ATOM     13  C   UNL     1       1.250   9.751  20.497  0.00  0.00    +0.000 A 
ATOM     14  C   UNL     1       0.500  10.926  20.497  0.00  0.00    +0.000 A 
ATOM     15  F   UNL     1       0.581  11.754  21.546  0.00  0.00    +0.000 F 
ATOM     16  C   UNL     1      -0.315  11.246  19.420  0.00  0.00    +0.000 A 
ATOM     17  F   UNL     1      -1.046  12.369  19.435  0.00  0.00    +0.000 F 
ATOM     18  C   UNL     1      -0.366  10.394  18.325  0.00  0.00    +0.000 A 
ATOM     19  F   UNL     1      -1.169  10.674  17.289  0.00  0.00    +0.000 F 
ATOM     20  C   UNL     1       0.404   9.234  18.287  0.00  0.00    +0.000 A 
ENDBRANCH   3  12
BRANCH   1  22
ATOM     21  N   UNL     1       4.670   5.231  16.371  0.00  0.00    +0.000 N 
ATOM     22  C   UNL     1       4.754   6.305  17.238  0.00  0.00    +0.000 C 
ATOM     23  O   UNL     1       5.628   7.166  17.213  0.00  0.00    +0.000 OA
ATOM     24  H   UNL     1       3.903   4.576  16.438  0.00  0.00    +0.000 HD
BRANCH  21  28
ATOM     25  C   UNL     1       6.882   3.746  12.241  0.00  0.00    +0.000 C 
ATOM     26  N   UNL     1       6.600   4.303  13.541  0.00  0.00    +0.000 N 
ATOM     27  C   UNL     1       5.394   4.319  14.174  0.00  0.00    +0.000 A 
ATOM     28  C   UNL     1       5.593   4.952  15.376  0.00  0.00    +0.000 A 
ATOM     29  C   UNL     1       6.968   5.282  15.365  0.00  0.00    +0.000 A 
ATOM     30  N   UNL     1       7.585   4.886  14.251  0.00  0.00    +0.000 NA
ENDBRANCH  21  28
ENDBRANCH   1  22
TORSDOF 3
ENDMDL
