MODEL 1
REMARK VINA RESULT:      -7.8      0.000      0.000
REMARK  Name = 
REMARK  5 active torsions:
REMARK  status: ('A' for Active; 'I' for Inactive)
REMARK    1  A    between atoms: C_1  and  N_2
REMARK    2  A    between atoms: N_6  and  C_7
REMARK    3  A    between atoms: C_11  and  C_12
REMARK    4  A    between atoms: C_12  and  O_14
REMARK    5  A    between atoms: O_14  and  C_15
REMARK                            x       y       z     vdW  Elec       q    Type
REMARK                         _______ _______ _______ _____ _____    ______ ____
ROOT
ATOM      1  C   UNL     1       2.465   8.094  18.362  0.00  0.00    +0.000 C 
ATOM      2  N   UNL     1       1.862   7.556  19.563  0.00  0.00    +0.000 N 
ATOM      3  C   UNL     1       2.224   6.247  19.856  0.00  0.00    +0.000 A 
ATOM      4  N   UNL     1       3.424   5.808  19.446  0.00  0.00    +0.000 NA
ATOM      5  C   UNL     1       3.845   4.541  19.697  0.00  0.00    +0.000 A 
ATOM      6  N   UNL     1       5.108   4.110  19.260  0.00  0.00    +0.000 N 
ATOM      7  C   UNL     1       2.975   3.720  20.429  0.00  0.00    +0.000 A 
ATOM      8  N   UNL     1       3.060   2.417  20.881  0.00  0.00    +0.000 NA
ATOM      9  C   UNL     1       1.917   2.202  21.502  0.00  0.00    +0.000 A 
ATOM     10  N   UNL     1       1.104   3.302  21.471  0.00  0.00    +0.000 N 
ATOM     11  C   UNL     1       1.764   4.282  20.789  0.00  0.00    +0.000 A 
ATOM     12  N   UNL     1       1.319   5.519  20.531  0.00  0.00    +0.000 NA
ATOM     13  H   UNL     1       0.852   7.607  19.616  0.00  0.00    +0.000 HD
ATOM     14  H   UNL     1       5.386   3.217  19.650  0.00  0.00    +0.000 HD
ATOM     15  H   UNL     1       0.183   3.393  21.874  0.00  0.00    +0.000 HD
ENDROOT
BRANCH   6  16
ATOM     16  C   UNL     1       6.014   4.755  18.401  0.00  0.00    +0.000 A 
ATOM     17  C   UNL     1       6.802   5.803  18.891  0.00  0.00    +0.000 A 
ATOM     18  C   UNL     1       7.640   6.533  18.041  0.00  0.00    +0.000 A 
ATOM     19  C   UNL     1       7.693   6.230  16.680  0.00  0.00    +0.000 A 
ATOM     20  C   UNL     1       6.913   5.192  16.164  0.00  0.00    +0.000 A 
ATOM     21  C   UNL     1       6.089   4.462  17.031  0.00  0.00    +0.000 A 
BRANCH  20  22
ATOM     22  C   UNL     1       6.978   4.911  14.703  0.00  0.00    +0.000 C 
ATOM     23  O   UNL     1       7.735   5.493  13.941  0.00  0.00    +0.000 OA
BRANCH  22  24
ATOM     24  O   UNL     1       6.088   3.948  14.348  0.00  0.00    +0.000 OA
ATOM     25  C   UNL     1       6.155   3.568  12.972  0.00  0.00    +0.000 C 
ENDBRANCH  22  24
ENDBRANCH  20  22
ENDBRANCH   6  16
TORSDOF 3
ENDMDL
MODEL 2
REMARK VINA RESULT:      -7.6      4.142      7.199
REMARK  Name = 
REMARK  5 active torsions:
REMARK  status: ('A' for Active; 'I' for Inactive)
REMARK    1  A    between atoms: C_1  and  N_2
REMARK    2  A    between atoms: N_6  and  C_7
REMARK    3  A    between atoms: C_11  and  C_12
REMARK    4  A    between atoms: C_12  and  O_14
REMARK    5  A    between atoms: O_14  and  C_15
REMARK                            x       y       z     vdW  Elec       q    Type
REMARK                         _______ _______ _______ _____ _____    ______ ____
ROOT
ATOM      1  C   UNL     1       0.945   3.844  20.285  0.00  0.00    +0.000 C 
ATOM      2  N   UNL     1       2.252   3.292  19.993  0.00  0.00    +0.000 N 
ATOM      3  C   UNL     1       2.978   3.995  19.040  0.00  0.00    +0.000 A 
ATOM      4  N   UNL     1       2.755   5.312  18.910  0.00  0.00    +0.000 NA
ATOM      5  C   UNL     1       3.428   6.063  18.000  0.00  0.00    +0.000 A 
ATOM      6  N   UNL     1       3.178   7.441  17.887  0.00  0.00    +0.000 N 
ATOM      7  C   UNL     1       4.388   5.402  17.220  0.00  0.00    +0.000 A 
ATOM      8  N   UNL     1       5.258   5.822  16.233  0.00  0.00    +0.000 NA
ATOM      9  C   UNL     1       5.903   4.731  15.867  0.00  0.00    +0.000 A 
ATOM     10  N   UNL     1       5.489   3.633  16.571  0.00  0.00    +0.000 N 
ATOM     11  C   UNL     1       4.521   4.043  17.441  0.00  0.00    +0.000 A 
ATOM     12  N   UNL     1       3.851   3.279  18.314  0.00  0.00    +0.000 NA
ATOM     13  H   UNL     1       2.274   2.315  19.727  0.00  0.00    +0.000 HD
ATOM     14  H   UNL     1       3.853   7.926  17.308  0.00  0.00    +0.000 HD
ATOM     15  H   UNL     1       5.828   2.687  16.481  0.00  0.00    +0.000 HD
ENDROOT
BRANCH   6  16
ATOM     16  C   UNL     1       2.160   8.206  18.482  0.00  0.00    +0.000 A 
ATOM     17  C   UNL     1       1.352   9.021  17.679  0.00  0.00    +0.000 A 
ATOM     18  C   UNL     1       0.397   9.870  18.248  0.00  0.00    +0.000 A 
ATOM     19  C   UNL     1       0.244   9.925  19.634  0.00  0.00    +0.000 A 
ATOM     20  C   UNL     1       1.040   9.126  20.457  0.00  0.00    +0.000 A 
ATOM     21  C   UNL     1       1.983   8.271  19.872  0.00  0.00    +0.000 A 
BRANCH  20  22
ATOM     22  C   UNL     1       0.864   9.226  21.933  0.00  0.00    +0.000 C 
ATOM     23  O   UNL     1       1.796   9.349  22.713  0.00  0.00    +0.000 OA
BRANCH  22  24
ATOM     24  O   UNL     1      -0.447   9.149  22.277  0.00  0.00    +0.000 OA
ATOM     25  C   UNL     1      -0.887  10.197  23.143  0.00  0.00    +0.000 C 
ENDBRANCH  22  24
ENDBRANCH  20  22
ENDBRANCH   6  16
TORSDOF 3
ENDMDL
MODEL 3
REMARK VINA RESULT:      -7.3      3.675      6.869
REMARK  Name = 
REMARK  5 active torsions:
REMARK  status: ('A' for Active; 'I' for Inactive)
REMARK    1  A    between atoms: C_1  and  N_2
REMARK    2  A    between atoms: N_6  and  C_7
REMARK    3  A    between atoms: C_11  and  C_12
REMARK    4  A    between atoms: C_12  and  O_14
REMARK    5  A    between atoms: O_14  and  C_15
REMARK                            x       y       z     vdW  Elec       q    Type
REMARK                         _______ _______ _______ _____ _____    ______ ____
ROOT
ATOM      1  C   UNL     1       7.465   6.085  18.687  0.00  0.00    +0.000 C 
ATOM      2  N   UNL     1       7.732   6.442  17.310  0.00  0.00    +0.000 N 
ATOM      3  C   UNL     1       7.041   5.687  16.371  0.00  0.00    +0.000 A 
ATOM      4  N   UNL     1       5.853   5.167  16.717  0.00  0.00    +0.000 NA
ATOM      5  C   UNL     1       5.122   4.419  15.850  0.00  0.00    +0.000 A 
ATOM      6  N   UNL     1       3.880   3.890  16.238  0.00  0.00    +0.000 N 
ATOM      7  C   UNL     1       5.656   4.237  14.566  0.00  0.00    +0.000 A 
ATOM      8  N   UNL     1       5.207   3.573  13.441  0.00  0.00    +0.000 NA
ATOM      9  C   UNL     1       6.159   3.749  12.545  0.00  0.00    +0.000 A 
ATOM     10  N   UNL     1       7.195   4.494  13.041  0.00  0.00    +0.000 N 
ATOM     11  C   UNL     1       6.890   4.814  14.332  0.00  0.00    +0.000 A 
ATOM     12  N   UNL     1       7.639   5.534  15.178  0.00  0.00    +0.000 NA
ATOM     13  H   UNL     1       8.706   6.450  17.031  0.00  0.00    +0.000 HD
ATOM     14  H   UNL     1       3.349   3.503  15.467  0.00  0.00    +0.000 HD
ATOM     15  H   UNL     1       8.036   4.769  12.556  0.00  0.00    +0.000 HD
ENDROOT
BRANCH   6  16
ATOM     16  C   UNL     1       3.292   3.859  17.514  0.00  0.00    +0.000 A 
ATOM     17  C   UNL     1       2.259   4.755  17.819  0.00  0.00    +0.000 A 
ATOM     18  C   UNL     1       1.721   4.820  19.109  0.00  0.00    +0.000 A 
ATOM     19  C   UNL     1       2.217   3.994  20.118  0.00  0.00    +0.000 A 
ATOM     20  C   UNL     1       3.250   3.095  19.841  0.00  0.00    +0.000 A 
ATOM     21  C   UNL     1       3.770   3.033  18.542  0.00  0.00    +0.000 A 
BRANCH  20  22
ATOM     22  C   UNL     1       3.770   2.245  20.948  0.00  0.00    +0.000 C 
ATOM     23  O   UNL     1       3.167   2.064  21.995  0.00  0.00    +0.000 OA
BRANCH  22  24
ATOM     24  O   UNL     1       4.985   1.724  20.638  0.00  0.00    +0.000 OA
ATOM     25  C   UNL     1       5.550   0.906  21.664  0.00  0.00    +0.000 C 
ENDBRANCH  22  24
ENDBRANCH  20  22
ENDBRANCH   6  16
TORSDOF 3
ENDMDL
MODEL 4
REMARK VINA RESULT:      -7.2      1.204      1.565
REMARK  Name = 
REMARK  5 active torsions:
REMARK  status: ('A' for Active; 'I' for Inactive)
REMARK    1  A    between atoms: C_1  and  N_2
REMARK    2  A    between atoms: N_6  and  C_7
REMARK    3  A    between atoms: C_11  and  C_12
REMARK    4  A    between atoms: C_12  and  O_14
REMARK    5  A    between atoms: O_14  and  C_15
REMARK                            x       y       z     vdW  Elec       q    Type
REMARK                         _______ _______ _______ _____ _____    ______ ____
ROOT
ATOM      1  C   UNL     1       2.929   8.071  17.513  0.00  0.00    +0.000 C 
ATOM      2  N   UNL     1       2.565   7.692  18.862  0.00  0.00    +0.000 N 
ATOM      3  C   UNL     1       2.761   6.349  19.159  0.00  0.00    +0.000 A 
ATOM      4  N   UNL     1       3.727   5.684  18.506  0.00  0.00    +0.000 NA
ATOM      5  C   UNL     1       3.975   4.370  18.746  0.00  0.00    +0.000 A 
ATOM      6  N   UNL     1       4.995   3.699  18.051  0.00  0.00    +0.000 N 
ATOM      7  C   UNL     1       3.191   3.747  19.727  0.00  0.00    +0.000 A 
ATOM      8  N   UNL     1       3.164   2.466  20.244  0.00  0.00    +0.000 NA
ATOM      9  C   UNL     1       2.194   2.484  21.137  0.00  0.00    +0.000 A 
ATOM     10  N   UNL     1       1.599   3.714  21.219  0.00  0.00    +0.000 N 
ATOM     11  C   UNL     1       2.223   4.533  20.324  0.00  0.00    +0.000 A 
ATOM     12  N   UNL     1       1.945   5.822  20.087  0.00  0.00    +0.000 NA
ATOM     13  H   UNL     1       1.624   7.929  19.154  0.00  0.00    +0.000 HD
ATOM     14  H   UNL     1       5.206   2.784  18.430  0.00  0.00    +0.000 HD
ATOM     15  H   UNL     1       0.839   3.986  21.824  0.00  0.00    +0.000 HD
ENDROOT
BRANCH   6  16
ATOM     16  C   UNL     1       5.752   4.139  16.951  0.00  0.00    +0.000 A 
ATOM     17  C   UNL     1       6.672   5.181  17.120  0.00  0.00    +0.000 A 
ATOM     18  C   UNL     1       7.368   5.710  16.028  0.00  0.00    +0.000 A 
ATOM     19  C   UNL     1       7.144   5.210  14.745  0.00  0.00    +0.000 A 
ATOM     20  C   UNL     1       6.228   4.174  14.548  0.00  0.00    +0.000 A 
ATOM     21  C   UNL     1       5.548   3.646  15.653  0.00  0.00    +0.000 A 
BRANCH  20  22
ATOM     22  C   UNL     1       5.998   3.680  13.162  0.00  0.00    +0.000 C 
ATOM     23  O   UNL     1       6.901   3.459  12.370  0.00  0.00    +0.000 OA
BRANCH  22  24
ATOM     24  O   UNL     1       4.673   3.526  12.909  0.00  0.00    +0.000 OA
ATOM     25  C   UNL     1       4.367   3.242  11.542  0.00  0.00    +0.000 C 
ENDBRANCH  22  24
ENDBRANCH  20  22
ENDBRANCH   6  16
TORSDOF 3
ENDMDL
MODEL 5
REMARK VINA RESULT:      -7.1      3.728      6.996
REMARK  Name = 
REMARK  5 active torsions:
REMARK  status: ('A' for Active; 'I' for Inactive)
REMARK    1  A    between atoms: C_1  and  N_2
REMARK    2  A    between atoms: N_6  and  C_7
REMARK    3  A    between atoms: C_11  and  C_12
REMARK    4  A    between atoms: C_12  and  O_14
REMARK    5  A    between atoms: O_14  and  C_15
REMARK                            x       y       z     vdW  Elec       q    Type
REMARK                         _______ _______ _______ _____ _____    ______ ____
ROOT
ATOM      1  C   UNL     1       7.339   6.194  18.403  0.00  0.00    +0.000 C 
ATOM      2  N   UNL     1       7.616   6.539  17.024  0.00  0.00    +0.000 N 
ATOM      3  C   UNL     1       7.008   5.713  16.087  0.00  0.00    +0.000 A 
ATOM      4  N   UNL     1       5.853   5.114  16.416  0.00  0.00    +0.000 NA
ATOM      5  C   UNL     1       5.203   4.293  15.551  0.00  0.00    +0.000 A 
ATOM      6  N   UNL     1       3.993   3.683  15.920  0.00  0.00    +0.000 N 
ATOM      7  C   UNL     1       5.782   4.122  14.285  0.00  0.00    +0.000 A 
ATOM      8  N   UNL     1       5.415   3.401  13.166  0.00  0.00    +0.000 NA
ATOM      9  C   UNL     1       6.374   3.627  12.290  0.00  0.00    +0.000 A 
ATOM     10  N   UNL     1       7.338   4.459  12.793  0.00  0.00    +0.000 N 
ATOM     11  C   UNL     1       6.977   4.785  14.067  0.00  0.00    +0.000 A 
ATOM     12  N   UNL     1       7.647   5.578  14.913  0.00  0.00    +0.000 NA
ATOM     13  H   UNL     1       8.594   6.613  16.770  0.00  0.00    +0.000 HD
ATOM     14  H   UNL     1       3.513   3.240  15.146  0.00  0.00    +0.000 HD
ATOM     15  H   UNL     1       8.169   4.784  12.323  0.00  0.00    +0.000 HD
ENDROOT
BRANCH   6  16
ATOM     16  C   UNL     1       3.375   3.637  17.181  0.00  0.00    +0.000 A 
ATOM     17  C   UNL     1       2.862   2.423  17.654  0.00  0.00    +0.000 A 
ATOM     18  C   UNL     1       2.152   2.362  18.859  0.00  0.00    +0.000 A 
ATOM     19  C   UNL     1       1.936   3.521  19.604  0.00  0.00    +0.000 A 
ATOM     20  C   UNL     1       2.432   4.746  19.152  0.00  0.00    +0.000 A 
ATOM     21  C   UNL     1       3.152   4.789  17.951  0.00  0.00    +0.000 A 
BRANCH  20  22
ATOM     22  C   UNL     1       2.163   5.966  19.963  0.00  0.00    +0.000 C 
ATOM     23  O   UNL     1       1.657   5.936  21.074  0.00  0.00    +0.000 OA
BRANCH  22  24
ATOM     24  O   UNL     1       2.541   7.090  19.299  0.00  0.00    +0.000 OA
ATOM     25  C   UNL     1       1.729   8.232  19.573  0.00  0.00    +0.000 C 
ENDBRANCH  22  24
ENDBRANCH  20  22
ENDBRANCH   6  16
TORSDOF 3
ENDMDL
MODEL 6
REMARK VINA RESULT:      -7.1      1.248      3.016
REMARK  Name = 
REMARK  5 active torsions:
REMARK  status: ('A' for Active; 'I' for Inactive)
REMARK    1  A    between atoms: C_1  and  N_2
REMARK    2  A    between atoms: N_6  and  C_7
REMARK    3  A    between atoms: C_11  and  C_12
REMARK    4  A    between atoms: C_12  and  O_14
REMARK    5  A    between atoms: O_14  and  C_15
REMARK                            x       y       z     vdW  Elec       q    Type
REMARK                         _______ _______ _______ _____ _____    ______ ____
ROOT
ATOM      1  C   UNL     1       3.963   2.191  20.587  0.00  0.00    +0.000 C 
ATOM      2  N   UNL     1       2.663   2.797  20.785  0.00  0.00    +0.000 N 
ATOM      3  C   UNL     1       2.591   4.140  20.438  0.00  0.00    +0.000 A 
ATOM      4  N   UNL     1       3.413   4.598  19.481  0.00  0.00    +0.000 NA
ATOM      5  C   UNL     1       3.398   5.899  19.090  0.00  0.00    +0.000 A 
ATOM      6  N   UNL     1       4.266   6.351  18.082  0.00  0.00    +0.000 N 
ATOM      7  C   UNL     1       2.464   6.737  19.716  0.00  0.00    +0.000 A 
ATOM      8  N   UNL     1       2.148   8.074  19.575  0.00  0.00    +0.000 NA
ATOM      9  C   UNL     1       1.188   8.287  20.454  0.00  0.00    +0.000 A 
ATOM     10  N   UNL     1       0.873   7.152  21.151  0.00  0.00    +0.000 N 
ATOM     11  C   UNL     1       1.678   6.151  20.692  0.00  0.00    +0.000 A 
ATOM     12  N   UNL     1       1.693   4.878  21.110  0.00  0.00    +0.000 NA
ATOM     13  H   UNL     1       2.264   2.705  21.711  0.00  0.00    +0.000 HD
ATOM     14  H   UNL     1       4.049   7.284  17.753  0.00  0.00    +0.000 HD
ATOM     15  H   UNL     1       0.174   7.053  21.872  0.00  0.00    +0.000 HD
ENDROOT
BRANCH   6  16
ATOM     16  C   UNL     1       5.343   5.680  17.477  0.00  0.00    +0.000 A 
ATOM     17  C   UNL     1       6.423   5.260  18.263  0.00  0.00    +0.000 A 
ATOM     18  C   UNL     1       7.555   4.680  17.680  0.00  0.00    +0.000 A 
ATOM     19  C   UNL     1       7.627   4.522  16.295  0.00  0.00    +0.000 A 
ATOM     20  C   UNL     1       6.565   4.937  15.488  0.00  0.00    +0.000 A 
ATOM     21  C   UNL     1       5.433   5.504  16.088  0.00  0.00    +0.000 A 
BRANCH  20  22
ATOM     22  C   UNL     1       6.685   4.772  14.013  0.00  0.00    +0.000 C 
ATOM     23  O   UNL     1       7.550   5.318  13.345  0.00  0.00    +0.000 OA
BRANCH  22  24
ATOM     24  O   UNL     1       5.712   3.958  13.528  0.00  0.00    +0.000 OA
ATOM     25  C   UNL     1       6.078   3.251  12.342  0.00  0.00    +0.000 C 
ENDBRANCH  22  24
ENDBRANCH  20  22
ENDBRANCH   6  16
TORSDOF 3
ENDMDL
MODEL 7
REMARK VINA RESULT:      -7.0      4.064      6.645
REMARK  Name = 
REMARK  5 active torsions:
REMARK  status: ('A' for Active; 'I' for Inactive)
REMARK    1  A    between atoms: C_1  and  N_2
REMARK    2  A    between atoms: N_6  and  C_7
REMARK    3  A    between atoms: C_11  and  C_12
REMARK    4  A    between atoms: C_12  and  O_14
REMARK    5  A    between atoms: O_14  and  C_15
REMARK                            x       y       z     vdW  Elec       q    Type
REMARK                         _______ _______ _______ _____ _____    ______ ____
ROOT
ATOM      1  C   UNL     1       6.395   7.440  17.326  0.00  0.00    +0.000 C 
ATOM      2  N   UNL     1       6.421   5.994  17.249  0.00  0.00    +0.000 N 
ATOM      3  C   UNL     1       5.519   5.354  18.089  0.00  0.00    +0.000 A 
ATOM      4  N   UNL     1       4.387   5.994  18.419  0.00  0.00    +0.000 NA
ATOM      5  C   UNL     1       3.460   5.429  19.235  0.00  0.00    +0.000 A 
ATOM      6  N   UNL     1       2.281   6.120  19.562  0.00  0.00    +0.000 N 
ATOM      7  C   UNL     1       3.729   4.132  19.696  0.00  0.00    +0.000 A 
ATOM      8  N   UNL     1       3.036   3.251  20.504  0.00  0.00    +0.000 NA
ATOM      9  C   UNL     1       3.811   2.188  20.585  0.00  0.00    +0.000 A 
ATOM     10  N   UNL     1       4.967   2.343  19.868  0.00  0.00    +0.000 N 
ATOM     11  C   UNL     1       4.932   3.580  19.294  0.00  0.00    +0.000 A 
ATOM     12  N   UNL     1       5.871   4.128  18.511  0.00  0.00    +0.000 NA
ATOM     13  H   UNL     1       7.324   5.556  17.387  0.00  0.00    +0.000 HD
ATOM     14  H   UNL     1       1.591   5.542  20.026  0.00  0.00    +0.000 HD
ATOM     15  H   UNL     1       5.718   1.676  19.769  0.00  0.00    +0.000 HD
ENDROOT
BRANCH   6  16
ATOM     16  C   UNL     1       1.943   7.459  19.306  0.00  0.00    +0.000 A 
ATOM     17  C   UNL     1       2.258   8.025  18.064  0.00  0.00    +0.000 A 
ATOM     18  C   UNL     1       2.027   9.381  17.811  0.00  0.00    +0.000 A 
ATOM     19  C   UNL     1       1.486  10.197  18.806  0.00  0.00    +0.000 A 
ATOM     20  C   UNL     1       1.167   9.659  20.055  0.00  0.00    +0.000 A 
ATOM     21  C   UNL     1       1.392   8.296  20.288  0.00  0.00    +0.000 A 
BRANCH  20  22
ATOM     22  C   UNL     1       0.611  10.564  21.099  0.00  0.00    +0.000 C 
ATOM     23  O   UNL     1       1.085  11.660  21.359  0.00  0.00    +0.000 OA
BRANCH  22  24
ATOM     24  O   UNL     1      -0.463  10.004  21.713  0.00  0.00    +0.000 OA
ATOM     25  C   UNL     1      -0.269   9.739  23.104  0.00  0.00    +0.000 C 
ENDBRANCH  22  24
ENDBRANCH  20  22
ENDBRANCH   6  16
TORSDOF 3
ENDMDL
MODEL 8
REMARK VINA RESULT:      -7.0      3.674      6.896
REMARK  Name = 
REMARK  5 active torsions:
REMARK  status: ('A' for Active; 'I' for Inactive)
REMARK    1  A    between atoms: C_1  and  N_2
REMARK    2  A    between atoms: N_6  and  C_7
REMARK    3  A    between atoms: C_11  and  C_12
REMARK    4  A    between atoms: C_12  and  O_14
REMARK    5  A    between atoms: O_14  and  C_15
REMARK                            x       y       z     vdW  Elec       q    Type
REMARK                         _______ _______ _______ _____ _____    ______ ____
ROOT
ATOM      1  C   UNL     1       7.718   6.743  18.489  0.00  0.00    +0.000 C 
ATOM      2  N   UNL     1       7.920   6.855  17.060  0.00  0.00    +0.000 N 
ATOM      3  C   UNL     1       7.124   6.010  16.296  0.00  0.00    +0.000 A 
ATOM      4  N   UNL     1       5.930   5.641  16.784  0.00  0.00    +0.000 NA
ATOM      5  C   UNL     1       5.099   4.819  16.092  0.00  0.00    +0.000 A 
ATOM      6  N   UNL     1       3.853   4.451  16.625  0.00  0.00    +0.000 N 
ATOM      7  C   UNL     1       5.538   4.394  14.829  0.00  0.00    +0.000 A 
ATOM      8  N   UNL     1       4.978   3.593  13.853  0.00  0.00    +0.000 NA
ATOM      9  C   UNL     1       5.880   3.553  12.892  0.00  0.00    +0.000 A 
ATOM     10  N   UNL     1       6.991   4.290  13.204  0.00  0.00    +0.000 N 
ATOM     11  C   UNL     1       6.789   4.835  14.439  0.00  0.00    +0.000 A 
ATOM     12  N   UNL     1       7.634   5.625  15.114  0.00  0.00    +0.000 NA
ATOM     13  H   UNL     1       8.872   6.746  16.734  0.00  0.00    +0.000 HD
ATOM     14  H   UNL     1       3.251   3.985  15.956  0.00  0.00    +0.000 HD
ATOM     15  H   UNL     1       7.815   4.422  12.637  0.00  0.00    +0.000 HD
ENDROOT
BRANCH   6  16
ATOM     16  C   UNL     1       3.346   4.668  17.917  0.00  0.00    +0.000 A 
ATOM     17  C   UNL     1       3.142   3.577  18.771  0.00  0.00    +0.000 A 
ATOM     18  C   UNL     1       2.546   3.745  20.025  0.00  0.00    +0.000 A 
ATOM     19  C   UNL     1       2.133   5.011  20.440  0.00  0.00    +0.000 A 
ATOM     20  C   UNL     1       2.319   6.116  19.606  0.00  0.00    +0.000 A 
ATOM     21  C   UNL     1       2.930   5.934  18.358  0.00  0.00    +0.000 A 
BRANCH  20  22
ATOM     22  C   UNL     1       1.846   7.449  20.073  0.00  0.00    +0.000 C 
ATOM     23  O   UNL     1       1.431   7.656  21.203  0.00  0.00    +0.000 OA
BRANCH  22  24
ATOM     24  O   UNL     1       1.930   8.374  19.083  0.00  0.00    +0.000 OA
ATOM     25  C   UNL     1       1.089   9.513  19.274  0.00  0.00    +0.000 C 
ENDBRANCH  22  24
ENDBRANCH  20  22
ENDBRANCH   6  16
TORSDOF 3
ENDMDL
MODEL 9
REMARK VINA RESULT:      -6.9      4.228      7.176
REMARK  Name = 
REMARK  5 active torsions:
REMARK  status: ('A' for Active; 'I' for Inactive)
REMARK    1  A    between atoms: C_1  and  N_2
REMARK    2  A    between atoms: N_6  and  C_7
REMARK    3  A    between atoms: C_11  and  C_12
REMARK    4  A    between atoms: C_12  and  O_14
REMARK    5  A    between atoms: O_14  and  C_15
REMARK                            x       y       z     vdW  Elec       q    Type
REMARK                         _______ _______ _______ _____ _____    ______ ____
ROOT
ATOM      1  C   UNL     1       1.045   4.179  20.377  0.00  0.00    +0.000 C 
ATOM      2  N   UNL     1       2.365   3.726  19.990  0.00  0.00    +0.000 N 
ATOM      3  C   UNL     1       2.988   4.512  19.029  0.00  0.00    +0.000 A 
ATOM      4  N   UNL     1       2.674   5.816  18.966  0.00  0.00    +0.000 NA
ATOM      5  C   UNL     1       3.243   6.644  18.052  0.00  0.00    +0.000 A 
ATOM      6  N   UNL     1       2.899   8.005  18.012  0.00  0.00    +0.000 N 
ATOM      7  C   UNL     1       4.196   6.077  17.193  0.00  0.00    +0.000 A 
ATOM      8  N   UNL     1       4.978   6.592  16.177  0.00  0.00    +0.000 NA
ATOM      9  C   UNL     1       5.669   5.561  15.730  0.00  0.00    +0.000 A 
ATOM     10  N   UNL     1       5.368   4.412  16.410  0.00  0.00    +0.000 N 
ATOM     11  C   UNL     1       4.428   4.723  17.349  0.00  0.00    +0.000 A 
ATOM     12  N   UNL     1       3.861   3.883  18.225  0.00  0.00    +0.000 NA
ATOM     13  H   UNL     1       2.434   2.764  19.682  0.00  0.00    +0.000 HD
ATOM     14  H   UNL     1       3.506   8.556  17.417  0.00  0.00    +0.000 HD
ATOM     15  H   UNL     1       5.761   3.494  16.262  0.00  0.00    +0.000 HD
ENDROOT
BRANCH   6  16
ATOM     16  C   UNL     1       1.871   8.677  18.694  0.00  0.00    +0.000 A 
ATOM     17  C   UNL     1       1.704   8.469  20.069  0.00  0.00    +0.000 A 
ATOM     18  C   UNL     1       0.630   9.042  20.758  0.00  0.00    +0.000 A 
ATOM     19  C   UNL     1      -0.302   9.826  20.078  0.00  0.00    +0.000 A 
ATOM     20  C   UNL     1      -0.162  10.045  18.705  0.00  0.00    +0.000 A 
ATOM     21  C   UNL     1       0.926   9.475  18.031  0.00  0.00    +0.000 A 
BRANCH  20  22
ATOM     22  C   UNL     1      -1.188  10.869  18.007  0.00  0.00    +0.000 C 
ATOM     23  O   UNL     1      -1.363  12.057  18.234  0.00  0.00    +0.000 OA
BRANCH  22  24
ATOM     24  O   UNL     1      -1.890  10.125  17.114  0.00  0.00    +0.000 OA
ATOM     25  C   UNL     1      -3.182   9.724  17.575  0.00  0.00    +0.000 C 
ENDBRANCH  22  24
ENDBRANCH  20  22
ENDBRANCH   6  16
TORSDOF 3
ENDMDL
