MODEL 1
REMARK VINA RESULT:      -6.6      0.000      0.000
REMARK  Name = 
REMARK  1 active torsions:
REMARK  status: ('A' for Active; 'I' for Inactive)
REMARK    1  A    between atoms: C_7  and  C_8
REMARK                            x       y       z     vdW  Elec       q    Type
REMARK                         _______ _______ _______ _____ _____    ______ ____
ROOT
ATOM      1 CL   UNL     1       8.113   5.339  13.184  0.00  0.00    +0.000 Cl
ATOM      2  C   UNL     1       6.990   4.941  14.423  0.00  0.00    +0.000 A 
ATOM      3  C   UNL     1       5.866   4.182  14.124  0.00  0.00    +0.000 A 
ATOM      4  C   UNL     1       4.957   3.862  15.140  0.00  0.00    +0.000 A 
ATOM      5  C   UNL     1       5.145   4.287  16.451  0.00  0.00    +0.000 A 
ATOM      6  N   UNL     1       4.243   3.960  17.393  0.00  0.00    +0.000 NA
ATOM      7  C   UNL     1       4.433   4.409  18.659  0.00  0.00    +0.000 A 
ATOM      8  C   UNL     1       5.542   5.161  19.026  0.00  0.00    +0.000 A 
ATOM      9  C   UNL     1       6.481   5.488  18.053  0.00  0.00    +0.000 A 
ATOM     10  C   UNL     1       6.291   5.058  16.738  0.00  0.00    +0.000 A 
ATOM     11  C   UNL     1       7.210   5.381  15.724  0.00  0.00    +0.000 A 
ENDROOT
BRANCH   7  12
ATOM     12  C   UNL     1       3.375   4.025  19.608  0.00  0.00    +0.000 A 
ATOM     13  C   UNL     1       2.239   4.734  19.965  0.00  0.00    +0.000 A 
ATOM     14  C   UNL     1       1.440   4.055  20.932  0.00  0.00    +0.000 A 
ATOM     15  C   UNL     1       1.995   2.853  21.303  0.00  0.00    +0.000 A 
ATOM     16  S   UNL     1       3.463   2.548  20.486  0.00  0.00    +0.000 S 
ENDBRANCH   7  12
TORSDOF 1
ENDMDL
MODEL 2
REMARK VINA RESULT:      -6.5      0.816      1.048
REMARK  Name = 
REMARK  1 active torsions:
REMARK  status: ('A' for Active; 'I' for Inactive)
REMARK    1  A    between atoms: C_7  and  C_8
REMARK                            x       y       z     vdW  Elec       q    Type
REMARK                         _______ _______ _______ _____ _____    ______ ____
ROOT
ATOM      1 CL   UNL     1       7.999   5.312  13.158  0.00  0.00    +0.000 Cl
ATOM      2  C   UNL     1       6.909   4.882  14.416  0.00  0.00    +0.000 A 
ATOM      3  C   UNL     1       5.718   4.235  14.113  0.00  0.00    +0.000 A 
ATOM      4  C   UNL     1       4.837   3.889  15.145  0.00  0.00    +0.000 A 
ATOM      5  C   UNL     1       5.118   4.179  16.476  0.00  0.00    +0.000 A 
ATOM      6  N   UNL     1       4.239   3.831  17.432  0.00  0.00    +0.000 NA
ATOM      7  C   UNL     1       4.522   4.149  18.721  0.00  0.00    +0.000 A 
ATOM      8  C   UNL     1       5.701   4.785  19.092  0.00  0.00    +0.000 A 
ATOM      9  C   UNL     1       6.614   5.132  18.102  0.00  0.00    +0.000 A 
ATOM     10  C   UNL     1       6.331   4.838  16.766  0.00  0.00    +0.000 A 
ATOM     11  C   UNL     1       7.222   5.186  15.737  0.00  0.00    +0.000 A 
ENDROOT
BRANCH   7  12
ATOM     12  C   UNL     1       3.484   3.756  19.689  0.00  0.00    +0.000 A 
ATOM     13  C   UNL     1       3.521   2.736  20.626  0.00  0.00    +0.000 A 
ATOM     14  C   UNL     1       2.321   2.637  21.388  0.00  0.00    +0.000 A 
ATOM     15  C   UNL     1       1.389   3.572  21.003  0.00  0.00    +0.000 A 
ATOM     16  S   UNL     1       1.965   4.562  19.736  0.00  0.00    +0.000 S 
ENDBRANCH   7  12
TORSDOF 1
ENDMDL
MODEL 3
REMARK VINA RESULT:      -6.4      5.688      7.895
REMARK  Name = 
REMARK  1 active torsions:
REMARK  status: ('A' for Active; 'I' for Inactive)
REMARK    1  A    between atoms: C_7  and  C_8
REMARK                            x       y       z     vdW  Elec       q    Type
REMARK                         _______ _______ _______ _____ _____    ______ ____
ROOT
ATOM      1 CL   UNL     1      -1.188  11.765  22.684  0.00  0.00    +0.000 Cl
ATOM      2  C   UNL     1      -0.253  10.575  21.868  0.00  0.00    +0.000 A 
ATOM      3  C   UNL     1       0.283   9.507  22.577  0.00  0.00    +0.000 A 
ATOM      4  C   UNL     1       1.043   8.542  21.904  0.00  0.00    +0.000 A 
ATOM      5  C   UNL     1       1.283   8.623  20.536  0.00  0.00    +0.000 A 
ATOM      6  N   UNL     1       2.023   7.675  19.934  0.00  0.00    +0.000 NA
ATOM      7  C   UNL     1       2.267   7.789  18.604  0.00  0.00    +0.000 A 
ATOM      8  C   UNL     1       1.750   8.825  17.836  0.00  0.00    +0.000 A 
ATOM      9  C   UNL     1       0.974   9.797  18.459  0.00  0.00    +0.000 A 
ATOM     10  C   UNL     1       0.733   9.714  19.832  0.00  0.00    +0.000 A 
ATOM     11  C   UNL     1      -0.034  10.685  20.499  0.00  0.00    +0.000 A 
ENDROOT
BRANCH   7  12
ATOM     12  C   UNL     1       3.113   6.722  18.045  0.00  0.00    +0.000 A 
ATOM     13  C   UNL     1       4.293   6.843  17.328  0.00  0.00    +0.000 A 
ATOM     14  C   UNL     1       4.834   5.586  16.931  0.00  0.00    +0.000 A 
ATOM     15  C   UNL     1       4.045   4.536  17.336  0.00  0.00    +0.000 A 
ATOM     16  S   UNL     1       2.668   5.067  18.194  0.00  0.00    +0.000 S 
ENDBRANCH   7  12
TORSDOF 1
ENDMDL
MODEL 4
REMARK VINA RESULT:      -6.3      1.107      1.160
REMARK  Name = 
REMARK  1 active torsions:
REMARK  status: ('A' for Active; 'I' for Inactive)
REMARK    1  A    between atoms: C_7  and  C_8
REMARK                            x       y       z     vdW  Elec       q    Type
REMARK                         _______ _______ _______ _____ _____    ______ ____
ROOT
ATOM      1 CL   UNL     1       8.344   5.505  13.137  0.00  0.00    +0.000 Cl
ATOM      2  C   UNL     1       7.096   5.045  14.226  0.00  0.00    +0.000 A 
ATOM      3  C   UNL     1       6.232   4.009  13.895  0.00  0.00    +0.000 A 
ATOM      4  C   UNL     1       5.218   3.640  14.788  0.00  0.00    +0.000 A 
ATOM      5  C   UNL     1       5.047   4.288  16.007  0.00  0.00    +0.000 A 
ATOM      6  N   UNL     1       4.057   3.902  16.831  0.00  0.00    +0.000 NA
ATOM      7  C   UNL     1       3.892   4.566  18.004  0.00  0.00    +0.000 A 
ATOM      8  C   UNL     1       4.729   5.602  18.399  0.00  0.00    +0.000 A 
ATOM      9  C   UNL     1       5.761   5.990  17.551  0.00  0.00    +0.000 A 
ATOM     10  C   UNL     1       5.933   5.338  16.328  0.00  0.00    +0.000 A 
ATOM     11  C   UNL     1       6.954   5.712  15.438  0.00  0.00    +0.000 A 
ENDROOT
BRANCH   7  12
ATOM     12  C   UNL     1       2.762   4.092  18.820  0.00  0.00    +0.000 A 
ATOM     13  C   UNL     1       1.755   3.207  18.467  0.00  0.00    +0.000 A 
ATOM     14  C   UNL     1       0.814   2.989  19.515  0.00  0.00    +0.000 A 
ATOM     15  C   UNL     1       1.114   3.726  20.636  0.00  0.00    +0.000 A 
ATOM     16  S   UNL     1       2.523   4.666  20.424  0.00  0.00    +0.000 S 
ENDBRANCH   7  12
TORSDOF 1
ENDMDL
MODEL 5
REMARK VINA RESULT:      -6.3      3.545      6.242
REMARK  Name = 
REMARK  1 active torsions:
REMARK  status: ('A' for Active; 'I' for Inactive)
REMARK    1  A    between atoms: C_7  and  C_8
REMARK                            x       y       z     vdW  Elec       q    Type
REMARK                         _______ _______ _______ _____ _____    ______ ____
ROOT
ATOM      1 CL   UNL     1       1.105   2.637  21.927  0.00  0.00    +0.000 Cl
ATOM      2  C   UNL     1       1.983   2.872  20.468  0.00  0.00    +0.000 A 
ATOM      3  C   UNL     1       1.714   2.078  19.360  0.00  0.00    +0.000 A 
ATOM      4  C   UNL     1       2.434   2.276  18.175  0.00  0.00    +0.000 A 
ATOM      5  C   UNL     1       3.422   3.250  18.074  0.00  0.00    +0.000 A 
ATOM      6  N   UNL     1       4.091   3.400  16.917  0.00  0.00    +0.000 NA
ATOM      7  C   UNL     1       5.069   4.339  16.850  0.00  0.00    +0.000 A 
ATOM      8  C   UNL     1       5.378   5.172  17.917  0.00  0.00    +0.000 A 
ATOM      9  C   UNL     1       4.677   5.023  19.108  0.00  0.00    +0.000 A 
ATOM     10  C   UNL     1       3.684   4.047  19.208  0.00  0.00    +0.000 A 
ATOM     11  C   UNL     1       2.963   3.856  20.400  0.00  0.00    +0.000 A 
ENDROOT
BRANCH   7  12
ATOM     12  C   UNL     1       5.764   4.404  15.553  0.00  0.00    +0.000 A 
ATOM     13  C   UNL     1       5.388   3.841  14.344  0.00  0.00    +0.000 A 
ATOM     14  C   UNL     1       6.318   4.100  13.296  0.00  0.00    +0.000 A 
ATOM     15  C   UNL     1       7.392   4.839  13.734  0.00  0.00    +0.000 A 
ATOM     16  S   UNL     1       7.270   5.219  15.394  0.00  0.00    +0.000 S 
ENDBRANCH   7  12
TORSDOF 1
ENDMDL
MODEL 6
REMARK VINA RESULT:      -6.3      5.048      6.064
REMARK  Name = 
REMARK  1 active torsions:
REMARK  status: ('A' for Active; 'I' for Inactive)
REMARK    1  A    between atoms: C_7  and  C_8
REMARK                            x       y       z     vdW  Elec       q    Type
REMARK                         _______ _______ _______ _____ _____    ______ ____
ROOT
ATOM      1 CL   UNL     1       4.856   4.783  16.496  0.00  0.00    +0.000 Cl
ATOM      2  C   UNL     1       3.929   5.681  17.632  0.00  0.00    +0.000 A 
ATOM      3  C   UNL     1       3.649   5.143  18.881  0.00  0.00    +0.000 A 
ATOM      4  C   UNL     1       2.893   5.881  19.800  0.00  0.00    +0.000 A 
ATOM      5  C   UNL     1       2.406   7.148  19.496  0.00  0.00    +0.000 A 
ATOM      6  N   UNL     1       1.681   7.818  20.408  0.00  0.00    +0.000 NA
ATOM      7  C   UNL     1       1.193   9.042  20.079  0.00  0.00    +0.000 A 
ATOM      8  C   UNL     1       1.447   9.641  18.851  0.00  0.00    +0.000 A 
ATOM      9  C   UNL     1       2.208   8.951  17.914  0.00  0.00    +0.000 A 
ATOM     10  C   UNL     1       2.698   7.680  18.222  0.00  0.00    +0.000 A 
ATOM     11  C   UNL     1       3.459   6.946  17.296  0.00  0.00    +0.000 A 
ENDROOT
BRANCH   7  12
ATOM     12  C   UNL     1       0.385   9.680  21.131  0.00  0.00    +0.000 A 
ATOM     13  C   UNL     1       0.048   9.182  22.380  0.00  0.00    +0.000 A 
ATOM     14  C   UNL     1      -0.766  10.077  23.134  0.00  0.00    +0.000 A 
ATOM     15  C   UNL     1      -1.047  11.228  22.436  0.00  0.00    +0.000 A 
ATOM     16  S   UNL     1      -0.327  11.227  20.888  0.00  0.00    +0.000 S 
ENDBRANCH   7  12
TORSDOF 1
ENDMDL
MODEL 7
REMARK VINA RESULT:      -6.3      5.564      7.649
REMARK  Name = 
REMARK  1 active torsions:
REMARK  status: ('A' for Active; 'I' for Inactive)
REMARK    1  A    between atoms: C_7  and  C_8
REMARK                            x       y       z     vdW  Elec       q    Type
REMARK                         _______ _______ _______ _____ _____    ______ ____
ROOT
ATOM      1 CL   UNL     1      -0.870  11.791  22.366  0.00  0.00    +0.000 Cl
ATOM      2  C   UNL     1       0.004  10.523  21.602  0.00  0.00    +0.000 A 
ATOM      3  C   UNL     1       0.375   9.398  22.328  0.00  0.00    +0.000 A 
ATOM      4  C   UNL     1       1.087   8.371  21.697  0.00  0.00    +0.000 A 
ATOM      5  C   UNL     1       1.441   8.444  20.354  0.00  0.00    +0.000 A 
ATOM      6  N   UNL     1       2.129   7.435  19.792  0.00  0.00    +0.000 NA
ATOM      7  C   UNL     1       2.487   7.541  18.487  0.00  0.00    +0.000 A 
ATOM      8  C   UNL     1       2.138   8.633  17.703  0.00  0.00    +0.000 A 
ATOM      9  C   UNL     1       1.415   9.669  18.283  0.00  0.00    +0.000 A 
ATOM     10  C   UNL     1       1.058   9.594  19.631  0.00  0.00    +0.000 A 
ATOM     11  C   UNL     1       0.341  10.628  20.256  0.00  0.00    +0.000 A 
ENDROOT
BRANCH   7  12
ATOM     12  C   UNL     1       3.265   6.401  17.973  0.00  0.00    +0.000 A 
ATOM     13  C   UNL     1       2.949   5.052  18.015  0.00  0.00    +0.000 A 
ATOM     14  C   UNL     1       3.953   4.227  17.429  0.00  0.00    +0.000 A 
ATOM     15  C   UNL     1       5.020   4.963  16.971  0.00  0.00    +0.000 A 
ATOM     16  S   UNL     1       4.805   6.635  17.242  0.00  0.00    +0.000 S 
ENDBRANCH   7  12
TORSDOF 1
ENDMDL
MODEL 8
REMARK VINA RESULT:      -6.3      4.687      6.272
REMARK  Name = 
REMARK  1 active torsions:
REMARK  status: ('A' for Active; 'I' for Inactive)
REMARK    1  A    between atoms: C_7  and  C_8
REMARK                            x       y       z     vdW  Elec       q    Type
REMARK                         _______ _______ _______ _____ _____    ______ ____
ROOT
ATOM      1 CL   UNL     1       0.587  12.495  18.734  0.00  0.00    +0.000 Cl
ATOM      2  C   UNL     1       0.944  10.878  19.197  0.00  0.00    +0.000 A 
ATOM      3  C   UNL     1       0.598  10.426  20.464  0.00  0.00    +0.000 A 
ATOM      4  C   UNL     1       0.892   9.108  20.833  0.00  0.00    +0.000 A 
ATOM      5  C   UNL     1       1.529   8.229  19.962  0.00  0.00    +0.000 A 
ATOM      6  N   UNL     1       1.795   6.973  20.361  0.00  0.00    +0.000 NA
ATOM      7  C   UNL     1       2.441   6.142  19.504  0.00  0.00    +0.000 A 
ATOM      8  C   UNL     1       2.804   6.529  18.220  0.00  0.00    +0.000 A 
ATOM      9  C   UNL     1       2.516   7.824  17.805  0.00  0.00    +0.000 A 
ATOM     10  C   UNL     1       1.874   8.705  18.679  0.00  0.00    +0.000 A 
ATOM     11  C   UNL     1       1.580  10.026  18.301  0.00  0.00    +0.000 A 
ENDROOT
BRANCH   7  12
ATOM     12  C   UNL     1       2.716   4.801  20.046  0.00  0.00    +0.000 A 
ATOM     13  C   UNL     1       2.127   4.172  21.131  0.00  0.00    +0.000 A 
ATOM     14  C   UNL     1       2.657   2.872  21.375  0.00  0.00    +0.000 A 
ATOM     15  C   UNL     1       3.651   2.546  20.483  0.00  0.00    +0.000 A 
ATOM     16  S   UNL     1       3.934   3.799  19.359  0.00  0.00    +0.000 S 
ENDBRANCH   7  12
TORSDOF 1
ENDMDL
MODEL 9
REMARK VINA RESULT:      -6.2      5.258      6.315
REMARK  Name = 
REMARK  1 active torsions:
REMARK  status: ('A' for Active; 'I' for Inactive)
REMARK    1  A    between atoms: C_7  and  C_8
REMARK                            x       y       z     vdW  Elec       q    Type
REMARK                         _______ _______ _______ _____ _____    ______ ____
ROOT
ATOM      1 CL   UNL     1       4.732   4.976  16.731  0.00  0.00    +0.000 Cl
ATOM      2  C   UNL     1       3.773   5.918  17.803  0.00  0.00    +0.000 A 
ATOM      3  C   UNL     1       3.464   5.432  19.067  0.00  0.00    +0.000 A 
ATOM      4  C   UNL     1       2.682   6.207  19.934  0.00  0.00    +0.000 A 
ATOM      5  C   UNL     1       2.198   7.457  19.563  0.00  0.00    +0.000 A 
ATOM      6  N   UNL     1       1.447   8.163  20.427  0.00  0.00    +0.000 NA
ATOM      7  C   UNL     1       0.964   9.368  20.033  0.00  0.00    +0.000 A 
ATOM      8  C   UNL     1       1.246   9.915  18.787  0.00  0.00    +0.000 A 
ATOM      9  C   UNL     1       2.034   9.189  17.900  0.00  0.00    +0.000 A 
ATOM     10  C   UNL     1       2.520   7.935  18.275  0.00  0.00    +0.000 A 
ATOM     11  C   UNL     1       3.307   7.165  17.401  0.00  0.00    +0.000 A 
ENDROOT
BRANCH   7  12
ATOM     12  C   UNL     1       0.127  10.047  21.036  0.00  0.00    +0.000 A 
ATOM     13  C   UNL     1      -0.558  11.247  20.918  0.00  0.00    +0.000 A 
ATOM     14  C   UNL     1      -1.258  11.606  22.106  0.00  0.00    +0.000 A 
ATOM     15  C   UNL     1      -1.076  10.683  23.109  0.00  0.00    +0.000 A 
ATOM     16  S   UNL     1      -0.074   9.392  22.614  0.00  0.00    +0.000 S 
ENDBRANCH   7  12
TORSDOF 1
ENDMDL
