MODEL 1
REMARK VINA RESULT:      -7.3      0.000      0.000
REMARK  Name = 
REMARK  5 active torsions:
REMARK  status: ('A' for Active; 'I' for Inactive)
REMARK    1  A    between atoms: C_1  and  C_2
REMARK    2  A    between atoms: C_2  and  C_3
REMARK    3  A    between atoms: C_3  and  C_4
REMARK    4  A    between atoms: C_7  and  N_8
REMARK    5  A    between atoms: N_14  and  C_15
REMARK                            x       y       z     vdW  Elec       q    Type
REMARK                         _______ _______ _______ _____ _____    ______ ____
ROOT
ATOM      1  N   UNL     1       2.153   7.702  19.155  0.00  0.00    +0.000 N 
ATOM      2  C   UNL     1       1.683   8.905  18.672  0.00  0.00    +0.000 C 
ATOM      3  O   UNL     1       1.739   9.257  17.495  0.00  0.00    +0.000 OA
ATOM      4  N   UNL     1       1.057   9.705  19.608  0.00  0.00    +0.000 N 
ATOM      5  C   UNL     1       0.381  10.926  19.131  0.00  0.00    +0.000 C 
ATOM      6  C   UNL     1      -0.937  11.167  19.891  0.00  0.00    +0.000 C 
ATOM      7  N   UNL     1      -0.623  11.161  21.323  0.00  0.00    +0.000 N 
ATOM      8  C   UNL     1      -0.034   9.917  21.821  0.00  0.00    +0.000 C 
ATOM      9  C   UNL     1       1.279   9.666  21.062  0.00  0.00    +0.000 C 
ATOM     10  H   UNL     1       1.783   7.399  20.040  0.00  0.00    +0.000 HD
ENDROOT
BRANCH   7  11
ATOM     11  C   UNL     1      -1.189  12.092  22.159  0.00  0.00    +0.000 A 
ATOM     12  N   UNL     1      -2.383  11.769  22.722  0.00  0.00    +0.000 NA
ATOM     13  C   UNL     1      -2.983  12.668  23.534  0.00  0.00    +0.000 A 
ATOM     14  C   UNL     1      -2.458  13.911  23.827  0.00  0.00    +0.000 A 
ATOM     15  C   UNL     1      -1.254  14.262  23.241  0.00  0.00    +0.000 A 
ATOM     16  C   UNL     1      -0.614  13.358  22.391  0.00  0.00    +0.000 A 
ATOM     17 CL   UNL     1       0.800  13.948  21.578  0.00  0.00    +0.000 Cl
ENDBRANCH   7  11
BRANCH   1  21
ATOM     18  C   UNL     1       4.226   4.757  16.937  0.00  0.00    +0.000 A 
ATOM     19  C   UNL     1       3.020   4.445  17.571  0.00  0.00    +0.000 A 
ATOM     20  C   UNL     1       2.310   5.414  18.274  0.00  0.00    +0.000 A 
ATOM     21  C   UNL     1       2.810   6.713  18.399  0.00  0.00    +0.000 A 
ATOM     22  C   UNL     1       4.000   7.043  17.749  0.00  0.00    +0.000 A 
ATOM     23  C   UNL     1       4.712   6.070  17.033  0.00  0.00    +0.000 A 
BRANCH  18  24
ATOM     24  C   UNL     1       5.005   3.693  16.202  0.00  0.00    +0.000 C 
BRANCH  24  26
ATOM     25  C   UNL     1       6.119   4.070  13.963  0.00  0.00    +0.000 C 
ATOM     26  C   UNL     1       6.222   4.265  15.468  0.00  0.00    +0.000 C 
ENDBRANCH  24  26
ENDBRANCH  18  24
ENDBRANCH   1  21
TORSDOF 4
ENDMDL
MODEL 2
REMARK VINA RESULT:      -7.2      1.618      2.313
REMARK  Name = 
REMARK  5 active torsions:
REMARK  status: ('A' for Active; 'I' for Inactive)
REMARK    1  A    between atoms: C_1  and  C_2
REMARK    2  A    between atoms: C_2  and  C_3
REMARK    3  A    between atoms: C_3  and  C_4
REMARK    4  A    between atoms: C_7  and  N_8
REMARK    5  A    between atoms: N_14  and  C_15
REMARK                            x       y       z     vdW  Elec       q    Type
REMARK                         _______ _______ _______ _____ _____    ______ ____
ROOT
ATOM      1  N   UNL     1       2.859   7.601  18.183  0.00  0.00    +0.000 N 
ATOM      2  C   UNL     1       2.206   7.432  19.384  0.00  0.00    +0.000 C 
ATOM      3  O   UNL     1       2.305   6.439  20.103  0.00  0.00    +0.000 OA
ATOM      4  N   UNL     1       1.448   8.512  19.793  0.00  0.00    +0.000 N 
ATOM      5  C   UNL     1       0.859   8.471  21.145  0.00  0.00    +0.000 C 
ATOM      6  C   UNL     1       0.914   9.854  21.820  0.00  0.00    +0.000 C 
ATOM      7  N   UNL     1       0.282  10.812  20.906  0.00  0.00    +0.000 N 
ATOM      8  C   UNL     1       0.918  10.923  19.593  0.00  0.00    +0.000 C 
ATOM      9  C   UNL     1       0.873   9.544  18.915  0.00  0.00    +0.000 C 
ATOM     10  H   UNL     1       2.948   8.546  17.849  0.00  0.00    +0.000 HD
ENDROOT
BRANCH   7  11
ATOM     11  C   UNL     1      -0.574  11.769  21.392  0.00  0.00    +0.000 A 
ATOM     12  N   UNL     1      -0.330  12.236  22.644  0.00  0.00    +0.000 NA
ATOM     13  C   UNL     1      -1.164  13.163  23.166  0.00  0.00    +0.000 A 
ATOM     14  C   UNL     1      -2.265  13.668  22.504  0.00  0.00    +0.000 A 
ATOM     15  C   UNL     1      -2.538  13.184  21.236  0.00  0.00    +0.000 A 
ATOM     16  C   UNL     1      -1.700  12.220  20.673  0.00  0.00    +0.000 A 
ATOM     17 CL   UNL     1      -2.215  11.557  19.155  0.00  0.00    +0.000 Cl
ENDBRANCH   7  11
BRANCH   1  21
ATOM     18  C   UNL     1       5.292   4.713  16.275  0.00  0.00    +0.000 A 
ATOM     19  C   UNL     1       5.628   6.069  16.218  0.00  0.00    +0.000 A 
ATOM     20  C   UNL     1       4.856   7.025  16.871  0.00  0.00    +0.000 A 
ATOM     21  C   UNL     1       3.700   6.655  17.564  0.00  0.00    +0.000 A 
ATOM     22  C   UNL     1       3.368   5.302  17.650  0.00  0.00    +0.000 A 
ATOM     23  C   UNL     1       4.150   4.337  16.999  0.00  0.00    +0.000 A 
BRANCH  18  24
ATOM     24  C   UNL     1       6.117   3.685  15.539  0.00  0.00    +0.000 C 
BRANCH  24  26
ATOM     25  C   UNL     1       5.913   3.642  13.019  0.00  0.00    +0.000 C 
ATOM     26  C   UNL     1       6.662   4.220  14.210  0.00  0.00    +0.000 C 
ENDBRANCH  24  26
ENDBRANCH  18  24
ENDBRANCH   1  21
TORSDOF 4
ENDMDL
MODEL 3
REMARK VINA RESULT:      -7.2      0.301      1.008
REMARK  Name = 
REMARK  5 active torsions:
REMARK  status: ('A' for Active; 'I' for Inactive)
REMARK    1  A    between atoms: C_1  and  C_2
REMARK    2  A    between atoms: C_2  and  C_3
REMARK    3  A    between atoms: C_3  and  C_4
REMARK    4  A    between atoms: C_7  and  N_8
REMARK    5  A    between atoms: N_14  and  C_15
REMARK                            x       y       z     vdW  Elec       q    Type
REMARK                         _______ _______ _______ _____ _____    ______ ____
ROOT
ATOM      1  N   UNL     1       2.068   7.843  19.409  0.00  0.00    +0.000 N 
ATOM      2  C   UNL     1       1.580   9.035  18.918  0.00  0.00    +0.000 C 
ATOM      3  O   UNL     1       1.635   9.383  17.740  0.00  0.00    +0.000 OA
ATOM      4  N   UNL     1       0.936   9.828  19.848  0.00  0.00    +0.000 N 
ATOM      5  C   UNL     1       0.241  11.036  19.363  0.00  0.00    +0.000 C 
ATOM      6  C   UNL     1      -1.084  11.257  20.116  0.00  0.00    +0.000 C 
ATOM      7  N   UNL     1      -0.776  11.262  21.550  0.00  0.00    +0.000 N 
ATOM      8  C   UNL     1      -0.168  10.031  22.056  0.00  0.00    +0.000 C 
ATOM      9  C   UNL     1       1.152   9.799  21.303  0.00  0.00    +0.000 C 
ATOM     10  H   UNL     1       1.699   7.537  20.293  0.00  0.00    +0.000 HD
ENDROOT
BRANCH   7  11
ATOM     11  C   UNL     1      -1.361  12.187  22.380  0.00  0.00    +0.000 A 
ATOM     12  N   UNL     1      -2.560  11.853  22.925  0.00  0.00    +0.000 NA
ATOM     13  C   UNL     1      -3.179  12.746  23.730  0.00  0.00    +0.000 A 
ATOM     14  C   UNL     1      -2.668  13.993  24.033  0.00  0.00    +0.000 A 
ATOM     15  C   UNL     1      -1.458  14.354  23.465  0.00  0.00    +0.000 A 
ATOM     16  C   UNL     1      -0.799  13.457  22.623  0.00  0.00    +0.000 A 
ATOM     17 CL   UNL     1       0.621  14.060  21.831  0.00  0.00    +0.000 Cl
ENDBRANCH   7  11
BRANCH   1  21
ATOM     18  C   UNL     1       4.004   4.870  17.103  0.00  0.00    +0.000 A 
ATOM     19  C   UNL     1       4.548   6.154  17.203  0.00  0.00    +0.000 A 
ATOM     20  C   UNL     1       3.941   7.130  17.986  0.00  0.00    +0.000 A 
ATOM     21  C   UNL     1       2.745   6.862  18.659  0.00  0.00    +0.000 A 
ATOM     22  C   UNL     1       2.205   5.577  18.588  0.00  0.00    +0.000 A 
ATOM     23  C   UNL     1       2.821   4.590  17.806  0.00  0.00    +0.000 A 
BRANCH  18  24
ATOM     24  C   UNL     1       4.653   3.826  16.228  0.00  0.00    +0.000 C 
BRANCH  24  26
ATOM     25  C   UNL     1       5.977   4.122  14.095  0.00  0.00    +0.000 C 
ATOM     26  C   UNL     1       5.961   4.322  15.602  0.00  0.00    +0.000 C 
ENDBRANCH  24  26
ENDBRANCH  18  24
ENDBRANCH   1  21
TORSDOF 4
ENDMDL
MODEL 4
REMARK VINA RESULT:      -7.0      1.408      1.786
REMARK  Name = 
REMARK  5 active torsions:
REMARK  status: ('A' for Active; 'I' for Inactive)
REMARK    1  A    between atoms: C_1  and  C_2
REMARK    2  A    between atoms: C_2  and  C_3
REMARK    3  A    between atoms: C_3  and  C_4
REMARK    4  A    between atoms: C_7  and  N_8
REMARK    5  A    between atoms: N_14  and  C_15
REMARK                            x       y       z     vdW  Elec       q    Type
REMARK                         _______ _______ _______ _____ _____    ______ ____
ROOT
ATOM      1  N   UNL     1       2.452   7.434  18.602  0.00  0.00    +0.000 N 
ATOM      2  C   UNL     1       2.147   8.704  18.163  0.00  0.00    +0.000 C 
ATOM      3  O   UNL     1       2.526   9.188  17.098  0.00  0.00    +0.000 OA
ATOM      4  N   UNL     1       1.300   9.419  18.988  0.00  0.00    +0.000 N 
ATOM      5  C   UNL     1       0.795  10.717  18.502  0.00  0.00    +0.000 C 
ATOM      6  C   UNL     1      -0.676  10.928  18.904  0.00  0.00    +0.000 C 
ATOM      7  N   UNL     1      -0.765  10.742  20.356  0.00  0.00    +0.000 N 
ATOM      8  C   UNL     1      -0.350   9.423  20.836  0.00  0.00    +0.000 C 
ATOM      9  C   UNL     1       1.117   9.201  20.432  0.00  0.00    +0.000 C 
ATOM     10  H   UNL     1       1.851   7.047  19.310  0.00  0.00    +0.000 HD
ENDROOT
BRANCH   7  11
ATOM     11  C   UNL     1      -1.524  11.595  21.118  0.00  0.00    +0.000 A 
ATOM     12  N   UNL     1      -2.131  12.624  20.470  0.00  0.00    +0.000 NA
ATOM     13  C   UNL     1      -2.871  13.498  21.189  0.00  0.00    +0.000 A 
ATOM     14  C   UNL     1      -3.046  13.417  22.557  0.00  0.00    +0.000 A 
ATOM     15  C   UNL     1      -2.413  12.386  23.231  0.00  0.00    +0.000 A 
ATOM     16  C   UNL     1      -1.637  11.472  22.518  0.00  0.00    +0.000 A 
ATOM     17 CL   UNL     1      -0.754  10.320  23.467  0.00  0.00    +0.000 Cl
ENDBRANCH   7  11
BRANCH   1  21
ATOM     18  C   UNL     1       4.841   4.621  16.533  0.00  0.00    +0.000 A 
ATOM     19  C   UNL     1       5.249   5.955  16.636  0.00  0.00    +0.000 A 
ATOM     20  C   UNL     1       4.490   6.881  17.344  0.00  0.00    +0.000 A 
ATOM     21  C   UNL     1       3.278   6.510  17.933  0.00  0.00    +0.000 A 
ATOM     22  C   UNL     1       2.873   5.176  17.859  0.00  0.00    +0.000 A 
ATOM     23  C   UNL     1       3.641   4.239  17.153  0.00  0.00    +0.000 A 
BRANCH  18  24
ATOM     24  C   UNL     1       5.655   3.629  15.738  0.00  0.00    +0.000 C 
BRANCH  24  26
ATOM     25  C   UNL     1       5.995   3.711  13.234  0.00  0.00    +0.000 C 
ATOM     26  C   UNL     1       6.408   4.290  14.579  0.00  0.00    +0.000 C 
ENDBRANCH  24  26
ENDBRANCH  18  24
ENDBRANCH   1  21
TORSDOF 4
ENDMDL
MODEL 5
REMARK VINA RESULT:      -7.0      1.362      2.062
REMARK  Name = 
REMARK  5 active torsions:
REMARK  status: ('A' for Active; 'I' for Inactive)
REMARK    1  A    between atoms: C_1  and  C_2
REMARK    2  A    between atoms: C_2  and  C_3
REMARK    3  A    between atoms: C_3  and  C_4
REMARK    4  A    between atoms: C_7  and  N_8
REMARK    5  A    between atoms: N_14  and  C_15
REMARK                            x       y       z     vdW  Elec       q    Type
REMARK                         _______ _______ _______ _____ _____    ______ ____
ROOT
ATOM      1  N   UNL     1       2.881   7.447  18.355  0.00  0.00    +0.000 N 
ATOM      2  C   UNL     1       2.281   7.203  19.571  0.00  0.00    +0.000 C 
ATOM      3  O   UNL     1       2.396   6.161  20.214  0.00  0.00    +0.000 OA
ATOM      4  N   UNL     1       1.563   8.263  20.090  0.00  0.00    +0.000 N 
ATOM      5  C   UNL     1       1.037   8.135  21.463  0.00  0.00    +0.000 C 
ATOM      6  C   UNL     1       1.148   9.467  22.229  0.00  0.00    +0.000 C 
ATOM      7  N   UNL     1       0.492  10.496  21.415  0.00  0.00    +0.000 N 
ATOM      8  C   UNL     1       1.068  10.690  20.083  0.00  0.00    +0.000 C 
ATOM      9  C   UNL     1       0.967   9.363  19.314  0.00  0.00    +0.000 C 
ATOM     10  H   UNL     1       2.972   8.411  18.085  0.00  0.00    +0.000 HD
ENDROOT
BRANCH   7  11
ATOM     11  C   UNL     1      -0.324  11.429  22.006  0.00  0.00    +0.000 A 
ATOM     12  N   UNL     1      -1.426  10.964  22.649  0.00  0.00    +0.000 NA
ATOM     13  C   UNL     1      -2.267  11.853  23.225  0.00  0.00    +0.000 A 
ATOM     14  C   UNL     1      -2.078  13.221  23.196  0.00  0.00    +0.000 A 
ATOM     15  C   UNL     1      -0.970  13.709  22.523  0.00  0.00    +0.000 A 
ATOM     16  C   UNL     1      -0.089  12.816  21.912  0.00  0.00    +0.000 A 
ATOM     17 CL   UNL     1       1.173  13.526  20.957  0.00  0.00    +0.000 Cl
ENDBRANCH   7  11
BRANCH   1  21
ATOM     18  C   UNL     1       5.170   4.662  16.140  0.00  0.00    +0.000 A 
ATOM     19  C   UNL     1       5.510   6.018  16.136  0.00  0.00    +0.000 A 
ATOM     20  C   UNL     1       4.787   6.938  16.889  0.00  0.00    +0.000 A 
ATOM     21  C   UNL     1       3.675   6.535  17.633  0.00  0.00    +0.000 A 
ATOM     22  C   UNL     1       3.341   5.180  17.666  0.00  0.00    +0.000 A 
ATOM     23  C   UNL     1       4.074   4.250  16.914  0.00  0.00    +0.000 A 
BRANCH  18  24
ATOM     24  C   UNL     1       5.941   3.675  15.298  0.00  0.00    +0.000 C 
BRANCH  24  26
ATOM     25  C   UNL     1       5.925   3.460  12.779  0.00  0.00    +0.000 C 
ATOM     26  C   UNL     1       6.402   4.280  13.967  0.00  0.00    +0.000 C 
ENDBRANCH  24  26
ENDBRANCH  18  24
ENDBRANCH   1  21
TORSDOF 4
ENDMDL
MODEL 6
REMARK VINA RESULT:      -7.0      1.577      1.940
REMARK  Name = 
REMARK  5 active torsions:
REMARK  status: ('A' for Active; 'I' for Inactive)
REMARK    1  A    between atoms: C_1  and  C_2
REMARK    2  A    between atoms: C_2  and  C_3
REMARK    3  A    between atoms: C_3  and  C_4
REMARK    4  A    between atoms: C_7  and  N_8
REMARK    5  A    between atoms: N_14  and  C_15
REMARK                            x       y       z     vdW  Elec       q    Type
REMARK                         _______ _______ _______ _____ _____    ______ ____
ROOT
ATOM      1  N   UNL     1       2.554   7.770  18.421  0.00  0.00    +0.000 N 
ATOM      2  C   UNL     1       1.893   7.624  19.621  0.00  0.00    +0.000 C 
ATOM      3  O   UNL     1       1.958   6.629  20.342  0.00  0.00    +0.000 OA
ATOM      4  N   UNL     1       1.170   8.729  20.027  0.00  0.00    +0.000 N 
ATOM      5  C   UNL     1       0.577   8.708  21.378  0.00  0.00    +0.000 C 
ATOM      6  C   UNL     1       0.675  10.091  22.051  0.00  0.00    +0.000 C 
ATOM      7  N   UNL     1       0.076  11.067  21.134  0.00  0.00    +0.000 N 
ATOM      8  C   UNL     1       0.718  11.156  19.822  0.00  0.00    +0.000 C 
ATOM      9  C   UNL     1       0.631   9.777  19.146  0.00  0.00    +0.000 C 
ATOM     10  H   UNL     1       2.674   8.710  18.087  0.00  0.00    +0.000 HD
ENDROOT
BRANCH   7  11
ATOM     11  C   UNL     1      -0.750  12.052  21.616  0.00  0.00    +0.000 A 
ATOM     12  N   UNL     1      -0.492  12.513  22.868  0.00  0.00    +0.000 NA
ATOM     13  C   UNL     1      -1.297  13.468  23.387  0.00  0.00    +0.000 A 
ATOM     14  C   UNL     1      -2.380  14.007  22.722  0.00  0.00    +0.000 A 
ATOM     15  C   UNL     1      -2.667  13.528  21.454  0.00  0.00    +0.000 A 
ATOM     16  C   UNL     1      -1.860  12.537  20.895  0.00  0.00    +0.000 A 
ATOM     17 CL   UNL     1      -2.394  11.886  19.378  0.00  0.00    +0.000 Cl
ENDBRANCH   7  11
BRANCH   1  21
ATOM     18  C   UNL     1       5.081   4.890  16.627  0.00  0.00    +0.000 A 
ATOM     19  C   UNL     1       3.900   4.496  17.263  0.00  0.00    +0.000 A 
ATOM     20  C   UNL     1       3.043   5.436  17.825  0.00  0.00    +0.000 A 
ATOM     21  C   UNL     1       3.365   6.796  17.806  0.00  0.00    +0.000 A 
ATOM     22  C   UNL     1       4.528   7.205  17.152  0.00  0.00    +0.000 A 
ATOM     23  C   UNL     1       5.389   6.259  16.578  0.00  0.00    +0.000 A 
BRANCH  18  24
ATOM     24  C   UNL     1       6.021   3.862  16.046  0.00  0.00    +0.000 C 
BRANCH  24  26
ATOM     25  C   UNL     1       6.033   3.832  13.517  0.00  0.00    +0.000 C 
ATOM     26  C   UNL     1       6.712   4.360  14.772  0.00  0.00    +0.000 C 
ENDBRANCH  24  26
ENDBRANCH  18  24
ENDBRANCH   1  21
TORSDOF 4
ENDMDL
MODEL 7
REMARK VINA RESULT:      -7.0      1.291      1.684
REMARK  Name = 
REMARK  5 active torsions:
REMARK  status: ('A' for Active; 'I' for Inactive)
REMARK    1  A    between atoms: C_1  and  C_2
REMARK    2  A    between atoms: C_2  and  C_3
REMARK    3  A    between atoms: C_3  and  C_4
REMARK    4  A    between atoms: C_7  and  N_8
REMARK    5  A    between atoms: N_14  and  C_15
REMARK                            x       y       z     vdW  Elec       q    Type
REMARK                         _______ _______ _______ _____ _____    ______ ____
ROOT
ATOM      1  N   UNL     1       2.653   7.534  18.470  0.00  0.00    +0.000 N 
ATOM      2  C   UNL     1       2.091   7.337  19.713  0.00  0.00    +0.000 C 
ATOM      3  O   UNL     1       2.224   6.318  20.389  0.00  0.00    +0.000 OA
ATOM      4  N   UNL     1       1.392   8.417  20.215  0.00  0.00    +0.000 N 
ATOM      5  C   UNL     1       0.909   8.340  21.607  0.00  0.00    +0.000 C 
ATOM      6  C   UNL     1       1.046   9.699  22.321  0.00  0.00    +0.000 C 
ATOM      7  N   UNL     1       0.367  10.699  21.491  0.00  0.00    +0.000 N 
ATOM      8  C   UNL     1       0.901  10.844  20.136  0.00  0.00    +0.000 C 
ATOM      9  C   UNL     1       0.774   9.489  19.419  0.00  0.00    +0.000 C 
ATOM     10  H   UNL     1       2.737   8.488  18.162  0.00  0.00    +0.000 HD
ENDROOT
BRANCH   7  11
ATOM     11  C   UNL     1      -0.428  11.656  22.073  0.00  0.00    +0.000 A 
ATOM     12  N   UNL     1      -1.579  11.228  22.656  0.00  0.00    +0.000 NA
ATOM     13  C   UNL     1      -2.399  12.143  23.220  0.00  0.00    +0.000 A 
ATOM     14  C   UNL     1      -2.144  13.500  23.238  0.00  0.00    +0.000 A 
ATOM     15  C   UNL     1      -0.985  13.950  22.628  0.00  0.00    +0.000 A 
ATOM     16  C   UNL     1      -0.122  13.032  22.029  0.00  0.00    +0.000 A 
ATOM     17 CL   UNL     1       1.213  13.703  21.149  0.00  0.00    +0.000 Cl
ENDBRANCH   7  11
BRANCH   1  21
ATOM     18  C   UNL     1       5.058   4.754  16.376  0.00  0.00    +0.000 A 
ATOM     19  C   UNL     1       3.939   4.321  17.093  0.00  0.00    +0.000 A 
ATOM     20  C   UNL     1       3.120   5.229  17.756  0.00  0.00    +0.000 A 
ATOM     21  C   UNL     1       3.422   6.594  17.758  0.00  0.00    +0.000 A 
ATOM     22  C   UNL     1       4.522   7.042  17.024  0.00  0.00    +0.000 A 
ATOM     23  C   UNL     1       5.344   6.129  16.348  0.00  0.00    +0.000 A 
BRANCH  18  24
ATOM     24  C   UNL     1       5.959   3.760  15.684  0.00  0.00    +0.000 C 
BRANCH  24  26
ATOM     25  C   UNL     1       6.058   3.718  13.158  0.00  0.00    +0.000 C 
ATOM     26  C   UNL     1       6.614   4.345  14.427  0.00  0.00    +0.000 C 
ENDBRANCH  24  26
ENDBRANCH  18  24
ENDBRANCH   1  21
TORSDOF 4
ENDMDL
MODEL 8
REMARK VINA RESULT:      -6.9      1.286      1.396
REMARK  Name = 
REMARK  5 active torsions:
REMARK  status: ('A' for Active; 'I' for Inactive)
REMARK    1  A    between atoms: C_1  and  C_2
REMARK    2  A    between atoms: C_2  and  C_3
REMARK    3  A    between atoms: C_3  and  C_4
REMARK    4  A    between atoms: C_7  and  N_8
REMARK    5  A    between atoms: N_14  and  C_15
REMARK                            x       y       z     vdW  Elec       q    Type
REMARK                         _______ _______ _______ _____ _____    ______ ____
ROOT
ATOM      1  N   UNL     1       2.114   7.736  18.870  0.00  0.00    +0.000 N 
ATOM      2  C   UNL     1       1.821   8.988  18.373  0.00  0.00    +0.000 C 
ATOM      3  O   UNL     1       2.117   9.382  17.246  0.00  0.00    +0.000 OA
ATOM      4  N   UNL     1       1.085   9.794  19.220  0.00  0.00    +0.000 N 
ATOM      5  C   UNL     1       0.589  11.079  18.692  0.00  0.00    +0.000 C 
ATOM      6  C   UNL     1      -0.828  11.386  19.211  0.00  0.00    +0.000 C 
ATOM      7  N   UNL     1      -0.787  11.299  20.674  0.00  0.00    +0.000 N 
ATOM      8  C   UNL     1      -0.382   9.997  21.205  0.00  0.00    +0.000 C 
ATOM      9  C   UNL     1       1.030   9.680  20.686  0.00  0.00    +0.000 C 
ATOM     10  H   UNL     1       1.567   7.426  19.655  0.00  0.00    +0.000 HD
ENDROOT
BRANCH   7  11
ATOM     11  C   UNL     1      -1.437  12.235  21.441  0.00  0.00    +0.000 A 
ATOM     12  N   UNL     1      -0.841  12.596  22.608  0.00  0.00    +0.000 NA
ATOM     13  C   UNL     1      -1.460  13.499  23.401  0.00  0.00    +0.000 A 
ATOM     14  C   UNL     1      -2.676  14.080  23.102  0.00  0.00    +0.000 A 
ATOM     15  C   UNL     1      -3.304  13.704  21.927  0.00  0.00    +0.000 A 
ATOM     16  C   UNL     1      -2.694  12.768  21.091  0.00  0.00    +0.000 A 
ATOM     17 CL   UNL     1      -3.630  12.238  19.731  0.00  0.00    +0.000 Cl
ENDBRANCH   7  11
BRANCH   1  21
ATOM     18  C   UNL     1       4.374   4.750  16.901  0.00  0.00    +0.000 A 
ATOM     19  C   UNL     1       3.137   4.438  17.474  0.00  0.00    +0.000 A 
ATOM     20  C   UNL     1       2.368   5.418  18.092  0.00  0.00    +0.000 A 
ATOM     21  C   UNL     1       2.835   6.732  18.195  0.00  0.00    +0.000 A 
ATOM     22  C   UNL     1       4.056   7.062  17.605  0.00  0.00    +0.000 A 
ATOM     23  C   UNL     1       4.828   6.076  16.974  0.00  0.00    +0.000 A 
BRANCH  18  24
ATOM     24  C   UNL     1       5.216   3.675  16.258  0.00  0.00    +0.000 C 
BRANCH  24  26
ATOM     25  C   UNL     1       5.917   4.002  13.851  0.00  0.00    +0.000 C 
ATOM     26  C   UNL     1       6.271   4.253  15.308  0.00  0.00    +0.000 C 
ENDBRANCH  24  26
ENDBRANCH  18  24
ENDBRANCH   1  21
TORSDOF 4
ENDMDL
MODEL 9
REMARK VINA RESULT:      -6.7      2.079      2.300
REMARK  Name = 
REMARK  5 active torsions:
REMARK  status: ('A' for Active; 'I' for Inactive)
REMARK    1  A    between atoms: C_1  and  C_2
REMARK    2  A    between atoms: C_2  and  C_3
REMARK    3  A    between atoms: C_3  and  C_4
REMARK    4  A    between atoms: C_7  and  N_8
REMARK    5  A    between atoms: N_14  and  C_15
REMARK                            x       y       z     vdW  Elec       q    Type
REMARK                         _______ _______ _______ _____ _____    ______ ____
ROOT
ATOM      1  N   UNL     1       1.566   7.122  21.096  0.00  0.00    +0.000 N 
ATOM      2  C   UNL     1       1.416   8.295  20.389  0.00  0.00    +0.000 C 
ATOM      3  O   UNL     1       1.761   8.458  19.220  0.00  0.00    +0.000 OA
ATOM      4  N   UNL     1       0.767   9.307  21.069  0.00  0.00    +0.000 N 
ATOM      5  C   UNL     1       0.420  10.530  20.321  0.00  0.00    +0.000 C 
ATOM      6  C   UNL     1      -0.959  11.071  20.745  0.00  0.00    +0.000 C 
ATOM      7  N   UNL     1      -0.937  11.230  22.203  0.00  0.00    +0.000 N 
ATOM      8  C   UNL     1      -0.682  10.001  22.955  0.00  0.00    +0.000 C 
ATOM      9  C   UNL     1       0.690   9.451  22.532  0.00  0.00    +0.000 C 
ATOM     10  H   UNL     1       0.983   7.010  21.908  0.00  0.00    +0.000 HD
ENDROOT
BRANCH   7  11
ATOM     11  C   UNL     1      -1.485  12.347  22.784  0.00  0.00    +0.000 A 
ATOM     12  N   UNL     1      -2.709  12.205  23.357  0.00  0.00    +0.000 NA
ATOM     13  C   UNL     1      -3.292  13.287  23.921  0.00  0.00    +0.000 A 
ATOM     14  C   UNL     1      -2.720  14.543  23.947  0.00  0.00    +0.000 A 
ATOM     15  C   UNL     1      -1.483  14.706  23.347  0.00  0.00    +0.000 A 
ATOM     16  C   UNL     1      -0.859  13.610  22.749  0.00  0.00    +0.000 A 
ATOM     17 CL   UNL     1       0.604  13.947  21.882  0.00  0.00    +0.000 Cl
ENDBRANCH   7  11
BRANCH   1  21
ATOM     18  C   UNL     1       3.502   3.630  19.696  0.00  0.00    +0.000 A 
ATOM     19  C   UNL     1       2.350   3.533  20.482  0.00  0.00    +0.000 A 
ATOM     20  C   UNL     1       1.683   4.673  20.918  0.00  0.00    +0.000 A 
ATOM     21  C   UNL     1       2.176   5.946  20.618  0.00  0.00    +0.000 A 
ATOM     22  C   UNL     1       3.311   6.057  19.813  0.00  0.00    +0.000 A 
ATOM     23  C   UNL     1       3.979   4.908  19.365  0.00  0.00    +0.000 A 
BRANCH  18  24
ATOM     24  C   UNL     1       4.236   2.389  19.251  0.00  0.00    +0.000 C 
BRANCH  24  26
ATOM     25  C   UNL     1       2.644   2.299  17.289  0.00  0.00    +0.000 C 
ATOM     26  C   UNL     1       3.375   1.494  18.352  0.00  0.00    +0.000 C 
ENDBRANCH  24  26
ENDBRANCH  18  24
ENDBRANCH   1  21
TORSDOF 4
ENDMDL
