MODEL 1
REMARK VINA RESULT:      -7.6      0.000      0.000
REMARK  Name = 
REMARK  12 active torsions:
REMARK  status: ('A' for Active; 'I' for Inactive)
REMARK    1  A    between atoms: C_1  and  C_2
REMARK    2  A    between atoms: C_2  and  O_3
REMARK    3  A    between atoms: O_3  and  C_4
REMARK    4  A    between atoms: C_4  and  C_6
REMARK    5  A    between atoms: C_8  and  O_9
REMARK    6  A    between atoms: O_9  and  C_10
REMARK    7  A    between atoms: C_11  and  O_12
REMARK    8  A    between atoms: O_12  and  C_13
REMARK    9  A    between atoms: C_15  and  N_16
REMARK   10  A    between atoms: C_17  and  C_19
REMARK   11  A    between atoms: C_22  and  O_23
REMARK   12  A    between atoms: C_24  and  N_25
REMARK                            x       y       z     vdW  Elec       q    Type
REMARK                         _______ _______ _______ _____ _____    ______ ____
ROOT
ATOM      1  C   UNL     1       3.152   4.928  17.880  0.00  0.00    +0.000 A 
ATOM      2  C   UNL     1       4.025   4.204  17.045  0.00  0.00    +0.000 A 
ATOM      3  C   UNL     1       5.271   4.714  16.652  0.00  0.00    +0.000 A 
ATOM      4  C   UNL     1       5.655   5.987  17.080  0.00  0.00    +0.000 A 
ATOM      5  C   UNL     1       4.804   6.684  17.947  0.00  0.00    +0.000 A 
ATOM      6  C   UNL     1       3.545   6.201  18.344  0.00  0.00    +0.000 A 
ENDROOT
BRANCH   6   7
ATOM      7  N   UNL     1       2.723   6.998  19.200  0.00  0.00    +0.000 N 
ATOM      8  C   UNL     1       2.024   8.129  18.811  0.00  0.00    +0.000 C 
ATOM      9  O   UNL     1       1.924   8.550  17.658  0.00  0.00    +0.000 OA
ATOM     10  H   UNL     1       2.493   6.588  20.103  0.00  0.00    +0.000 HD
BRANCH   8  11
ATOM     11  C   UNL     1       1.279   8.887  19.852  0.00  0.00    +0.000 A 
ATOM     12  C   UNL     1       1.349   8.394  21.167  0.00  0.00    +0.000 A 
ATOM     13  C   UNL     1       0.621   8.992  22.190  0.00  0.00    +0.000 A 
ATOM     14  C   UNL     1      -0.195  10.074  21.888  0.00  0.00    +0.000 A 
ATOM     15  C   UNL     1      -0.326  10.548  20.570  0.00  0.00    +0.000 A 
ATOM     16  C   UNL     1       0.450   9.974  19.554  0.00  0.00    +0.000 A 
BRANCH  15  17
ATOM     17  N   UNL     1      -1.087  11.706  20.320  0.00  0.00    +0.000 N 
ATOM     18  H   UNL     1      -1.605  11.965  21.162  0.00  0.00    +0.000 HD
ATOM     19  H   UNL     1      -1.683  11.642  19.503  0.00  0.00    +0.000 HD
ENDBRANCH  15  17
BRANCH  14  20
ATOM     20  O   UNL     1      -0.933  10.681  22.871  0.00  0.00    +0.000 OA
ATOM     21  H   UNL     1      -0.406  11.405  23.246  0.00  0.00    +0.000 HD
ENDBRANCH  14  20
ENDBRANCH   8  11
ENDBRANCH   6   7
BRANCH   1  22
ATOM     22  C   UNL     1       1.815   4.292  18.089  0.00  0.00    +0.000 C 
ATOM     23  O   UNL     1       1.055   3.992  17.176  0.00  0.00    +0.000 OA
BRANCH  22  24
ATOM     24  O   UNL     1       1.517   4.225  19.411  0.00  0.00    +0.000 OA
BRANCH  24  26
ATOM     25  C   UNL     1       1.493   2.877  21.379  0.00  0.00    +0.000 C 
ATOM     26  C   UNL     1       1.190   2.912  19.890  0.00  0.00    +0.000 C 
ENDBRANCH  24  26
ENDBRANCH  22  24
ENDBRANCH   1  22
BRANCH   3  27
ATOM     27  O   UNL     1       5.965   3.881  15.814  0.00  0.00    +0.000 OA
ATOM     28  C   UNL     1       5.820   4.125  14.420  0.00  0.00    +0.000 C 
ENDBRANCH   3  27
BRANCH   4  29
ATOM     29  O   UNL     1       6.833   6.507  16.613  0.00  0.00    +0.000 OA
ATOM     30  C   UNL     1       7.517   7.452  17.430  0.00  0.00    +0.000 C 
ENDBRANCH   4  29
TORSDOF 9
ENDMDL
MODEL 2
REMARK VINA RESULT:      -7.5      0.875      1.286
REMARK  Name = 
REMARK  12 active torsions:
REMARK  status: ('A' for Active; 'I' for Inactive)
REMARK    1  A    between atoms: C_1  and  C_2
REMARK    2  A    between atoms: C_2  and  O_3
REMARK    3  A    between atoms: O_3  and  C_4
REMARK    4  A    between atoms: C_4  and  C_6
REMARK    5  A    between atoms: C_8  and  O_9
REMARK    6  A    between atoms: O_9  and  C_10
REMARK    7  A    between atoms: C_11  and  O_12
REMARK    8  A    between atoms: O_12  and  C_13
REMARK    9  A    between atoms: C_15  and  N_16
REMARK   10  A    between atoms: C_17  and  C_19
REMARK   11  A    between atoms: C_22  and  O_23
REMARK   12  A    between atoms: C_24  and  N_25
REMARK                            x       y       z     vdW  Elec       q    Type
REMARK                         _______ _______ _______ _____ _____    ______ ____
ROOT
ATOM      1  C   UNL     1       3.060   5.040  17.869  0.00  0.00    +0.000 A 
ATOM      2  C   UNL     1       3.991   4.285  17.128  0.00  0.00    +0.000 A 
ATOM      3  C   UNL     1       5.227   4.812  16.729  0.00  0.00    +0.000 A 
ATOM      4  C   UNL     1       5.544   6.134  17.053  0.00  0.00    +0.000 A 
ATOM      5  C   UNL     1       4.636   6.867  17.827  0.00  0.00    +0.000 A 
ATOM      6  C   UNL     1       3.385   6.365  18.228  0.00  0.00    +0.000 A 
ENDROOT
BRANCH   6   7
ATOM      7  N   UNL     1       2.501   7.198  18.983  0.00  0.00    +0.000 N 
ATOM      8  C   UNL     1       1.982   8.409  18.556  0.00  0.00    +0.000 C 
ATOM      9  O   UNL     1       2.119   8.891  17.431  0.00  0.00    +0.000 OA
ATOM     10  H   UNL     1       2.085   6.770  19.808  0.00  0.00    +0.000 HD
BRANCH   8  11
ATOM     11  C   UNL     1       1.139   9.186  19.503  0.00  0.00    +0.000 A 
ATOM     12  C   UNL     1       0.773  10.484  19.107  0.00  0.00    +0.000 A 
ATOM     13  C   UNL     1       0.052  11.311  19.962  0.00  0.00    +0.000 A 
ATOM     14  C   UNL     1      -0.284  10.841  21.224  0.00  0.00    +0.000 A 
ATOM     15  C   UNL     1       0.121   9.568  21.664  0.00  0.00    +0.000 A 
ATOM     16  C   UNL     1       0.802   8.721  20.779  0.00  0.00    +0.000 A 
BRANCH  15  17
ATOM     17  N   UNL     1      -0.321   9.090  22.912  0.00  0.00    +0.000 N 
ATOM     18  H   UNL     1      -0.853   9.820  23.391  0.00  0.00    +0.000 HD
ATOM     19  H   UNL     1       0.415   8.704  23.493  0.00  0.00    +0.000 HD
ENDBRANCH  15  17
BRANCH  14  20
ATOM     20  O   UNL     1      -0.986  11.634  22.095  0.00  0.00    +0.000 OA
ATOM     21  H   UNL     1      -0.928  12.552  21.786  0.00  0.00    +0.000 HD
ENDBRANCH  14  20
ENDBRANCH   8  11
ENDBRANCH   6   7
BRANCH   1  22
ATOM     22  C   UNL     1       1.744   4.367  18.093  0.00  0.00    +0.000 C 
ATOM     23  O   UNL     1       0.989   4.034  17.188  0.00  0.00    +0.000 OA
BRANCH  22  24
ATOM     24  O   UNL     1       1.457   4.306  19.418  0.00  0.00    +0.000 OA
BRANCH  24  26
ATOM     25  C   UNL     1       1.643   2.983  21.393  0.00  0.00    +0.000 C 
ATOM     26  C   UNL     1       1.242   2.982  19.928  0.00  0.00    +0.000 C 
ENDBRANCH  24  26
ENDBRANCH  22  24
ENDBRANCH   1  22
BRANCH   3  27
ATOM     27  O   UNL     1       5.983   3.940  15.991  0.00  0.00    +0.000 OA
ATOM     28  C   UNL     1       5.852   4.032  14.577  0.00  0.00    +0.000 C 
ENDBRANCH   3  27
BRANCH   4  29
ATOM     29  O   UNL     1       6.714   6.662  16.576  0.00  0.00    +0.000 OA
ATOM     30  C   UNL     1       7.524   7.410  17.477  0.00  0.00    +0.000 C 
ENDBRANCH   4  29
TORSDOF 9
ENDMDL
MODEL 3
REMARK VINA RESULT:      -6.9      1.243      1.685
REMARK  Name = 
REMARK  12 active torsions:
REMARK  status: ('A' for Active; 'I' for Inactive)
REMARK    1  A    between atoms: C_1  and  C_2
REMARK    2  A    between atoms: C_2  and  O_3
REMARK    3  A    between atoms: O_3  and  C_4
REMARK    4  A    between atoms: C_4  and  C_6
REMARK    5  A    between atoms: C_8  and  O_9
REMARK    6  A    between atoms: O_9  and  C_10
REMARK    7  A    between atoms: C_11  and  O_12
REMARK    8  A    between atoms: O_12  and  C_13
REMARK    9  A    between atoms: C_15  and  N_16
REMARK   10  A    between atoms: C_17  and  C_19
REMARK   11  A    between atoms: C_22  and  O_23
REMARK   12  A    between atoms: C_24  and  N_25
REMARK                            x       y       z     vdW  Elec       q    Type
REMARK                         _______ _______ _______ _____ _____    ______ ____
ROOT
ATOM      1  C   UNL     1       3.329   5.203  17.899  0.00  0.00    +0.000 A 
ATOM      2  C   UNL     1       4.335   4.523  17.184  0.00  0.00    +0.000 A 
ATOM      3  C   UNL     1       5.503   5.167  16.751  0.00  0.00    +0.000 A 
ATOM      4  C   UNL     1       5.671   6.529  17.013  0.00  0.00    +0.000 A 
ATOM      5  C   UNL     1       4.690   7.190  17.763  0.00  0.00    +0.000 A 
ATOM      6  C   UNL     1       3.505   6.570  18.197  0.00  0.00    +0.000 A 
ENDROOT
BRANCH   6   7
ATOM      7  N   UNL     1       2.538   7.332  18.923  0.00  0.00    +0.000 N 
ATOM      8  C   UNL     1       1.983   8.530  18.503  0.00  0.00    +0.000 C 
ATOM      9  O   UNL     1       2.160   9.057  17.404  0.00  0.00    +0.000 OA
ATOM     10  H   UNL     1       2.096   6.856  19.708  0.00  0.00    +0.000 HD
BRANCH   8  11
ATOM     11  C   UNL     1       1.047   9.231  19.422  0.00  0.00    +0.000 A 
ATOM     12  C   UNL     1       0.503  10.445  18.967  0.00  0.00    +0.000 A 
ATOM     13  C   UNL     1      -0.320  11.209  19.788  0.00  0.00    +0.000 A 
ATOM     14  C   UNL     1      -0.579  10.762  21.078  0.00  0.00    +0.000 A 
ATOM     15  C   UNL     1       0.000   9.581  21.575  0.00  0.00    +0.000 A 
ATOM     16  C   UNL     1       0.786   8.791  20.724  0.00  0.00    +0.000 A 
BRANCH  15  17
ATOM     17  N   UNL     1      -0.363   9.112  22.851  0.00  0.00    +0.000 N 
ATOM     18  H   UNL     1       0.028   8.179  22.999  0.00  0.00    +0.000 HD
ATOM     19  H   UNL     1      -1.358   9.149  23.040  0.00  0.00    +0.000 HD
ENDBRANCH  15  17
BRANCH  14  20
ATOM     20  O   UNL     1      -1.378  11.495  21.917  0.00  0.00    +0.000 OA
ATOM     21  H   UNL     1      -1.944  10.881  22.412  0.00  0.00    +0.000 HD
ENDBRANCH  14  20
ENDBRANCH   8  11
ENDBRANCH   6   7
BRANCH   1  22
ATOM     22  C   UNL     1       2.098   4.398  18.165  0.00  0.00    +0.000 C 
ATOM     23  O   UNL     1       1.288   4.664  19.045  0.00  0.00    +0.000 OA
BRANCH  22  24
ATOM     24  O   UNL     1       2.081   3.279  17.398  0.00  0.00    +0.000 OA
BRANCH  24  26
ATOM     25  C   UNL     1       3.290   1.535  18.489  0.00  0.00    +0.000 C 
ATOM     26  C   UNL     1       1.909   2.052  18.122  0.00  0.00    +0.000 C 
ENDBRANCH  24  26
ENDBRANCH  22  24
ENDBRANCH   1  22
BRANCH   3  27
ATOM     27  O   UNL     1       6.349   4.352  16.044  0.00  0.00    +0.000 OA
ATOM     28  C   UNL     1       6.068   4.204  14.657  0.00  0.00    +0.000 C 
ENDBRANCH   3  27
BRANCH   4  29
ATOM     29  O   UNL     1       6.773   7.162  16.503  0.00  0.00    +0.000 OA
ATOM     30  C   UNL     1       7.670   7.782  17.418  0.00  0.00    +0.000 C 
ENDBRANCH   4  29
TORSDOF 9
ENDMDL
MODEL 4
REMARK VINA RESULT:      -6.8      2.342      3.139
REMARK  Name = 
REMARK  12 active torsions:
REMARK  status: ('A' for Active; 'I' for Inactive)
REMARK    1  A    between atoms: C_1  and  C_2
REMARK    2  A    between atoms: C_2  and  O_3
REMARK    3  A    between atoms: O_3  and  C_4
REMARK    4  A    between atoms: C_4  and  C_6
REMARK    5  A    between atoms: C_8  and  O_9
REMARK    6  A    between atoms: O_9  and  C_10
REMARK    7  A    between atoms: C_11  and  O_12
REMARK    8  A    between atoms: O_12  and  C_13
REMARK    9  A    between atoms: C_15  and  N_16
REMARK   10  A    between atoms: C_17  and  C_19
REMARK   11  A    between atoms: C_22  and  O_23
REMARK   12  A    between atoms: C_24  and  N_25
REMARK                            x       y       z     vdW  Elec       q    Type
REMARK                         _______ _______ _______ _____ _____    ______ ____
ROOT
ATOM      1  C   UNL     1       2.895   6.537  19.325  0.00  0.00    +0.000 A 
ATOM      2  C   UNL     1       4.084   5.782  19.345  0.00  0.00    +0.000 A 
ATOM      3  C   UNL     1       5.017   5.838  18.300  0.00  0.00    +0.000 A 
ATOM      4  C   UNL     1       4.756   6.646  17.190  0.00  0.00    +0.000 A 
ATOM      5  C   UNL     1       3.594   7.429  17.195  0.00  0.00    +0.000 A 
ATOM      6  C   UNL     1       2.637   7.381  18.224  0.00  0.00    +0.000 A 
ENDROOT
BRANCH   6   7
ATOM      7  N   UNL     1       1.459   8.184  18.128  0.00  0.00    +0.000 N 
ATOM      8  C   UNL     1       1.429   9.568  18.163  0.00  0.00    +0.000 C 
ATOM      9  O   UNL     1       2.414  10.308  18.176  0.00  0.00    +0.000 OA
ATOM     10  H   UNL     1       0.616   7.701  17.823  0.00  0.00    +0.000 HD
BRANCH   8  11
ATOM     11  C   UNL     1       0.104  10.244  18.129  0.00  0.00    +0.000 A 
ATOM     12  C   UNL     1      -0.915   9.604  17.403  0.00  0.00    +0.000 A 
ATOM     13  C   UNL     1      -2.163  10.200  17.251  0.00  0.00    +0.000 A 
ATOM     14  C   UNL     1      -2.379  11.452  17.813  0.00  0.00    +0.000 A 
ATOM     15  C   UNL     1      -1.358  12.136  18.494  0.00  0.00    +0.000 A 
ATOM     16  C   UNL     1      -0.120  11.507  18.687  0.00  0.00    +0.000 A 
BRANCH  15  17
ATOM     17  N   UNL     1      -1.644  13.358  19.132  0.00  0.00    +0.000 N 
ATOM     18  H   UNL     1      -0.784  13.754  19.518  0.00  0.00    +0.000 HD
ATOM     19  H   UNL     1      -2.388  13.305  19.818  0.00  0.00    +0.000 HD
ENDBRANCH  15  17
BRANCH  14  20
ATOM     20  O   UNL     1      -3.594  12.072  17.674  0.00  0.00    +0.000 OA
ATOM     21  H   UNL     1      -3.956  12.235  18.560  0.00  0.00    +0.000 HD
ENDBRANCH  14  20
ENDBRANCH   8  11
ENDBRANCH   6   7
BRANCH   1  22
ATOM     22  C   UNL     1       1.956   6.256  20.454  0.00  0.00    +0.000 C 
ATOM     23  O   UNL     1       1.247   7.108  20.976  0.00  0.00    +0.000 OA
BRANCH  22  24
ATOM     24  O   UNL     1       2.104   4.981  20.894  0.00  0.00    +0.000 OA
BRANCH  24  26
ATOM     25  C   UNL     1       1.317   2.748  21.188  0.00  0.00    +0.000 C 
ATOM     26  C   UNL     1       1.039   4.090  20.532  0.00  0.00    +0.000 C 
ENDBRANCH  24  26
ENDBRANCH  22  24
ENDBRANCH   1  22
BRANCH   3  27
ATOM     27  O   UNL     1       6.095   5.011  18.482  0.00  0.00    +0.000 OA
ATOM     28  C   UNL     1       7.245   5.597  19.081  0.00  0.00    +0.000 C 
ENDBRANCH   3  27
BRANCH   4  29
ATOM     29  O   UNL     1       5.632   6.617  16.138  0.00  0.00    +0.000 OA
ATOM     30  C   UNL     1       5.507   5.558  15.195  0.00  0.00    +0.000 C 
ENDBRANCH   4  29
TORSDOF 9
ENDMDL
MODEL 5
REMARK VINA RESULT:      -6.6      2.398      3.039
REMARK  Name = 
REMARK  12 active torsions:
REMARK  status: ('A' for Active; 'I' for Inactive)
REMARK    1  A    between atoms: C_1  and  C_2
REMARK    2  A    between atoms: C_2  and  O_3
REMARK    3  A    between atoms: O_3  and  C_4
REMARK    4  A    between atoms: C_4  and  C_6
REMARK    5  A    between atoms: C_8  and  O_9
REMARK    6  A    between atoms: O_9  and  C_10
REMARK    7  A    between atoms: C_11  and  O_12
REMARK    8  A    between atoms: O_12  and  C_13
REMARK    9  A    between atoms: C_15  and  N_16
REMARK   10  A    between atoms: C_17  and  C_19
REMARK   11  A    between atoms: C_22  and  O_23
REMARK   12  A    between atoms: C_24  and  N_25
REMARK                            x       y       z     vdW  Elec       q    Type
REMARK                         _______ _______ _______ _____ _____    ______ ____
ROOT
ATOM      1  C   UNL     1       2.991   6.470  19.302  0.00  0.00    +0.000 A 
ATOM      2  C   UNL     1       4.175   5.706  19.295  0.00  0.00    +0.000 A 
ATOM      3  C   UNL     1       5.099   5.778  18.244  0.00  0.00    +0.000 A 
ATOM      4  C   UNL     1       4.834   6.612  17.155  0.00  0.00    +0.000 A 
ATOM      5  C   UNL     1       3.679   7.403  17.187  0.00  0.00    +0.000 A 
ATOM      6  C   UNL     1       2.730   7.340  18.223  0.00  0.00    +0.000 A 
ENDROOT
BRANCH   6   7
ATOM      7  N   UNL     1       1.558   8.154  18.153  0.00  0.00    +0.000 N 
ATOM      8  C   UNL     1       1.544   9.539  18.150  0.00  0.00    +0.000 C 
ATOM      9  O   UNL     1       2.536  10.267  18.099  0.00  0.00    +0.000 OA
ATOM     10  H   UNL     1       0.697   7.672  17.899  0.00  0.00    +0.000 HD
BRANCH   8  11
ATOM     11  C   UNL     1       0.226  10.228  18.154  0.00  0.00    +0.000 A 
ATOM     12  C   UNL     1       0.140  11.427  18.883  0.00  0.00    +0.000 A 
ATOM     13  C   UNL     1      -1.071  12.100  19.007  0.00  0.00    +0.000 A 
ATOM     14  C   UNL     1      -2.203  11.555  18.415  0.00  0.00    +0.000 A 
ATOM     15  C   UNL     1      -2.154  10.328  17.729  0.00  0.00    +0.000 A 
ATOM     16  C   UNL     1      -0.920   9.683  17.565  0.00  0.00    +0.000 A 
BRANCH  15  17
ATOM     17  N   UNL     1      -3.300   9.858  17.061  0.00  0.00    +0.000 N 
ATOM     18  H   UNL     1      -3.587   8.961  17.461  0.00  0.00    +0.000 HD
ATOM     19  H   UNL     1      -3.207   9.820  16.053  0.00  0.00    +0.000 HD
ENDBRANCH  15  17
BRANCH  14  20
ATOM     20  O   UNL     1      -3.415  12.187  18.525  0.00  0.00    +0.000 OA
ATOM     21  H   UNL     1      -4.110  11.510  18.557  0.00  0.00    +0.000 HD
ENDBRANCH  14  20
ENDBRANCH   8  11
ENDBRANCH   6   7
BRANCH   1  22
ATOM     22  C   UNL     1       2.059   6.171  20.432  0.00  0.00    +0.000 C 
ATOM     23  O   UNL     1       1.318   7.004  20.941  0.00  0.00    +0.000 OA
BRANCH  22  24
ATOM     24  O   UNL     1       2.251   4.908  20.891  0.00  0.00    +0.000 OA
BRANCH  24  26
ATOM     25  C   UNL     1       1.442   2.726  21.413  0.00  0.00    +0.000 C 
ATOM     26  C   UNL     1       1.169   4.001  20.634  0.00  0.00    +0.000 C 
ENDBRANCH  24  26
ENDBRANCH  22  24
ENDBRANCH   1  22
BRANCH   3  27
ATOM     27  O   UNL     1       6.173   4.939  18.399  0.00  0.00    +0.000 OA
ATOM     28  C   UNL     1       7.397   5.548  18.790  0.00  0.00    +0.000 C 
ENDBRANCH   3  27
BRANCH   4  29
ATOM     29  O   UNL     1       5.701   6.600  16.095  0.00  0.00    +0.000 OA
ATOM     30  C   UNL     1       5.558   5.566  15.127  0.00  0.00    +0.000 C 
ENDBRANCH   4  29
TORSDOF 9
ENDMDL
MODEL 6
REMARK VINA RESULT:      -6.6      1.163      1.401
REMARK  Name = 
REMARK  12 active torsions:
REMARK  status: ('A' for Active; 'I' for Inactive)
REMARK    1  A    between atoms: C_1  and  C_2
REMARK    2  A    between atoms: C_2  and  O_3
REMARK    3  A    between atoms: O_3  and  C_4
REMARK    4  A    between atoms: C_4  and  C_6
REMARK    5  A    between atoms: C_8  and  O_9
REMARK    6  A    between atoms: O_9  and  C_10
REMARK    7  A    between atoms: C_11  and  O_12
REMARK    8  A    between atoms: O_12  and  C_13
REMARK    9  A    between atoms: C_15  and  N_16
REMARK   10  A    between atoms: C_17  and  C_19
REMARK   11  A    between atoms: C_22  and  O_23
REMARK   12  A    between atoms: C_24  and  N_25
REMARK                            x       y       z     vdW  Elec       q    Type
REMARK                         _______ _______ _______ _____ _____    ______ ____
ROOT
ATOM      1  C   UNL     1       2.969   5.403  18.392  0.00  0.00    +0.000 A 
ATOM      2  C   UNL     1       3.951   4.573  17.817  0.00  0.00    +0.000 A 
ATOM      3  C   UNL     1       5.111   5.094  17.226  0.00  0.00    +0.000 A 
ATOM      4  C   UNL     1       5.294   6.479  17.181  0.00  0.00    +0.000 A 
ATOM      5  C   UNL     1       4.338   7.297  17.795  0.00  0.00    +0.000 A 
ATOM      6  C   UNL     1       3.161   6.800  18.382  0.00  0.00    +0.000 A 
ENDROOT
BRANCH   6   7
ATOM      7  N   UNL     1       2.218   7.713  18.949  0.00  0.00    +0.000 N 
ATOM      8  C   UNL     1       1.775   8.881  18.351  0.00  0.00    +0.000 C 
ATOM      9  O   UNL     1       2.046   9.249  17.207  0.00  0.00    +0.000 OA
ATOM     10  H   UNL     1       1.703   7.373  19.760  0.00  0.00    +0.000 HD
BRANCH   8  11
ATOM     11  C   UNL     1       0.849   9.756  19.118  0.00  0.00    +0.000 A 
ATOM     12  C   UNL     1       0.812   9.572  20.511  0.00  0.00    +0.000 A 
ATOM     13  C   UNL     1      -0.080  10.292  21.300  0.00  0.00    +0.000 A 
ATOM     14  C   UNL     1      -0.951  11.181  20.685  0.00  0.00    +0.000 A 
ATOM     15  C   UNL     1      -0.972  11.340  19.288  0.00  0.00    +0.000 A 
ATOM     16  C   UNL     1      -0.035  10.651  18.505  0.00  0.00    +0.000 A 
BRANCH  15  17
ATOM     17  N   UNL     1      -1.801  12.320  18.711  0.00  0.00    +0.000 N 
ATOM     18  H   UNL     1      -2.748  11.950  18.604  0.00  0.00    +0.000 HD
ATOM     19  H   UNL     1      -1.440  12.716  17.851  0.00  0.00    +0.000 HD
ENDBRANCH  15  17
BRANCH  14  20
ATOM     20  O   UNL     1      -1.849  11.899  21.432  0.00  0.00    +0.000 OA
ATOM     21  H   UNL     1      -2.549  12.221  20.841  0.00  0.00    +0.000 HD
ENDBRANCH  14  20
ENDBRANCH   8  11
ENDBRANCH   6   7
BRANCH   1  22
ATOM     22  C   UNL     1       1.741   4.689  18.856  0.00  0.00    +0.000 C 
ATOM     23  O   UNL     1       1.216   4.878  19.948  0.00  0.00    +0.000 OA
BRANCH  22  24
ATOM     24  O   UNL     1       1.381   3.726  17.970  0.00  0.00    +0.000 OA
BRANCH  24  26
ATOM     25  C   UNL     1       2.128   1.703  18.988  0.00  0.00    +0.000 C 
ATOM     26  C   UNL     1       0.911   2.506  18.562  0.00  0.00    +0.000 C 
ENDBRANCH  24  26
ENDBRANCH  22  24
ENDBRANCH   1  22
BRANCH   3  27
ATOM     27  O   UNL     1       5.933   4.136  16.692  0.00  0.00    +0.000 OA
ATOM     28  C   UNL     1       5.758   3.854  15.308  0.00  0.00    +0.000 C 
ENDBRANCH   3  27
BRANCH   4  29
ATOM     29  O   UNL     1       6.386   6.974  16.519  0.00  0.00    +0.000 OA
ATOM     30  C   UNL     1       7.494   7.417  17.296  0.00  0.00    +0.000 C 
ENDBRANCH   4  29
TORSDOF 9
ENDMDL
MODEL 7
REMARK VINA RESULT:      -6.5      1.436      1.569
REMARK  Name = 
REMARK  12 active torsions:
REMARK  status: ('A' for Active; 'I' for Inactive)
REMARK    1  A    between atoms: C_1  and  C_2
REMARK    2  A    between atoms: C_2  and  O_3
REMARK    3  A    between atoms: O_3  and  C_4
REMARK    4  A    between atoms: C_4  and  C_6
REMARK    5  A    between atoms: C_8  and  O_9
REMARK    6  A    between atoms: O_9  and  C_10
REMARK    7  A    between atoms: C_11  and  O_12
REMARK    8  A    between atoms: O_12  and  C_13
REMARK    9  A    between atoms: C_15  and  N_16
REMARK   10  A    between atoms: C_17  and  C_19
REMARK   11  A    between atoms: C_22  and  O_23
REMARK   12  A    between atoms: C_24  and  N_25
REMARK                            x       y       z     vdW  Elec       q    Type
REMARK                         _______ _______ _______ _____ _____    ______ ____
ROOT
ATOM      1  C   UNL     1       2.959   5.423  17.911  0.00  0.00    +0.000 A 
ATOM      2  C   UNL     1       4.048   4.630  17.500  0.00  0.00    +0.000 A 
ATOM      3  C   UNL     1       5.260   5.194  17.077  0.00  0.00    +0.000 A 
ATOM      4  C   UNL     1       5.392   6.584  17.037  0.00  0.00    +0.000 A 
ATOM      5  C   UNL     1       4.323   7.368  17.490  0.00  0.00    +0.000 A 
ATOM      6  C   UNL     1       3.093   6.827  17.906  0.00  0.00    +0.000 A 
ENDROOT
BRANCH   6   7
ATOM      7  N   UNL     1       2.041   7.705  18.313  0.00  0.00    +0.000 N 
ATOM      8  C   UNL     1       1.914   9.032  17.936  0.00  0.00    +0.000 C 
ATOM      9  O   UNL     1       2.625   9.617  17.117  0.00  0.00    +0.000 OA
ATOM     10  H   UNL     1       1.238   7.260  18.754  0.00  0.00    +0.000 HD
BRANCH   8  11
ATOM     11  C   UNL     1       0.798   9.824  18.518  0.00  0.00    +0.000 A 
ATOM     12  C   UNL     1       1.059  10.496  19.725  0.00  0.00    +0.000 A 
ATOM     13  C   UNL     1       0.053  11.197  20.381  0.00  0.00    +0.000 A 
ATOM     14  C   UNL     1      -1.224  11.205  19.834  0.00  0.00    +0.000 A 
ATOM     15  C   UNL     1      -1.523  10.493  18.659  0.00  0.00    +0.000 A 
ATOM     16  C   UNL     1      -0.492   9.832  17.976  0.00  0.00    +0.000 A 
BRANCH  15  17
ATOM     17  N   UNL     1      -2.803  10.604  18.085  0.00  0.00    +0.000 N 
ATOM     18  H   UNL     1      -3.164   9.673  17.867  0.00  0.00    +0.000 HD
ATOM     19  H   UNL     1      -2.849  11.233  17.291  0.00  0.00    +0.000 HD
ENDBRANCH  15  17
BRANCH  14  20
ATOM     20  O   UNL     1      -2.241  11.878  20.460  0.00  0.00    +0.000 OA
ATOM     21  H   UNL     1      -2.319  12.757  20.057  0.00  0.00    +0.000 HD
ENDBRANCH  14  20
ENDBRANCH   8  11
ENDBRANCH   6   7
BRANCH   1  22
ATOM     22  C   UNL     1       1.705   4.663  18.201  0.00  0.00    +0.000 C 
ATOM     23  O   UNL     1       1.016   4.133  17.338  0.00  0.00    +0.000 OA
BRANCH  22  24
ATOM     24  O   UNL     1       1.378   4.761  19.515  0.00  0.00    +0.000 OA
BRANCH  24  26
ATOM     25  C   UNL     1       2.031   2.759  20.635  0.00  0.00    +0.000 C 
ATOM     26  C   UNL     1       0.856   3.558  20.098  0.00  0.00    +0.000 C 
ENDBRANCH  24  26
ENDBRANCH  22  24
ENDBRANCH   1  22
BRANCH   3  27
ATOM     27  O   UNL     1       6.190   4.265  16.685  0.00  0.00    +0.000 OA
ATOM     28  C   UNL     1       6.050   3.751  15.366  0.00  0.00    +0.000 C 
ENDBRANCH   3  27
BRANCH   4  29
ATOM     29  O   UNL     1       6.548   7.118  16.534  0.00  0.00    +0.000 OA
ATOM     30  C   UNL     1       7.593   7.430  17.450  0.00  0.00    +0.000 C 
ENDBRANCH   4  29
TORSDOF 9
ENDMDL
MODEL 8
REMARK VINA RESULT:      -6.5      2.114      4.402
REMARK  Name = 
REMARK  12 active torsions:
REMARK  status: ('A' for Active; 'I' for Inactive)
REMARK    1  A    between atoms: C_1  and  C_2
REMARK    2  A    between atoms: C_2  and  O_3
REMARK    3  A    between atoms: O_3  and  C_4
REMARK    4  A    between atoms: C_4  and  C_6
REMARK    5  A    between atoms: C_8  and  O_9
REMARK    6  A    between atoms: O_9  and  C_10
REMARK    7  A    between atoms: C_11  and  O_12
REMARK    8  A    between atoms: O_12  and  C_13
REMARK    9  A    between atoms: C_15  and  N_16
REMARK   10  A    between atoms: C_17  and  C_19
REMARK   11  A    between atoms: C_22  and  O_23
REMARK   12  A    between atoms: C_24  and  N_25
REMARK                            x       y       z     vdW  Elec       q    Type
REMARK                         _______ _______ _______ _____ _____    ______ ____
ROOT
ATOM      1  C   UNL     1       3.448   6.182  18.519  0.00  0.00    +0.000 A 
ATOM      2  C   UNL     1       3.992   4.901  18.738  0.00  0.00    +0.000 A 
ATOM      3  C   UNL     1       3.558   4.078  19.787  0.00  0.00    +0.000 A 
ATOM      4  C   UNL     1       2.573   4.546  20.661  0.00  0.00    +0.000 A 
ATOM      5  C   UNL     1       2.003   5.801  20.413  0.00  0.00    +0.000 A 
ATOM      6  C   UNL     1       2.430   6.649  19.376  0.00  0.00    +0.000 A 
ENDROOT
BRANCH   6   7
ATOM      7  N   UNL     1       1.820   7.932  19.221  0.00  0.00    +0.000 N 
ATOM      8  C   UNL     1       1.334   8.718  20.253  0.00  0.00    +0.000 C 
ATOM      9  O   UNL     1       1.450   8.476  21.455  0.00  0.00    +0.000 OA
ATOM     10  H   UNL     1       1.928   8.368  18.306  0.00  0.00    +0.000 HD
BRANCH   8  11
ATOM     11  C   UNL     1       0.656   9.995  19.905  0.00  0.00    +0.000 A 
ATOM     12  C   UNL     1       0.704  11.020  20.866  0.00  0.00    +0.000 A 
ATOM     13  C   UNL     1       0.032  12.220  20.660  0.00  0.00    +0.000 A 
ATOM     14  C   UNL     1      -0.707  12.383  19.496  0.00  0.00    +0.000 A 
ATOM     15  C   UNL     1      -0.817  11.351  18.547  0.00  0.00    +0.000 A 
ATOM     16  C   UNL     1      -0.095  10.165  18.737  0.00  0.00    +0.000 A 
BRANCH  15  17
ATOM     17  N   UNL     1      -1.494  11.589  17.336  0.00  0.00    +0.000 N 
ATOM     18  H   UNL     1      -1.138  10.958  16.614  0.00  0.00    +0.000 HD
ATOM     19  H   UNL     1      -1.489  12.558  17.040  0.00  0.00    +0.000 HD
ENDBRANCH  15  17
BRANCH  14  20
ATOM     20  O   UNL     1      -1.389  13.550  19.266  0.00  0.00    +0.000 OA
ATOM     21  H   UNL     1      -1.686  13.904  20.120  0.00  0.00    +0.000 HD
ENDBRANCH  14  20
ENDBRANCH   8  11
ENDBRANCH   6   7
BRANCH   1  22
ATOM     22  C   UNL     1       4.119   6.970  17.441  0.00  0.00    +0.000 C 
ATOM     23  O   UNL     1       3.612   7.943  16.895  0.00  0.00    +0.000 OA
BRANCH  22  24
ATOM     24  O   UNL     1       5.284   6.382  17.069  0.00  0.00    +0.000 OA
BRANCH  24  26
ATOM     25  C   UNL     1       7.441   6.427  18.085  0.00  0.00    +0.000 C 
ATOM     26  C   UNL     1       6.452   7.200  17.230  0.00  0.00    +0.000 C 
ENDBRANCH  24  26
ENDBRANCH  22  24
ENDBRANCH   1  22
BRANCH   3  27
ATOM     27  O   UNL     1       4.226   2.883  19.860  0.00  0.00    +0.000 OA
ATOM     28  C   UNL     1       3.804   1.870  18.955  0.00  0.00    +0.000 C 
ENDBRANCH   3  27
BRANCH   4  29
ATOM     29  O   UNL     1       2.228   3.768  21.734  0.00  0.00    +0.000 OA
ATOM     30  C   UNL     1       1.281   2.726  21.526  0.00  0.00    +0.000 C 
ENDBRANCH   4  29
TORSDOF 9
ENDMDL
MODEL 9
REMARK VINA RESULT:      -6.5      4.288      6.214
REMARK  Name = 
REMARK  12 active torsions:
REMARK  status: ('A' for Active; 'I' for Inactive)
REMARK    1  A    between atoms: C_1  and  C_2
REMARK    2  A    between atoms: C_2  and  O_3
REMARK    3  A    between atoms: O_3  and  C_4
REMARK    4  A    between atoms: C_4  and  C_6
REMARK    5  A    between atoms: C_8  and  O_9
REMARK    6  A    between atoms: O_9  and  C_10
REMARK    7  A    between atoms: C_11  and  O_12
REMARK    8  A    between atoms: O_12  and  C_13
REMARK    9  A    between atoms: C_15  and  N_16
REMARK   10  A    between atoms: C_17  and  C_19
REMARK   11  A    between atoms: C_22  and  O_23
REMARK   12  A    between atoms: C_24  and  N_25
REMARK                            x       y       z     vdW  Elec       q    Type
REMARK                         _______ _______ _______ _____ _____    ______ ____
ROOT
ATOM      1  C   UNL     1       6.746   5.005  16.080  0.00  0.00    +0.000 A 
ATOM      2  C   UNL     1       7.561   5.375  14.993  0.00  0.00    +0.000 A 
ATOM      3  C   UNL     1       7.341   4.884  13.698  0.00  0.00    +0.000 A 
ATOM      4  C   UNL     1       6.298   3.981  13.476  0.00  0.00    +0.000 A 
ATOM      5  C   UNL     1       5.463   3.651  14.551  0.00  0.00    +0.000 A 
ATOM      6  C   UNL     1       5.670   4.119  15.860  0.00  0.00    +0.000 A 
ENDROOT
BRANCH   6   7
ATOM      7  N   UNL     1       4.792   3.698  16.906  0.00  0.00    +0.000 N 
ATOM      8  C   UNL     1       3.884   4.510  17.565  0.00  0.00    +0.000 C 
ATOM      9  O   UNL     1       3.626   5.680  17.277  0.00  0.00    +0.000 OA
ATOM     10  H   UNL     1       4.704   2.691  17.033  0.00  0.00    +0.000 HD
BRANCH   8  11
ATOM     11  C   UNL     1       3.101   3.925  18.686  0.00  0.00    +0.000 A 
ATOM     12  C   UNL     1       1.736   4.255  18.746  0.00  0.00    +0.000 A 
ATOM     13  C   UNL     1       0.944   3.817  19.803  0.00  0.00    +0.000 A 
ATOM     14  C   UNL     1       1.530   3.064  20.812  0.00  0.00    +0.000 A 
ATOM     15  C   UNL     1       2.905   2.770  20.803  0.00  0.00    +0.000 A 
ATOM     16  C   UNL     1       3.685   3.170  19.709  0.00  0.00    +0.000 A 
BRANCH  15  17
ATOM     17  N   UNL     1       3.442   1.923  21.791  0.00  0.00    +0.000 N 
ATOM     18  H   UNL     1       4.271   1.449  21.425  0.00  0.00    +0.000 HD
ATOM     19  H   UNL     1       2.773   1.277  22.193  0.00  0.00    +0.000 HD
ENDBRANCH  15  17
BRANCH  14  20
ATOM     20  O   UNL     1       0.781   2.624  21.872  0.00  0.00    +0.000 OA
ATOM     21  H   UNL     1       0.125   3.307  22.086  0.00  0.00    +0.000 HD
ENDBRANCH  14  20
ENDBRANCH   8  11
ENDBRANCH   6   7
BRANCH   1  22
ATOM     22  C   UNL     1       7.203   5.517  17.408  0.00  0.00    +0.000 C 
ATOM     23  O   UNL     1       7.398   4.800  18.383  0.00  0.00    +0.000 OA
BRANCH  22  24
ATOM     24  O   UNL     1       7.238   6.873  17.413  0.00  0.00    +0.000 OA
BRANCH  24  26
ATOM     25  C   UNL     1       8.237   8.939  18.065  0.00  0.00    +0.000 C 
ATOM     26  C   UNL     1       8.150   7.451  18.359  0.00  0.00    +0.000 C 
ENDBRANCH  24  26
ENDBRANCH  22  24
ENDBRANCH   1  22
BRANCH   3  27
ATOM     27  O   UNL     1       8.255   5.331  12.779  0.00  0.00    +0.000 OA
ATOM     28  C   UNL     1       7.750   6.166  11.743  0.00  0.00    +0.000 C 
ENDBRANCH   3  27
BRANCH   4  29
ATOM     29  O   UNL     1       6.155   3.440  12.226  0.00  0.00    +0.000 OA
ATOM     30  C   UNL     1       4.837   3.167  11.764  0.00  0.00    +0.000 C 
ENDBRANCH   4  29
TORSDOF 9
ENDMDL
