MODEL 1
REMARK VINA RESULT:      -8.1      0.000      0.000
REMARK  Name = 
REMARK  5 active torsions:
REMARK  status: ('A' for Active; 'I' for Inactive)
REMARK    1  A    between atoms: C_2  and  C_3
REMARK    2  A    between atoms: C_6  and  N_7
REMARK    3  A    between atoms: N_10  and  C_11
REMARK    4  A    between atoms: C_11  and  C_12
REMARK    5  A    between atoms: C_18  and  C_19
REMARK                            x       y       z     vdW  Elec       q    Type
REMARK                         _______ _______ _______ _____ _____    ______ ____
ROOT
ATOM      1  C   UNL     1       2.500   6.510  20.096  0.00  0.00    +0.000 C 
ENDROOT
BRANCH   1   2
ATOM      2  C   UNL     1       2.091   5.101  19.861  0.00  0.00    +0.000 A 
ATOM      3  C   UNL     1       0.991   4.376  20.316  0.00  0.00    +0.000 A 
ATOM      4  N   UNL     1       0.970   3.088  19.841  0.00  0.00    +0.000 NA
ATOM      5  C   UNL     1       2.036   3.034  19.096  0.00  0.00    +0.000 A 
ATOM      6  S   UNL     1       2.740   1.774  18.133  0.00  0.00    +0.000 S 
ATOM      7  C   UNL     1       4.054   2.876  17.729  0.00  0.00    +0.000 A 
ATOM      8  C   UNL     1       3.930   4.093  18.295  0.00  0.00    +0.000 A 
ATOM      9  N   UNL     1       2.774   4.188  19.068  0.00  0.00    +0.000 N 
BRANCH   8  10
ATOM     10  C   UNL     1       4.953   5.117  18.101  0.00  0.00    +0.000 A 
ATOM     11  C   UNL     1       4.774   6.135  17.157  0.00  0.00    +0.000 A 
ATOM     12  C   UNL     1       5.744   7.128  17.003  0.00  0.00    +0.000 A 
ATOM     13  C   UNL     1       6.898   7.094  17.783  0.00  0.00    +0.000 A 
ATOM     14 BR   UNL     1       8.152   8.503  17.667  0.00  0.00    +0.000 Br
ATOM     15  C   UNL     1       7.123   6.041  18.667  0.00  0.00    +0.000 A 
ATOM     16  C   UNL     1       6.152   5.048  18.820  0.00  0.00    +0.000 A 
ENDBRANCH   8  10
ENDBRANCH   1   2
BRANCH   1  20
ATOM     17  N   UNL     1       0.344   8.888  21.854  0.00  0.00    +0.000 N 
ATOM     18  C   UNL     1       1.099   8.379  20.811  0.00  0.00    +0.000 C 
ATOM     19  O   UNL     1       1.281   8.903  19.719  0.00  0.00    +0.000 OA
ATOM     20  N   UNL     1       1.654   7.144  21.108  0.00  0.00    +0.000 N 
ATOM     21  H   UNL     1       0.189   8.275  22.641  0.00  0.00    +0.000 HD
ATOM     22  H   UNL     1       1.928   7.026  22.069  0.00  0.00    +0.000 HD
BRANCH  17  26
ATOM     23  C   UNL     1      -1.841  12.543  21.956  0.00  0.00    +0.000 A 
ATOM     24  C   UNL     1      -1.245  12.120  20.768  0.00  0.00    +0.000 A 
ATOM     25  C   UNL     1      -0.515  10.927  20.728  0.00  0.00    +0.000 A 
ATOM     26  C   UNL     1      -0.363  10.121  21.862  0.00  0.00    +0.000 A 
ATOM     27  C   UNL     1      -0.951  10.562  23.061  0.00  0.00    +0.000 A 
ATOM     28  C   UNL     1      -1.686  11.763  23.105  0.00  0.00    +0.000 A 
BRANCH  23  30
ATOM     29  N   UNL     1      -3.224  14.739  22.011  0.00  0.00    +0.000 NA
ATOM     30  C   UNL     1      -2.607  13.761  21.987  0.00  0.00    +0.000 C 
ENDBRANCH  23  30
ENDBRANCH  17  26
ENDBRANCH   1  20
TORSDOF 5
ENDMDL
MODEL 2
REMARK VINA RESULT:      -7.7      1.480      1.765
REMARK  Name = 
REMARK  5 active torsions:
REMARK  status: ('A' for Active; 'I' for Inactive)
REMARK    1  A    between atoms: C_2  and  C_3
REMARK    2  A    between atoms: C_6  and  N_7
REMARK    3  A    between atoms: N_10  and  C_11
REMARK    4  A    between atoms: C_11  and  C_12
REMARK    5  A    between atoms: C_18  and  C_19
REMARK                            x       y       z     vdW  Elec       q    Type
REMARK                         _______ _______ _______ _____ _____    ______ ____
ROOT
ATOM      1  C   UNL     1       2.611   6.275  20.445  0.00  0.00    +0.000 C 
ENDROOT
BRANCH   1   2
ATOM      2  C   UNL     1       2.117   4.927  20.059  0.00  0.00    +0.000 A 
ATOM      3  C   UNL     1       1.026   4.187  20.509  0.00  0.00    +0.000 A 
ATOM      4  N   UNL     1       0.904   2.978  19.869  0.00  0.00    +0.000 NA
ATOM      5  C   UNL     1       1.900   2.988  19.032  0.00  0.00    +0.000 A 
ATOM      6  S   UNL     1       2.461   1.850  17.850  0.00  0.00    +0.000 S 
ATOM      7  C   UNL     1       3.788   2.948  17.483  0.00  0.00    +0.000 A 
ATOM      8  C   UNL     1       3.770   4.079  18.216  0.00  0.00    +0.000 A 
ATOM      9  N   UNL     1       2.688   4.108  19.094  0.00  0.00    +0.000 N 
BRANCH   8  10
ATOM     10  C   UNL     1       4.821   5.083  18.071  0.00  0.00    +0.000 A 
ATOM     11  C   UNL     1       4.702   6.109  17.127  0.00  0.00    +0.000 A 
ATOM     12  C   UNL     1       5.698   7.082  17.020  0.00  0.00    +0.000 A 
ATOM     13  C   UNL     1       6.819   7.020  17.846  0.00  0.00    +0.000 A 
ATOM     14 BR   UNL     1       8.105   8.403  17.792  0.00  0.00    +0.000 Br
ATOM     15  C   UNL     1       6.984   5.957  18.732  0.00  0.00    +0.000 A 
ATOM     16  C   UNL     1       5.988   4.984  18.838  0.00  0.00    +0.000 A 
ENDBRANCH   8  10
ENDBRANCH   1   2
BRANCH   1  20
ATOM     17  N   UNL     1       1.122   9.331  19.089  0.00  0.00    +0.000 N 
ATOM     18  C   UNL     1       1.571   8.451  20.060  0.00  0.00    +0.000 C 
ATOM     19  O   UNL     1       1.528   8.619  21.272  0.00  0.00    +0.000 OA
ATOM     20  N   UNL     1       2.125   7.300  19.520  0.00  0.00    +0.000 N 
ATOM     21  H   UNL     1       1.346   9.099  18.132  0.00  0.00    +0.000 HD
ATOM     22  H   UNL     1       1.685   6.978  18.675  0.00  0.00    +0.000 HD
BRANCH  17  26
ATOM     23  C   UNL     1      -0.585  13.169  19.791  0.00  0.00    +0.000 A 
ATOM     24  C   UNL     1      -1.365  12.022  19.937  0.00  0.00    +0.000 A 
ATOM     25  C   UNL     1      -0.816  10.758  19.696  0.00  0.00    +0.000 A 
ATOM     26  C   UNL     1       0.520  10.599  19.312  0.00  0.00    +0.000 A 
ATOM     27  C   UNL     1       1.297  11.761  19.149  0.00  0.00    +0.000 A 
ATOM     28  C   UNL     1       0.746  13.034  19.389  0.00  0.00    +0.000 A 
BRANCH  23  30
ATOM     29  N   UNL     1      -1.602  15.509  20.273  0.00  0.00    +0.000 NA
ATOM     30  C   UNL     1      -1.149  14.466  20.057  0.00  0.00    +0.000 C 
ENDBRANCH  23  30
ENDBRANCH  17  26
ENDBRANCH   1  20
TORSDOF 5
ENDMDL
MODEL 3
REMARK VINA RESULT:      -7.6      2.096      2.527
REMARK  Name = 
REMARK  5 active torsions:
REMARK  status: ('A' for Active; 'I' for Inactive)
REMARK    1  A    between atoms: C_2  and  C_3
REMARK    2  A    between atoms: C_6  and  N_7
REMARK    3  A    between atoms: N_10  and  C_11
REMARK    4  A    between atoms: C_11  and  C_12
REMARK    5  A    between atoms: C_18  and  C_19
REMARK                            x       y       z     vdW  Elec       q    Type
REMARK                         _______ _______ _______ _____ _____    ______ ____
ROOT
ATOM      1  C   UNL     1       2.368   6.194  20.437  0.00  0.00    +0.000 C 
ENDROOT
BRANCH   1   2
ATOM      2  C   UNL     1       1.932   4.827  20.050  0.00  0.00    +0.000 A 
ATOM      3  C   UNL     1       0.842   4.062  20.458  0.00  0.00    +0.000 A 
ATOM      4  N   UNL     1       0.786   2.840  19.834  0.00  0.00    +0.000 NA
ATOM      5  C   UNL     1       1.823   2.866  19.047  0.00  0.00    +0.000 A 
ATOM      6  S   UNL     1       2.474   1.726  17.913  0.00  0.00    +0.000 S 
ATOM      7  C   UNL     1       3.786   2.858  17.593  0.00  0.00    +0.000 A 
ATOM      8  C   UNL     1       3.699   4.000  18.306  0.00  0.00    +0.000 A 
ATOM      9  N   UNL     1       2.574   4.010  19.129  0.00  0.00    +0.000 N 
BRANCH   8  10
ATOM     10  C   UNL     1       4.727   5.031  18.195  0.00  0.00    +0.000 A 
ATOM     11  C   UNL     1       5.839   5.024  19.043  0.00  0.00    +0.000 A 
ATOM     12  C   UNL     1       6.833   5.996  18.906  0.00  0.00    +0.000 A 
ATOM     13  C   UNL     1       6.705   6.983  17.931  0.00  0.00    +0.000 A 
ATOM     14 BR   UNL     1       8.105   8.223  17.659  0.00  0.00    +0.000 Br
ATOM     15  C   UNL     1       5.562   7.046  17.136  0.00  0.00    +0.000 A 
ATOM     16  C   UNL     1       4.569   6.074  17.274  0.00  0.00    +0.000 A 
ENDBRANCH   8  10
ENDBRANCH   1   2
BRANCH   1  20
ATOM     17  N   UNL     1       1.454   9.228  18.605  0.00  0.00    +0.000 N 
ATOM     18  C   UNL     1       1.685   8.423  19.709  0.00  0.00    +0.000 C 
ATOM     19  O   UNL     1       1.557   8.743  20.884  0.00  0.00    +0.000 OA
ATOM     20  N   UNL     1       2.116   7.152  19.360  0.00  0.00    +0.000 N 
ATOM     21  H   UNL     1       1.727   8.854  17.708  0.00  0.00    +0.000 HD
ATOM     22  H   UNL     1       1.713   6.789  18.513  0.00  0.00    +0.000 HD
BRANCH  17  26
ATOM     23  C   UNL     1       0.247  13.311  18.706  0.00  0.00    +0.000 A 
ATOM     24  C   UNL     1      -0.707  12.300  18.807  0.00  0.00    +0.000 A 
ATOM     25  C   UNL     1      -0.322  10.956  18.762  0.00  0.00    +0.000 A 
ATOM     26  C   UNL     1       1.019  10.581  18.623  0.00  0.00    +0.000 A 
ATOM     27  C   UNL     1       1.976  11.606  18.504  0.00  0.00    +0.000 A 
ATOM     28  C   UNL     1       1.590  12.960  18.547  0.00  0.00    +0.000 A 
BRANCH  23  30
ATOM     29  N   UNL     1      -0.476  15.802  18.822  0.00  0.00    +0.000 NA
ATOM     30  C   UNL     1      -0.152  14.692  18.771  0.00  0.00    +0.000 C 
ENDBRANCH  23  30
ENDBRANCH  17  26
ENDBRANCH   1  20
TORSDOF 5
ENDMDL
MODEL 4
REMARK VINA RESULT:      -7.4      1.375      1.681
REMARK  Name = 
REMARK  5 active torsions:
REMARK  status: ('A' for Active; 'I' for Inactive)
REMARK    1  A    between atoms: C_2  and  C_3
REMARK    2  A    between atoms: C_6  and  N_7
REMARK    3  A    between atoms: N_10  and  C_11
REMARK    4  A    between atoms: C_11  and  C_12
REMARK    5  A    between atoms: C_18  and  C_19
REMARK                            x       y       z     vdW  Elec       q    Type
REMARK                         _______ _______ _______ _____ _____    ______ ____
ROOT
ATOM      1  C   UNL     1       2.638   6.093  20.733  0.00  0.00    +0.000 C 
ENDROOT
BRANCH   1   2
ATOM      2  C   UNL     1       2.135   4.777  20.261  0.00  0.00    +0.000 A 
ATOM      3  C   UNL     1       1.063   3.997  20.689  0.00  0.00    +0.000 A 
ATOM      4  N   UNL     1       0.922   2.841  19.961  0.00  0.00    +0.000 NA
ATOM      5  C   UNL     1       1.889   2.923  19.093  0.00  0.00    +0.000 A 
ATOM      6  S   UNL     1       2.411   1.883  17.806  0.00  0.00    +0.000 S 
ATOM      7  C   UNL     1       3.720   3.015  17.480  0.00  0.00    +0.000 A 
ATOM      8  C   UNL     1       3.724   4.086  18.300  0.00  0.00    +0.000 A 
ATOM      9  N   UNL     1       2.674   4.039  19.215  0.00  0.00    +0.000 N 
BRANCH   8  10
ATOM     10  C   UNL     1       4.767   5.104  18.197  0.00  0.00    +0.000 A 
ATOM     11  C   UNL     1       5.918   5.029  18.987  0.00  0.00    +0.000 A 
ATOM     12  C   UNL     1       6.923   5.989  18.856  0.00  0.00    +0.000 A 
ATOM     13  C   UNL     1       6.770   7.032  17.945  0.00  0.00    +0.000 A 
ATOM     14 BR   UNL     1       8.180   8.261  17.674  0.00  0.00    +0.000 Br
ATOM     15  C   UNL     1       5.591   7.161  17.212  0.00  0.00    +0.000 A 
ATOM     16  C   UNL     1       4.586   6.200  17.344  0.00  0.00    +0.000 A 
ENDBRANCH   8  10
ENDBRANCH   1   2
BRANCH   1  20
ATOM     17  N   UNL     1       1.112   9.158  19.442  0.00  0.00    +0.000 N 
ATOM     18  C   UNL     1       1.481   8.215  20.387  0.00  0.00    +0.000 C 
ATOM     19  O   UNL     1       1.234   8.250  21.586  0.00  0.00    +0.000 OA
ATOM     20  N   UNL     1       2.213   7.172  19.841  0.00  0.00    +0.000 N 
ATOM     21  H   UNL     1       1.503   9.047  18.517  0.00  0.00    +0.000 HD
ATOM     22  H   UNL     1       1.941   6.910  18.908  0.00  0.00    +0.000 HD
BRANCH  17  26
ATOM     23  C   UNL     1      -1.049  12.739  20.247  0.00  0.00    +0.000 A 
ATOM     24  C   UNL     1      -1.668  11.688  19.571  0.00  0.00    +0.000 A 
ATOM     25  C   UNL     1      -0.962  10.513  19.291  0.00  0.00    +0.000 A 
ATOM     26  C   UNL     1       0.372  10.348  19.679  0.00  0.00    +0.000 A 
ATOM     27  C   UNL     1       0.996  11.418  20.345  0.00  0.00    +0.000 A 
ATOM     28  C   UNL     1       0.288  12.603  20.627  0.00  0.00    +0.000 A 
BRANCH  23  30
ATOM     29  N   UNL     1      -2.378  14.902  20.789  0.00  0.00    +0.000 NA
ATOM     30  C   UNL     1      -1.785  13.938  20.548  0.00  0.00    +0.000 C 
ENDBRANCH  23  30
ENDBRANCH  17  26
ENDBRANCH   1  20
TORSDOF 5
ENDMDL
MODEL 5
REMARK VINA RESULT:      -7.2      4.418      9.801
REMARK  Name = 
REMARK  5 active torsions:
REMARK  status: ('A' for Active; 'I' for Inactive)
REMARK    1  A    between atoms: C_2  and  C_3
REMARK    2  A    between atoms: C_6  and  N_7
REMARK    3  A    between atoms: N_10  and  C_11
REMARK    4  A    between atoms: C_11  and  C_12
REMARK    5  A    between atoms: C_18  and  C_19
REMARK                            x       y       z     vdW  Elec       q    Type
REMARK                         _______ _______ _______ _____ _____    ______ ____
ROOT
ATOM      1  C   UNL     1       0.137  10.110  19.403  0.00  0.00    +0.000 C 
ENDROOT
BRANCH   1   2
ATOM      2  C   UNL     1      -0.280  10.809  20.647  0.00  0.00    +0.000 A 
ATOM      3  C   UNL     1       0.314  10.874  21.905  0.00  0.00    +0.000 A 
ATOM      4  N   UNL     1      -0.390  11.658  22.785  0.00  0.00    +0.000 NA
ATOM      5  C   UNL     1      -1.393  12.075  22.068  0.00  0.00    +0.000 A 
ATOM      6  S   UNL     1      -2.744  13.107  22.413  0.00  0.00    +0.000 S 
ATOM      7  C   UNL     1      -3.316  12.837  20.769  0.00  0.00    +0.000 A 
ATOM      8  C   UNL     1      -2.517  12.026  20.046  0.00  0.00    +0.000 A 
ATOM      9  N   UNL     1      -1.415  11.598  20.783  0.00  0.00    +0.000 N 
BRANCH   8  10
ATOM     10  C   UNL     1      -2.864  11.662  18.676  0.00  0.00    +0.000 A 
ATOM     11  C   UNL     1      -1.913  11.743  17.653  0.00  0.00    +0.000 A 
ATOM     12  C   UNL     1      -2.247  11.360  16.352  0.00  0.00    +0.000 A 
ATOM     13  C   UNL     1      -3.535  10.909  16.072  0.00  0.00    +0.000 A 
ATOM     14 BR   UNL     1      -3.954  10.271  14.344  0.00  0.00    +0.000 Br
ATOM     15  C   UNL     1      -4.512  10.901  17.066  0.00  0.00    +0.000 A 
ATOM     16  C   UNL     1      -4.177  11.286  18.367  0.00  0.00    +0.000 A 
ENDBRANCH   8  10
ENDBRANCH   1   2
BRANCH   1  20
ATOM     17  N   UNL     1       2.611   7.443  19.007  0.00  0.00    +0.000 N 
ATOM     18  C   UNL     1       1.717   8.425  18.612  0.00  0.00    +0.000 C 
ATOM     19  O   UNL     1       1.450   8.747  17.461  0.00  0.00    +0.000 OA
ATOM     20  N   UNL     1       1.124   9.069  19.687  0.00  0.00    +0.000 N 
ATOM     21  H   UNL     1       2.812   7.387  19.995  0.00  0.00    +0.000 HD
ATOM     22  H   UNL     1       0.949   8.482  20.485  0.00  0.00    +0.000 HD
BRANCH  17  26
ATOM     23  C   UNL     1       4.948   5.046  16.375  0.00  0.00    +0.000 A 
ATOM     24  C   UNL     1       3.978   4.452  17.182  0.00  0.00    +0.000 A 
ATOM     25  C   UNL     1       3.214   5.230  18.059  0.00  0.00    +0.000 A 
ATOM     26  C   UNL     1       3.388   6.615  18.153  0.00  0.00    +0.000 A 
ATOM     27  C   UNL     1       4.380   7.206  17.349  0.00  0.00    +0.000 A 
ATOM     28  C   UNL     1       5.151   6.425  16.466  0.00  0.00    +0.000 A 
BRANCH  23  30
ATOM     29  N   UNL     1       6.338   3.601  14.726  0.00  0.00    +0.000 NA
ATOM     30  C   UNL     1       5.718   4.244  15.462  0.00  0.00    +0.000 C 
ENDBRANCH  23  30
ENDBRANCH  17  26
ENDBRANCH   1  20
TORSDOF 5
ENDMDL
MODEL 6
REMARK VINA RESULT:      -7.1      4.517     10.034
REMARK  Name = 
REMARK  5 active torsions:
REMARK  status: ('A' for Active; 'I' for Inactive)
REMARK    1  A    between atoms: C_2  and  C_3
REMARK    2  A    between atoms: C_6  and  N_7
REMARK    3  A    between atoms: N_10  and  C_11
REMARK    4  A    between atoms: C_11  and  C_12
REMARK    5  A    between atoms: C_18  and  C_19
REMARK                            x       y       z     vdW  Elec       q    Type
REMARK                         _______ _______ _______ _____ _____    ______ ____
ROOT
ATOM      1  C   UNL     1      -0.987  11.755  18.954  0.00  0.00    +0.000 C 
ENDROOT
BRANCH   1   2
ATOM      2  C   UNL     1      -2.278  11.550  18.247  0.00  0.00    +0.000 A 
ATOM      3  C   UNL     1      -2.569  10.954  17.021  0.00  0.00    +0.000 A 
ATOM      4  N   UNL     1      -3.913  10.947  16.740  0.00  0.00    +0.000 NA
ATOM      5  C   UNL     1      -4.434  11.520  17.786  0.00  0.00    +0.000 A 
ATOM      6  S   UNL     1      -6.067  11.899  18.234  0.00  0.00    +0.000 S 
ATOM      7  C   UNL     1      -5.446  12.634  19.709  0.00  0.00    +0.000 A 
ATOM      8  C   UNL     1      -4.103  12.573  19.819  0.00  0.00    +0.000 A 
ATOM      9  N   UNL     1      -3.526  11.929  18.726  0.00  0.00    +0.000 N 
BRANCH   8  10
ATOM     10  C   UNL     1      -3.417  13.172  20.960  0.00  0.00    +0.000 A 
ATOM     11  C   UNL     1      -2.792  14.418  20.843  0.00  0.00    +0.000 A 
ATOM     12  C   UNL     1      -2.167  14.997  21.950  0.00  0.00    +0.000 A 
ATOM     13  C   UNL     1      -2.157  14.323  23.170  0.00  0.00    +0.000 A 
ATOM     14 BR   UNL     1      -1.425  15.156  24.699  0.00  0.00    +0.000 Br
ATOM     15  C   UNL     1      -2.706  13.046  23.275  0.00  0.00    +0.000 A 
ATOM     16  C   UNL     1      -3.330  12.468  22.167  0.00  0.00    +0.000 A 
ENDBRANCH   8  10
ENDBRANCH   1   2
BRANCH   1  20
ATOM     17  N   UNL     1       1.654   9.375  18.086  0.00  0.00    +0.000 N 
ATOM     18  C   UNL     1       0.604   9.908  18.815  0.00  0.00    +0.000 C 
ATOM     19  O   UNL     1       0.112   9.438  19.834  0.00  0.00    +0.000 OA
ATOM     20  N   UNL     1       0.108  11.077  18.260  0.00  0.00    +0.000 N 
ATOM     21  H   UNL     1       1.857   9.816  17.200  0.00  0.00    +0.000 HD
ATOM     22  H   UNL     1       0.800  11.662  17.822  0.00  0.00    +0.000 HD
BRANCH  17  26
ATOM     23  C   UNL     1       3.802   5.780  18.860  0.00  0.00    +0.000 A 
ATOM     24  C   UNL     1       2.852   6.235  19.774  0.00  0.00    +0.000 A 
ATOM     25  C   UNL     1       2.151   7.421  19.534  0.00  0.00    +0.000 A 
ATOM     26  C   UNL     1       2.368   8.183  18.380  0.00  0.00    +0.000 A 
ATOM     27  C   UNL     1       3.341   7.728  17.471  0.00  0.00    +0.000 A 
ATOM     28  C   UNL     1       4.049   6.535  17.710  0.00  0.00    +0.000 A 
BRANCH  23  30
ATOM     29  N   UNL     1       5.077   3.561  19.296  0.00  0.00    +0.000 NA
ATOM     30  C   UNL     1       4.508   4.550  19.103  0.00  0.00    +0.000 C 
ENDBRANCH  23  30
ENDBRANCH  17  26
ENDBRANCH   1  20
TORSDOF 5
ENDMDL
MODEL 7
REMARK VINA RESULT:      -7.1      5.042      8.138
REMARK  Name = 
REMARK  5 active torsions:
REMARK  status: ('A' for Active; 'I' for Inactive)
REMARK    1  A    between atoms: C_2  and  C_3
REMARK    2  A    between atoms: C_6  and  N_7
REMARK    3  A    between atoms: N_10  and  C_11
REMARK    4  A    between atoms: C_11  and  C_12
REMARK    5  A    between atoms: C_18  and  C_19
REMARK                            x       y       z     vdW  Elec       q    Type
REMARK                         _______ _______ _______ _____ _____    ______ ____
ROOT
ATOM      1  C   UNL     1       6.000   7.294  17.006  0.00  0.00    +0.000 C 
ENDROOT
BRANCH   1   2
ATOM      2  C   UNL     1       5.798   5.833  16.820  0.00  0.00    +0.000 A 
ATOM      3  C   UNL     1       6.616   4.859  16.251  0.00  0.00    +0.000 A 
ATOM      4  N   UNL     1       6.060   3.604  16.299  0.00  0.00    +0.000 NA
ATOM      5  C   UNL     1       4.924   3.810  16.900  0.00  0.00    +0.000 A 
ATOM      6  S   UNL     1       3.624   2.758  17.360  0.00  0.00    +0.000 S 
ATOM      7  C   UNL     1       2.763   4.164  17.981  0.00  0.00    +0.000 A 
ATOM      8  C   UNL     1       3.442   5.320  17.837  0.00  0.00    +0.000 A 
ATOM      9  N   UNL     1       4.680   5.118  17.229  0.00  0.00    +0.000 N 
BRANCH   8  10
ATOM     10  C   UNL     1       2.858   6.589  18.260  0.00  0.00    +0.000 A 
ATOM     11  C   UNL     1       2.702   7.641  17.350  0.00  0.00    +0.000 A 
ATOM     12  C   UNL     1       2.111   8.839  17.757  0.00  0.00    +0.000 A 
ATOM     13  C   UNL     1       1.689   8.990  19.077  0.00  0.00    +0.000 A 
ATOM     14 BR   UNL     1       0.777  10.559  19.599  0.00  0.00    +0.000 Br
ATOM     15  C   UNL     1       1.914   7.979  20.009  0.00  0.00    +0.000 A 
ATOM     16  C   UNL     1       2.506   6.781  19.601  0.00  0.00    +0.000 A 
ENDBRANCH   8  10
ENDBRANCH   1   2
BRANCH   1  20
ATOM     17  N   UNL     1       8.797   9.000  18.635  0.00  0.00    +0.000 N 
ATOM     18  C   UNL     1       7.644   8.875  17.879  0.00  0.00    +0.000 C 
ATOM     19  O   UNL     1       7.030   9.781  17.330  0.00  0.00    +0.000 OA
ATOM     20  N   UNL     1       7.198   7.564  17.802  0.00  0.00    +0.000 N 
ATOM     21  H   UNL     1       9.108   8.174  19.126  0.00  0.00    +0.000 HD
ATOM     22  H   UNL     1       7.927   6.872  17.776  0.00  0.00    +0.000 HD
BRANCH  17  26
ATOM     23  C   UNL     1      10.963  12.588  19.395  0.00  0.00    +0.000 A 
ATOM     24  C   UNL     1      10.323  11.926  20.441  0.00  0.00    +0.000 A 
ATOM     25  C   UNL     1       9.598  10.753  20.200  0.00  0.00    +0.000 A 
ATOM     26  C   UNL     1       9.497  10.205  18.916  0.00  0.00    +0.000 A 
ATOM     27  C   UNL     1      10.130  10.887  17.861  0.00  0.00    +0.000 A 
ATOM     28  C   UNL     1      10.859  12.068  18.102  0.00  0.00    +0.000 A 
BRANCH  23  30
ATOM     29  N   UNL     1      12.333  14.744  19.861  0.00  0.00    +0.000 NA
ATOM     30  C   UNL     1      11.722  13.783  19.652  0.00  0.00    +0.000 C 
ENDBRANCH  23  30
ENDBRANCH  17  26
ENDBRANCH   1  20
TORSDOF 5
ENDMDL
MODEL 8
REMARK VINA RESULT:      -7.0      5.162      8.190
REMARK  Name = 
REMARK  5 active torsions:
REMARK  status: ('A' for Active; 'I' for Inactive)
REMARK    1  A    between atoms: C_2  and  C_3
REMARK    2  A    between atoms: C_6  and  N_7
REMARK    3  A    between atoms: N_10  and  C_11
REMARK    4  A    between atoms: C_11  and  C_12
REMARK    5  A    between atoms: C_18  and  C_19
REMARK                            x       y       z     vdW  Elec       q    Type
REMARK                         _______ _______ _______ _____ _____    ______ ____
ROOT
ATOM      1  C   UNL     1       6.090   7.473  17.191  0.00  0.00    +0.000 C 
ENDROOT
BRANCH   1   2
ATOM      2  C   UNL     1       5.952   6.016  16.927  0.00  0.00    +0.000 A 
ATOM      3  C   UNL     1       6.831   5.100  16.352  0.00  0.00    +0.000 A 
ATOM      4  N   UNL     1       6.320   3.826  16.314  0.00  0.00    +0.000 NA
ATOM      5  C   UNL     1       5.151   3.963  16.870  0.00  0.00    +0.000 A 
ATOM      6  S   UNL     1       3.871   2.845  17.219  0.00  0.00    +0.000 S 
ATOM      7  C   UNL     1       2.931   4.187  17.864  0.00  0.00    +0.000 A 
ATOM      8  C   UNL     1       3.573   5.372  17.806  0.00  0.00    +0.000 A 
ATOM      9  N   UNL     1       4.843   5.244  17.248  0.00  0.00    +0.000 N 
BRANCH   8  10
ATOM     10  C   UNL     1       2.923   6.599  18.259  0.00  0.00    +0.000 A 
ATOM     11  C   UNL     1       2.461   6.717  19.575  0.00  0.00    +0.000 A 
ATOM     12  C   UNL     1       1.871   7.907  20.007  0.00  0.00    +0.000 A 
ATOM     13  C   UNL     1       1.731   8.972  19.119  0.00  0.00    +0.000 A 
ATOM     14 BR   UNL     1       1.049  10.624  19.733  0.00  0.00    +0.000 Br
ATOM     15  C   UNL     1       2.114   8.835  17.786  0.00  0.00    +0.000 A 
ATOM     16  C   UNL     1       2.703   7.644  17.355  0.00  0.00    +0.000 A 
ENDBRANCH   8  10
ENDBRANCH   1   2
BRANCH   1  20
ATOM     17  N   UNL     1       8.946   9.201  18.689  0.00  0.00    +0.000 N 
ATOM     18  C   UNL     1       7.777   9.062  17.960  0.00  0.00    +0.000 C 
ATOM     19  O   UNL     1       7.170   9.953  17.379  0.00  0.00    +0.000 OA
ATOM     20  N   UNL     1       7.307   7.758  17.952  0.00  0.00    +0.000 N 
ATOM     21  H   UNL     1       9.251   8.394  19.212  0.00  0.00    +0.000 HD
ATOM     22  H   UNL     1       8.023   7.052  17.946  0.00  0.00    +0.000 HD
BRANCH  17  26
ATOM     23  C   UNL     1      11.051  12.834  19.407  0.00  0.00    +0.000 A 
ATOM     24  C   UNL     1      10.972  12.319  18.114  0.00  0.00    +0.000 A 
ATOM     25  C   UNL     1      10.293  11.119  17.870  0.00  0.00    +0.000 A 
ATOM     26  C   UNL     1       9.672  10.405  18.900  0.00  0.00    +0.000 A 
ATOM     27  C   UNL     1       9.771  10.921  20.206  0.00  0.00    +0.000 A 
ATOM     28  C   UNL     1      10.454  12.127  20.454  0.00  0.00    +0.000 A 
BRANCH  23  30
ATOM     29  N   UNL     1      12.286  15.076  19.843  0.00  0.00    +0.000 NA
ATOM     30  C   UNL     1      11.734  14.077  19.649  0.00  0.00    +0.000 C 
ENDBRANCH  23  30
ENDBRANCH  17  26
ENDBRANCH   1  20
TORSDOF 5
ENDMDL
MODEL 9
REMARK VINA RESULT:      -7.0      4.111      9.262
REMARK  Name = 
REMARK  5 active torsions:
REMARK  status: ('A' for Active; 'I' for Inactive)
REMARK    1  A    between atoms: C_2  and  C_3
REMARK    2  A    between atoms: C_6  and  N_7
REMARK    3  A    between atoms: N_10  and  C_11
REMARK    4  A    between atoms: C_11  and  C_12
REMARK    5  A    between atoms: C_18  and  C_19
REMARK                            x       y       z     vdW  Elec       q    Type
REMARK                         _______ _______ _______ _____ _____    ______ ____
ROOT
ATOM      1  C   UNL     1       0.643  11.153  20.908  0.00  0.00    +0.000 C 
ENDROOT
BRANCH   1   2
ATOM      2  C   UNL     1      -0.319  11.788  21.847  0.00  0.00    +0.000 A 
ATOM      3  C   UNL     1      -1.382  11.253  22.572  0.00  0.00    +0.000 A 
ATOM      4  N   UNL     1      -2.015  12.187  23.353  0.00  0.00    +0.000 NA
ATOM      5  C   UNL     1      -1.339  13.274  23.116  0.00  0.00    +0.000 A 
ATOM      6  S   UNL     1      -1.476  14.901  23.701  0.00  0.00    +0.000 S 
ATOM      7  C   UNL     1      -0.126  15.344  22.660  0.00  0.00    +0.000 A 
ATOM      8  C   UNL     1       0.365  14.312  21.946  0.00  0.00    +0.000 A 
ATOM      9  N   UNL     1      -0.320  13.128  22.212  0.00  0.00    +0.000 N 
BRANCH   8  10
ATOM     10  C   UNL     1       1.460  14.510  20.999  0.00  0.00    +0.000 A 
ATOM     11  C   UNL     1       2.790  14.363  21.406  0.00  0.00    +0.000 A 
ATOM     12  C   UNL     1       3.827  14.522  20.485  0.00  0.00    +0.000 A 
ATOM     13  C   UNL     1       3.534  14.841  19.160  0.00  0.00    +0.000 A 
ATOM     14 BR   UNL     1       4.925  14.932  17.884  0.00  0.00    +0.000 Br
ATOM     15  C   UNL     1       2.217  15.068  18.764  0.00  0.00    +0.000 A 
ATOM     16  C   UNL     1       1.180  14.910  19.687  0.00  0.00    +0.000 A 
ENDBRANCH   8  10
ENDBRANCH   1   2
BRANCH   1  20
ATOM     17  N   UNL     1       1.669   7.643  21.011  0.00  0.00    +0.000 N 
ATOM     18  C   UNL     1       1.320   8.854  20.439  0.00  0.00    +0.000 C 
ATOM     19  O   UNL     1       1.252   9.103  19.242  0.00  0.00    +0.000 OA
ATOM     20  N   UNL     1       1.053   9.832  21.385  0.00  0.00    +0.000 N 
ATOM     21  H   UNL     1       1.801   7.637  22.012  0.00  0.00    +0.000 HD
ATOM     22  H   UNL     1       0.614   9.496  22.226  0.00  0.00    +0.000 HD
BRANCH  17  26
ATOM     23  C   UNL     1       2.669   4.009  19.027  0.00  0.00    +0.000 A 
ATOM     24  C   UNL     1       3.376   5.176  18.741  0.00  0.00    +0.000 A 
ATOM     25  C   UNL     1       3.047   6.377  19.379  0.00  0.00    +0.000 A 
ATOM     26  C   UNL     1       2.013   6.450  20.319  0.00  0.00    +0.000 A 
ATOM     27  C   UNL     1       1.291   5.272  20.590  0.00  0.00    +0.000 A 
ATOM     28  C   UNL     1       1.620   4.062  19.948  0.00  0.00    +0.000 A 
BRANCH  23  30
ATOM     29  N   UNL     1       3.307   1.778  17.862  0.00  0.00    +0.000 NA
ATOM     30  C   UNL     1       3.024   2.772  18.382  0.00  0.00    +0.000 C 
ENDBRANCH  23  30
ENDBRANCH  17  26
ENDBRANCH   1  20
TORSDOF 5
ENDMDL
