MODEL 1
REMARK VINA RESULT:      -7.6      0.000      0.000
REMARK  Name = 
REMARK  7 active torsions:
REMARK  status: ('A' for Active; 'I' for Inactive)
REMARK    1  A    between atoms: C_1  and  O_2
REMARK    2  A    between atoms: O_2  and  C_3
REMARK    3  A    between atoms: C_6  and  N_7
REMARK    4  A    between atoms: N_7  and  S_8
REMARK    5  A    between atoms: S_8  and  C_11
REMARK    6  A    between atoms: C_23  and  O_24
REMARK    7  A    between atoms: O_24  and  C_25
REMARK                            x       y       z     vdW  Elec       q    Type
REMARK                         _______ _______ _______ _____ _____    ______ ____
ROOT
ATOM      1  S   UNL     1       2.336   5.914  19.381  0.00  0.00    +0.000 S 
ATOM      2  O   UNL     1       2.058   5.323  18.093  0.00  0.00    +0.000 OA
ATOM      3  O   UNL     1       1.652   5.475  20.580  0.00  0.00    +0.000 OA
ENDROOT
BRANCH   1   4
ATOM      4  C   UNL     1       2.036   7.662  19.251  0.00  0.00    +0.000 A 
ATOM      5  C   UNL     1       2.243   8.341  18.044  0.00  0.00    +0.000 A 
ATOM      6  C   UNL     1       1.761   9.647  17.902  0.00  0.00    +0.000 A 
ATOM      7  C   UNL     1       1.149  10.265  18.992  0.00  0.00    +0.000 A 
ATOM      8  C   UNL     1       1.242   9.664  20.255  0.00  0.00    +0.000 A 
ATOM      9  C   UNL     1       1.556   8.329  20.381  0.00  0.00    +0.000 A 
ATOM     10  N   UNL     1       1.024  10.484  21.399  0.00  0.00    +0.000 N 
ATOM     11  C   UNL     1      -0.243  10.379  21.946  0.00  0.00    +0.000 C 
ATOM     12  O   UNL     1      -0.559   9.553  22.789  0.00  0.00    +0.000 OA
ATOM     13  C   UNL     1      -1.199  11.378  21.334  0.00  0.00    +0.000 C 
ATOM     14  C   UNL     1      -1.416  11.038  19.857  0.00  0.00    +0.000 C 
ATOM     15  S   UNL     1      -0.007  11.630  18.765  0.00  0.00    +0.000 S 
ATOM     16  H   UNL     1       1.186  11.451  21.123  0.00  0.00    +0.000 HD
ENDBRANCH   1   4
BRANCH   1  17
ATOM     17  N   UNL     1       3.975   5.874  19.710  0.00  0.00    +0.000 N 
ATOM     18  H   UNL     1       4.295   6.385  20.520  0.00  0.00    +0.000 HD
BRANCH  17  22
ATOM     19  C   UNL     1       6.605   5.033  16.528  0.00  0.00    +0.000 A 
ATOM     20  C   UNL     1       6.044   6.311  16.663  0.00  0.00    +0.000 A 
ATOM     21  C   UNL     1       5.189   6.601  17.724  0.00  0.00    +0.000 A 
ATOM     22  C   UNL     1       4.880   5.604  18.646  0.00  0.00    +0.000 A 
ATOM     23  C   UNL     1       5.433   4.317  18.525  0.00  0.00    +0.000 A 
ATOM     24  C   UNL     1       6.296   4.040  17.459  0.00  0.00    +0.000 A 
BRANCH  19  26
ATOM     25  C   UNL     1       6.865   4.747  14.176  0.00  0.00    +0.000 C 
ATOM     26  O   UNL     1       7.456   4.902  15.463  0.00  0.00    +0.000 OA
ENDBRANCH  19  26
BRANCH  23  27
ATOM     27  O   UNL     1       5.124   3.428  19.526  0.00  0.00    +0.000 OA
ATOM     28  C   UNL     1       4.147   2.439  19.233  0.00  0.00    +0.000 C 
ENDBRANCH  23  27
ENDBRANCH  17  22
ENDBRANCH   1  17
TORSDOF 5
ENDMDL
MODEL 2
REMARK VINA RESULT:      -7.6      2.614      6.919
REMARK  Name = 
REMARK  7 active torsions:
REMARK  status: ('A' for Active; 'I' for Inactive)
REMARK    1  A    between atoms: C_1  and  O_2
REMARK    2  A    between atoms: O_2  and  C_3
REMARK    3  A    between atoms: C_6  and  N_7
REMARK    4  A    between atoms: N_7  and  S_8
REMARK    5  A    between atoms: S_8  and  C_11
REMARK    6  A    between atoms: C_23  and  O_24
REMARK    7  A    between atoms: O_24  and  C_25
REMARK                            x       y       z     vdW  Elec       q    Type
REMARK                         _______ _______ _______ _____ _____    ______ ____
ROOT
ATOM      1  S   UNL     1       1.661   4.403  20.696  0.00  0.00    +0.000 S 
ATOM      2  O   UNL     1       1.920   3.434  21.737  0.00  0.00    +0.000 OA
ATOM      3  O   UNL     1       0.336   4.582  20.142  0.00  0.00    +0.000 OA
ENDROOT
BRANCH   1   4
ATOM      4  C   UNL     1       2.726   4.021  19.324  0.00  0.00    +0.000 A 
ATOM      5  C   UNL     1       2.198   3.607  18.095  0.00  0.00    +0.000 A 
ATOM      6  C   UNL     1       3.032   3.562  16.973  0.00  0.00    +0.000 A 
ATOM      7  C   UNL     1       4.385   3.863  17.122  0.00  0.00    +0.000 A 
ATOM      8  C   UNL     1       4.920   3.969  18.414  0.00  0.00    +0.000 A 
ATOM      9  C   UNL     1       4.103   4.180  19.501  0.00  0.00    +0.000 A 
ATOM     10  N   UNL     1       6.329   3.827  18.563  0.00  0.00    +0.000 N 
ATOM     11  C   UNL     1       7.017   5.023  18.673  0.00  0.00    +0.000 C 
ATOM     12  O   UNL     1       7.216   5.604  19.729  0.00  0.00    +0.000 OA
ATOM     13  C   UNL     1       7.445   5.547  17.320  0.00  0.00    +0.000 C 
ATOM     14  C   UNL     1       6.207   5.918  16.501  0.00  0.00    +0.000 C 
ATOM     15  S   UNL     1       5.378   4.422  15.724  0.00  0.00    +0.000 S 
ATOM     16  H   UNL     1       6.677   3.318  17.752  0.00  0.00    +0.000 HD
ENDBRANCH   1   4
BRANCH   1  17
ATOM     17  N   UNL     1       2.213   5.916  21.145  0.00  0.00    +0.000 N 
ATOM     18  H   UNL     1       2.306   6.098  22.134  0.00  0.00    +0.000 HD
BRANCH  17  22
ATOM     19  C   UNL     1       1.740   9.176  18.519  0.00  0.00    +0.000 A 
ATOM     20  C   UNL     1       2.485   8.054  18.127  0.00  0.00    +0.000 A 
ATOM     21  C   UNL     1       2.629   6.965  18.983  0.00  0.00    +0.000 A 
ATOM     22  C   UNL     1       2.038   7.003  20.245  0.00  0.00    +0.000 A 
ATOM     23  C   UNL     1       1.289   8.120  20.654  0.00  0.00    +0.000 A 
ATOM     24  C   UNL     1       1.146   9.205  19.782  0.00  0.00    +0.000 A 
BRANCH  19  26
ATOM     25  C   UNL     1       2.225  11.419  17.875  0.00  0.00    +0.000 C 
ATOM     26  O   UNL     1       1.651  10.154  17.564  0.00  0.00    +0.000 OA
ENDBRANCH  19  26
BRANCH  23  27
ATOM     27  O   UNL     1       0.688   8.028  21.885  0.00  0.00    +0.000 OA
ATOM     28  C   UNL     1       0.179   9.229  22.448  0.00  0.00    +0.000 C 
ENDBRANCH  23  27
ENDBRANCH  17  22
ENDBRANCH   1  17
TORSDOF 5
ENDMDL
MODEL 3
REMARK VINA RESULT:      -7.4      1.636      2.068
REMARK  Name = 
REMARK  7 active torsions:
REMARK  status: ('A' for Active; 'I' for Inactive)
REMARK    1  A    between atoms: C_1  and  O_2
REMARK    2  A    between atoms: O_2  and  C_3
REMARK    3  A    between atoms: C_6  and  N_7
REMARK    4  A    between atoms: N_7  and  S_8
REMARK    5  A    between atoms: S_8  and  C_11
REMARK    6  A    between atoms: C_23  and  O_24
REMARK    7  A    between atoms: O_24  and  C_25
REMARK                            x       y       z     vdW  Elec       q    Type
REMARK                         _______ _______ _______ _____ _____    ______ ____
ROOT
ATOM      1  S   UNL     1       2.402   4.092  18.651  0.00  0.00    +0.000 S 
ATOM      2  O   UNL     1       1.873   3.762  17.347  0.00  0.00    +0.000 OA
ATOM      3  O   UNL     1       1.760   3.637  19.866  0.00  0.00    +0.000 OA
ENDROOT
BRANCH   1   4
ATOM      4  C   UNL     1       2.487   5.865  18.768  0.00  0.00    +0.000 A 
ATOM      5  C   UNL     1       3.109   6.624  17.769  0.00  0.00    +0.000 A 
ATOM      6  C   UNL     1       2.937   8.013  17.760  0.00  0.00    +0.000 A 
ATOM      7  C   UNL     1       2.211   8.613  18.787  0.00  0.00    +0.000 A 
ATOM      8  C   UNL     1       1.875   7.852  19.917  0.00  0.00    +0.000 A 
ATOM      9  C   UNL     1       1.886   6.477  19.870  0.00  0.00    +0.000 A 
ATOM     10  N   UNL     1       1.549   8.550  21.115  0.00  0.00    +0.000 N 
ATOM     11  C   UNL     1       0.191   8.670  21.356  0.00  0.00    +0.000 C 
ATOM     12  O   UNL     1      -0.473   7.840  21.956  0.00  0.00    +0.000 OA
ATOM     13  C   UNL     1      -0.375   9.930  20.740  0.00  0.00    +0.000 C 
ATOM     14  C   UNL     1      -0.288   9.837  19.215  0.00  0.00    +0.000 C 
ATOM     15  S   UNL     1       1.431  10.223  18.564  0.00  0.00    +0.000 S 
ATOM     16  H   UNL     1       1.958   9.482  21.052  0.00  0.00    +0.000 HD
ENDBRANCH   1   4
BRANCH   1  17
ATOM     17  N   UNL     1       4.015   3.666  18.760  0.00  0.00    +0.000 N 
ATOM     18  H   UNL     1       4.382   3.484  19.683  0.00  0.00    +0.000 HD
BRANCH  17  22
ATOM     19  C   UNL     1       6.679   4.781  15.693  0.00  0.00    +0.000 A 
ATOM     20  C   UNL     1       5.453   4.176  15.380  0.00  0.00    +0.000 A 
ATOM     21  C   UNL     1       4.560   3.823  16.388  0.00  0.00    +0.000 A 
ATOM     22  C   UNL     1       4.899   4.061  17.718  0.00  0.00    +0.000 A 
ATOM     23  C   UNL     1       6.125   4.665  18.049  0.00  0.00    +0.000 A 
ATOM     24  C   UNL     1       7.010   5.022  17.027  0.00  0.00    +0.000 A 
BRANCH  19  26
ATOM     25  C   UNL     1       7.042   4.566  13.347  0.00  0.00    +0.000 C 
ATOM     26  O   UNL     1       7.440   5.109  14.602  0.00  0.00    +0.000 OA
ENDBRANCH  19  26
BRANCH  23  27
ATOM     27  O   UNL     1       6.332   4.923  19.382  0.00  0.00    +0.000 OA
ATOM     28  C   UNL     1       7.470   5.703  19.721  0.00  0.00    +0.000 C 
ENDBRANCH  23  27
ENDBRANCH  17  22
ENDBRANCH   1  17
TORSDOF 5
ENDMDL
MODEL 4
REMARK VINA RESULT:      -7.3      2.576      7.210
REMARK  Name = 
REMARK  7 active torsions:
REMARK  status: ('A' for Active; 'I' for Inactive)
REMARK    1  A    between atoms: C_1  and  O_2
REMARK    2  A    between atoms: O_2  and  C_3
REMARK    3  A    between atoms: C_6  and  N_7
REMARK    4  A    between atoms: N_7  and  S_8
REMARK    5  A    between atoms: S_8  and  C_11
REMARK    6  A    between atoms: C_23  and  O_24
REMARK    7  A    between atoms: O_24  and  C_25
REMARK                            x       y       z     vdW  Elec       q    Type
REMARK                         _______ _______ _______ _____ _____    ______ ____
ROOT
ATOM      1  S   UNL     1       1.808   4.624  20.737  0.00  0.00    +0.000 S 
ATOM      2  O   UNL     1       2.061   3.681  21.802  0.00  0.00    +0.000 OA
ATOM      3  O   UNL     1       0.473   4.845  20.222  0.00  0.00    +0.000 OA
ENDROOT
BRANCH   1   4
ATOM      4  C   UNL     1       2.805   4.148  19.343  0.00  0.00    +0.000 A 
ATOM      5  C   UNL     1       2.219   3.634  18.179  0.00  0.00    +0.000 A 
ATOM      6  C   UNL     1       2.994   3.510  17.021  0.00  0.00    +0.000 A 
ATOM      7  C   UNL     1       4.348   3.835  17.074  0.00  0.00    +0.000 A 
ATOM      8  C   UNL     1       4.949   4.046  18.323  0.00  0.00    +0.000 A 
ATOM      9  C   UNL     1       4.187   4.333  19.433  0.00  0.00    +0.000 A 
ATOM     10  N   UNL     1       6.366   3.929  18.408  0.00  0.00    +0.000 N 
ATOM     11  C   UNL     1       7.042   5.137  18.389  0.00  0.00    +0.000 C 
ATOM     12  O   UNL     1       7.288   5.800  19.384  0.00  0.00    +0.000 OA
ATOM     13  C   UNL     1       7.391   5.558  16.979  0.00  0.00    +0.000 C 
ATOM     14  C   UNL     1       6.107   5.852  16.201  0.00  0.00    +0.000 C 
ATOM     15  S   UNL     1       5.259   4.292  15.587  0.00  0.00    +0.000 S 
ATOM     16  H   UNL     1       6.678   3.362  17.621  0.00  0.00    +0.000 HD
ENDBRANCH   1   4
BRANCH   1  17
ATOM     17  N   UNL     1       2.443   6.125  21.112  0.00  0.00    +0.000 N 
ATOM     18  H   UNL     1       3.078   6.174  21.896  0.00  0.00    +0.000 HD
BRANCH  17  22
ATOM     19  C   UNL     1       0.298   9.533  19.875  0.00  0.00    +0.000 A 
ATOM     20  C   UNL     1       0.047   8.955  21.128  0.00  0.00    +0.000 A 
ATOM     21  C   UNL     1       0.766   7.840  21.551  0.00  0.00    +0.000 A 
ATOM     22  C   UNL     1       1.731   7.289  20.711  0.00  0.00    +0.000 A 
ATOM     23  C   UNL     1       1.994   7.855  19.451  0.00  0.00    +0.000 A 
ATOM     24  C   UNL     1       1.271   8.979  19.041  0.00  0.00    +0.000 A 
BRANCH  19  26
ATOM     25  C   UNL     1       0.195  11.724  18.943  0.00  0.00    +0.000 C 
ATOM     26  O   UNL     1      -0.455  10.646  19.607  0.00  0.00    +0.000 OA
ENDBRANCH  19  26
BRANCH  23  27
ATOM     27  O   UNL     1       3.014   7.282  18.731  0.00  0.00    +0.000 OA
ATOM     28  C   UNL     1       3.309   7.851  17.463  0.00  0.00    +0.000 C 
ENDBRANCH  23  27
ENDBRANCH  17  22
ENDBRANCH   1  17
TORSDOF 5
ENDMDL
MODEL 5
REMARK VINA RESULT:      -7.2      3.085      8.079
REMARK  Name = 
REMARK  7 active torsions:
REMARK  status: ('A' for Active; 'I' for Inactive)
REMARK    1  A    between atoms: C_1  and  O_2
REMARK    2  A    between atoms: O_2  and  C_3
REMARK    3  A    between atoms: C_6  and  N_7
REMARK    4  A    between atoms: N_7  and  S_8
REMARK    5  A    between atoms: S_8  and  C_11
REMARK    6  A    between atoms: C_23  and  O_24
REMARK    7  A    between atoms: O_24  and  C_25
REMARK                            x       y       z     vdW  Elec       q    Type
REMARK                         _______ _______ _______ _____ _____    ______ ____
ROOT
ATOM      1  S   UNL     1       1.059   8.764  21.191  0.00  0.00    +0.000 S 
ATOM      2  O   UNL     1       2.037   8.895  22.247  0.00  0.00    +0.000 OA
ATOM      3  O   UNL     1      -0.320   8.427  21.473  0.00  0.00    +0.000 OA
ENDROOT
BRANCH   1   4
ATOM      4  C   UNL     1       1.651   7.529  20.056  0.00  0.00    +0.000 A 
ATOM      5  C   UNL     1       2.209   7.891  18.823  0.00  0.00    +0.000 A 
ATOM      6  C   UNL     1       2.890   6.927  18.073  0.00  0.00    +0.000 A 
ATOM      7  C   UNL     1       2.934   5.613  18.537  0.00  0.00    +0.000 A 
ATOM      8  C   UNL     1       2.107   5.241  19.606  0.00  0.00    +0.000 A 
ATOM      9  C   UNL     1       1.571   6.190  20.447  0.00  0.00    +0.000 A 
ATOM     10  N   UNL     1       1.823   3.856  19.776  0.00  0.00    +0.000 N 
ATOM     11  C   UNL     1       2.588   3.230  20.746  0.00  0.00    +0.000 C 
ATOM     12  O   UNL     1       2.287   3.180  21.928  0.00  0.00    +0.000 OA
ATOM     13  C   UNL     1       3.864   2.661  20.167  0.00  0.00    +0.000 C 
ATOM     14  C   UNL     1       4.760   3.805  19.686  0.00  0.00    +0.000 C 
ATOM     15  S   UNL     1       4.236   4.480  18.013  0.00  0.00    +0.000 S 
ATOM     16  H   UNL     1       1.981   3.395  18.881  0.00  0.00    +0.000 HD
ENDBRANCH   1   4
BRANCH   1  17
ATOM     17  N   UNL     1       1.042  10.131  20.228  0.00  0.00    +0.000 N 
ATOM     18  H   UNL     1       1.795  10.792  20.354  0.00  0.00    +0.000 HD
BRANCH  17  22
ATOM     19  C   UNL     1      -2.598  11.498  18.608  0.00  0.00    +0.000 A 
ATOM     20  C   UNL     1      -1.845  10.526  17.934  0.00  0.00    +0.000 A 
ATOM     21  C   UNL     1      -0.650  10.056  18.474  0.00  0.00    +0.000 A 
ATOM     22  C   UNL     1      -0.197  10.571  19.686  0.00  0.00    +0.000 A 
ATOM     23  C   UNL     1      -0.940  11.547  20.374  0.00  0.00    +0.000 A 
ATOM     24  C   UNL     1      -2.141  12.006  19.825  0.00  0.00    +0.000 A 
BRANCH  19  26
ATOM     25  C   UNL     1      -4.091  11.136  16.785  0.00  0.00    +0.000 C 
ATOM     26  O   UNL     1      -3.767  11.838  17.981  0.00  0.00    +0.000 OA
ENDBRANCH  19  26
BRANCH  23  27
ATOM     27  O   UNL     1      -0.444  11.935  21.595  0.00  0.00    +0.000 OA
ATOM     28  C   UNL     1      -1.310  11.808  22.714  0.00  0.00    +0.000 C 
ENDBRANCH  23  27
ENDBRANCH  17  22
ENDBRANCH   1  17
TORSDOF 5
ENDMDL
MODEL 6
REMARK VINA RESULT:      -7.2      4.489      6.231
REMARK  Name = 
REMARK  7 active torsions:
REMARK  status: ('A' for Active; 'I' for Inactive)
REMARK    1  A    between atoms: C_1  and  O_2
REMARK    2  A    between atoms: O_2  and  C_3
REMARK    3  A    between atoms: C_6  and  N_7
REMARK    4  A    between atoms: N_7  and  S_8
REMARK    5  A    between atoms: S_8  and  C_11
REMARK    6  A    between atoms: C_23  and  O_24
REMARK    7  A    between atoms: O_24  and  C_25
REMARK                            x       y       z     vdW  Elec       q    Type
REMARK                         _______ _______ _______ _____ _____    ______ ____
ROOT
ATOM      1  S   UNL     1       7.319   6.364  17.616  0.00  0.00    +0.000 S 
ATOM      2  O   UNL     1       8.052   6.417  18.861  0.00  0.00    +0.000 OA
ATOM      3  O   UNL     1       7.305   7.483  16.697  0.00  0.00    +0.000 OA
ENDROOT
BRANCH   1   4
ATOM      4  C   UNL     1       5.618   6.019  18.004  0.00  0.00    +0.000 A 
ATOM      5  C   UNL     1       4.581   6.763  17.427  0.00  0.00    +0.000 A 
ATOM      6  C   UNL     1       3.264   6.308  17.549  0.00  0.00    +0.000 A 
ATOM      7  C   UNL     1       3.009   5.164  18.304  0.00  0.00    +0.000 A 
ATOM      8  C   UNL     1       4.031   4.639  19.108  0.00  0.00    +0.000 A 
ATOM      9  C   UNL     1       5.348   4.962  18.876  0.00  0.00    +0.000 A 
ATOM     10  N   UNL     1       3.656   3.782  20.183  0.00  0.00    +0.000 N 
ATOM     11  C   UNL     1       3.795   2.432  19.915  0.00  0.00    +0.000 C 
ATOM     12  O   UNL     1       4.823   1.799  20.100  0.00  0.00    +0.000 OA
ATOM     13  C   UNL     1       2.535   1.850  19.315  0.00  0.00    +0.000 C 
ATOM     14  C   UNL     1       2.293   2.467  17.936  0.00  0.00    +0.000 C 
ATOM     15  S   UNL     1       1.524   4.178  18.035  0.00  0.00    +0.000 S 
ATOM     16  H   UNL     1       2.681   3.976  20.409  0.00  0.00    +0.000 HD
ENDBRANCH   1   4
BRANCH   1  17
ATOM     17  N   UNL     1       7.749   5.011  16.734  0.00  0.00    +0.000 N 
ATOM     18  H   UNL     1       8.718   4.730  16.763  0.00  0.00    +0.000 HD
BRANCH  17  22
ATOM     19  C   UNL     1       5.405   3.838  13.435  0.00  0.00    +0.000 A 
ATOM     20  C   UNL     1       5.018   3.490  14.737  0.00  0.00    +0.000 A 
ATOM     21  C   UNL     1       5.778   3.891  15.833  0.00  0.00    +0.000 A 
ATOM     22  C   UNL     1       6.941   4.631  15.627  0.00  0.00    +0.000 A 
ATOM     23  C   UNL     1       7.344   4.986  14.327  0.00  0.00    +0.000 A 
ATOM     24  C   UNL     1       6.569   4.583  13.236  0.00  0.00    +0.000 A 
BRANCH  19  26
ATOM     25  C   UNL     1       5.091   2.599  11.423  0.00  0.00    +0.000 C 
ATOM     26  O   UNL     1       4.545   3.409  12.459  0.00  0.00    +0.000 OA
ENDBRANCH  19  26
BRANCH  23  27
ATOM     27  O   UNL     1       8.463   5.777  14.237  0.00  0.00    +0.000 OA
ATOM     28  C   UNL     1       9.001   5.989  12.939  0.00  0.00    +0.000 C 
ENDBRANCH  23  27
ENDBRANCH  17  22
ENDBRANCH   1  17
TORSDOF 5
ENDMDL
MODEL 7
REMARK VINA RESULT:      -7.1      1.065      1.352
REMARK  Name = 
REMARK  7 active torsions:
REMARK  status: ('A' for Active; 'I' for Inactive)
REMARK    1  A    between atoms: C_1  and  O_2
REMARK    2  A    between atoms: O_2  and  C_3
REMARK    3  A    between atoms: C_6  and  N_7
REMARK    4  A    between atoms: N_7  and  S_8
REMARK    5  A    between atoms: S_8  and  C_11
REMARK    6  A    between atoms: C_23  and  O_24
REMARK    7  A    between atoms: O_24  and  C_25
REMARK                            x       y       z     vdW  Elec       q    Type
REMARK                         _______ _______ _______ _____ _____    ______ ____
ROOT
ATOM      1  S   UNL     1       2.426   5.667  19.607  0.00  0.00    +0.000 S 
ATOM      2  O   UNL     1       1.938   4.978  18.434  0.00  0.00    +0.000 OA
ATOM      3  O   UNL     1       1.946   5.339  20.933  0.00  0.00    +0.000 OA
ENDROOT
BRANCH   1   4
ATOM      4  C   UNL     1       2.117   7.404  19.382  0.00  0.00    +0.000 A 
ATOM      5  C   UNL     1       2.322   8.018  18.140  0.00  0.00    +0.000 A 
ATOM      6  C   UNL     1       1.832   9.311  17.928  0.00  0.00    +0.000 A 
ATOM      7  C   UNL     1       1.216   9.984  18.983  0.00  0.00    +0.000 A 
ATOM      8  C   UNL     1       1.310   9.452  20.276  0.00  0.00    +0.000 A 
ATOM      9  C   UNL     1       1.632   8.128  20.474  0.00  0.00    +0.000 A 
ATOM     10  N   UNL     1       1.086  10.331  21.374  0.00  0.00    +0.000 N 
ATOM     11  C   UNL     1      -0.181  10.249  21.925  0.00  0.00    +0.000 C 
ATOM     12  O   UNL     1      -0.494   9.468  22.810  0.00  0.00    +0.000 OA
ATOM     13  C   UNL     1      -1.142  11.208  21.258  0.00  0.00    +0.000 C 
ATOM     14  C   UNL     1      -1.355  10.788  19.802  0.00  0.00    +0.000 C 
ATOM     15  S   UNL     1       0.053  11.328  18.681  0.00  0.00    +0.000 S 
ATOM     16  H   UNL     1       1.243  11.283  21.046  0.00  0.00    +0.000 HD
ENDBRANCH   1   4
BRANCH   1  17
ATOM     17  N   UNL     1       4.096   5.624  19.667  0.00  0.00    +0.000 N 
ATOM     18  H   UNL     1       4.548   6.208  20.355  0.00  0.00    +0.000 HD
BRANCH  17  22
ATOM     19  C   UNL     1       6.225   4.379  16.251  0.00  0.00    +0.000 A 
ATOM     20  C   UNL     1       4.850   4.641  16.171  0.00  0.00    +0.000 A 
ATOM     21  C   UNL     1       4.144   5.071  17.292  0.00  0.00    +0.000 A 
ATOM     22  C   UNL     1       4.813   5.226  18.504  0.00  0.00    +0.000 A 
ATOM     23  C   UNL     1       6.191   4.966  18.602  0.00  0.00    +0.000 A 
ATOM     24  C   UNL     1       6.890   4.542  17.468  0.00  0.00    +0.000 A 
BRANCH  19  26
ATOM     25  C   UNL     1       5.967   4.026  13.908  0.00  0.00    +0.000 C 
ATOM     26  O   UNL     1       6.796   4.001  15.065  0.00  0.00    +0.000 OA
ENDBRANCH  19  26
BRANCH  23  27
ATOM     27  O   UNL     1       6.770   5.220  19.822  0.00  0.00    +0.000 OA
ATOM     28  C   UNL     1       8.092   5.739  19.815  0.00  0.00    +0.000 C 
ENDBRANCH  23  27
ENDBRANCH  17  22
ENDBRANCH   1  17
TORSDOF 5
ENDMDL
MODEL 8
REMARK VINA RESULT:      -6.9      4.529      6.548
REMARK  Name = 
REMARK  7 active torsions:
REMARK  status: ('A' for Active; 'I' for Inactive)
REMARK    1  A    between atoms: C_1  and  O_2
REMARK    2  A    between atoms: O_2  and  C_3
REMARK    3  A    between atoms: C_6  and  N_7
REMARK    4  A    between atoms: N_7  and  S_8
REMARK    5  A    between atoms: S_8  and  C_11
REMARK    6  A    between atoms: C_23  and  O_24
REMARK    7  A    between atoms: O_24  and  C_25
REMARK                            x       y       z     vdW  Elec       q    Type
REMARK                         _______ _______ _______ _____ _____    ______ ____
ROOT
ATOM      1  S   UNL     1       7.278   5.616  16.917  0.00  0.00    +0.000 S 
ATOM      2  O   UNL     1       7.824   4.278  16.881  0.00  0.00    +0.000 OA
ATOM      3  O   UNL     1       7.984   6.705  17.557  0.00  0.00    +0.000 OA
ENDROOT
BRANCH   1   4
ATOM      4  C   UNL     1       5.684   5.529  17.700  0.00  0.00    +0.000 A 
ATOM      5  C   UNL     1       4.728   6.534  17.504  0.00  0.00    +0.000 A 
ATOM      6  C   UNL     1       3.411   6.315  17.920  0.00  0.00    +0.000 A 
ATOM      7  C   UNL     1       3.097   5.130  18.583  0.00  0.00    +0.000 A 
ATOM      8  C   UNL     1       4.139   4.302  19.025  0.00  0.00    +0.000 A 
ATOM      9  C   UNL     1       5.403   4.411  18.490  0.00  0.00    +0.000 A 
ATOM     10  N   UNL     1       3.852   3.365  20.058  0.00  0.00    +0.000 N 
ATOM     11  C   UNL     1       3.625   2.073  19.614  0.00  0.00    +0.000 C 
ATOM     12  O   UNL     1       4.503   1.242  19.449  0.00  0.00    +0.000 OA
ATOM     13  C   UNL     1       2.162   1.838  19.308  0.00  0.00    +0.000 C 
ATOM     14  C   UNL     1       1.742   2.706  18.120  0.00  0.00    +0.000 C 
ATOM     15  S   UNL     1       1.412   4.490  18.609  0.00  0.00    +0.000 S 
ATOM     16  H   UNL     1       3.024   3.694  20.554  0.00  0.00    +0.000 HD
ENDBRANCH   1   4
BRANCH   1  17
ATOM     17  N   UNL     1       6.873   6.131  15.379  0.00  0.00    +0.000 N 
ATOM     18  H   UNL     1       6.516   7.071  15.287  0.00  0.00    +0.000 HD
BRANCH  17  22
ATOM     19  C   UNL     1       5.972   3.207  12.484  0.00  0.00    +0.000 A 
ATOM     20  C   UNL     1       5.113   3.412  13.573  0.00  0.00    +0.000 A 
ATOM     21  C   UNL     1       5.395   4.391  14.523  0.00  0.00    +0.000 A 
ATOM     22  C   UNL     1       6.551   5.158  14.393  0.00  0.00    +0.000 A 
ATOM     23  C   UNL     1       7.424   4.963  13.308  0.00  0.00    +0.000 A 
ATOM     24  C   UNL     1       7.126   3.983  12.357  0.00  0.00    +0.000 A 
BRANCH  19  26
ATOM     25  C   UNL     1       6.534   1.332  11.124  0.00  0.00    +0.000 C 
ATOM     26  O   UNL     1       5.551   2.240  11.610  0.00  0.00    +0.000 OA
ENDBRANCH  19  26
BRANCH  23  27
ATOM     27  O   UNL     1       8.495   5.819  13.233  0.00  0.00    +0.000 OA
ATOM     28  C   UNL     1       8.724   6.459  11.985  0.00  0.00    +0.000 C 
ENDBRANCH  23  27
ENDBRANCH  17  22
ENDBRANCH   1  17
TORSDOF 5
ENDMDL
MODEL 9
REMARK VINA RESULT:      -6.9      1.198      1.301
REMARK  Name = 
REMARK  7 active torsions:
REMARK  status: ('A' for Active; 'I' for Inactive)
REMARK    1  A    between atoms: C_1  and  O_2
REMARK    2  A    between atoms: O_2  and  C_3
REMARK    3  A    between atoms: C_6  and  N_7
REMARK    4  A    between atoms: N_7  and  S_8
REMARK    5  A    between atoms: S_8  and  C_11
REMARK    6  A    between atoms: C_23  and  O_24
REMARK    7  A    between atoms: O_24  and  C_25
REMARK                            x       y       z     vdW  Elec       q    Type
REMARK                         _______ _______ _______ _____ _____    ______ ____
ROOT
ATOM      1  S   UNL     1       2.343   5.900  19.656  0.00  0.00    +0.000 S 
ATOM      2  O   UNL     1       1.265   5.337  20.435  0.00  0.00    +0.000 OA
ATOM      3  O   UNL     1       3.724   5.778  20.074  0.00  0.00    +0.000 OA
ENDROOT
BRANCH   1   4
ATOM      4  C   UNL     1       2.030   7.642  19.477  0.00  0.00    +0.000 A 
ATOM      5  C   UNL     1       2.236   8.289  18.252  0.00  0.00    +0.000 A 
ATOM      6  C   UNL     1       1.744   9.586  18.074  0.00  0.00    +0.000 A 
ATOM      7  C   UNL     1       1.123  10.229  19.144  0.00  0.00    +0.000 A 
ATOM      8  C   UNL     1       1.216   9.663  20.424  0.00  0.00    +0.000 A 
ATOM      9  C   UNL     1       1.541   8.335  20.586  0.00  0.00    +0.000 A 
ATOM     10  N   UNL     1       0.988  10.512  21.544  0.00  0.00    +0.000 N 
ATOM     11  C   UNL     1      -0.280  10.412  22.090  0.00  0.00    +0.000 C 
ATOM     12  O   UNL     1      -0.592   9.607  22.954  0.00  0.00    +0.000 OA
ATOM     13  C   UNL     1      -1.242  11.386  21.447  0.00  0.00    +0.000 C 
ATOM     14  C   UNL     1      -1.450  11.005  19.980  0.00  0.00    +0.000 C 
ATOM     15  S   UNL     1      -0.043  11.578  18.876  0.00  0.00    +0.000 S 
ATOM     16  H   UNL     1       1.144  11.473  21.242  0.00  0.00    +0.000 HD
ENDBRANCH   1   4
BRANCH   1  17
ATOM     17  N   UNL     1       2.264   5.375  18.070  0.00  0.00    +0.000 N 
ATOM     18  H   UNL     1       1.395   4.961  17.765  0.00  0.00    +0.000 HD
BRANCH  17  22
ATOM     19  C   UNL     1       5.806   4.389  16.014  0.00  0.00    +0.000 A 
ATOM     20  C   UNL     1       5.484   5.731  16.266  0.00  0.00    +0.000 A 
ATOM     21  C   UNL     1       4.325   6.062  16.962  0.00  0.00    +0.000 A 
ATOM     22  C   UNL     1       3.472   5.049  17.395  0.00  0.00    +0.000 A 
ATOM     23  C   UNL     1       3.779   3.699  17.149  0.00  0.00    +0.000 A 
ATOM     24  C   UNL     1       4.950   3.378  16.455  0.00  0.00    +0.000 A 
BRANCH  19  26
ATOM     25  C   UNL     1       7.157   4.892  14.116  0.00  0.00    +0.000 C 
ATOM     26  O   UNL     1       6.993   4.209  15.354  0.00  0.00    +0.000 OA
ENDBRANCH  19  26
BRANCH  23  27
ATOM     27  O   UNL     1       2.912   2.775  17.681  0.00  0.00    +0.000 OA
ATOM     28  C   UNL     1       3.479   1.729  18.457  0.00  0.00    +0.000 C 
ENDBRANCH  23  27
ENDBRANCH  17  22
ENDBRANCH   1  17
TORSDOF 5
ENDMDL
