MODEL 1
REMARK VINA RESULT:      -8.4      0.000      0.000
REMARK  Name = 
REMARK  1 active torsions:
REMARK  status: ('A' for Active; 'I' for Inactive)
REMARK    1  A    between atoms: C_2  and  C_3
REMARK                            x       y       z     vdW  Elec       q    Type
REMARK                         _______ _______ _______ _____ _____    ______ ____
ROOT
ATOM      1  C   UNL     1       2.963   6.640  18.942  0.00  0.00    +0.000 A 
ATOM      2  C   UNL     1       2.222   6.909  20.133  0.00  0.00    +0.000 A 
ATOM      3  C   UNL     1       1.611   8.125  19.928  0.00  0.00    +0.000 A 
ATOM      4  N   UNL     1       1.975   8.507  18.678  0.00  0.00    +0.000 N 
ATOM      5  N   UNL     1       2.815   7.657  18.068  0.00  0.00    +0.000 NA
ATOM      6  C   UNL     1       1.550   9.712  18.006  0.00  0.00    +0.000 C 
ATOM      7  C   UNL     1       0.457  10.476  18.755  0.00  0.00    +0.000 C 
ATOM      8  N   UNL     1       0.536  10.338  20.220  0.00  0.00    +0.000 N 
ATOM      9  C   UNL     1      -0.476  11.061  20.900  0.00  0.00    +0.000 A 
ATOM     10  C   UNL     1      -0.343  11.281  22.268  0.00  0.00    +0.000 A 
ATOM     11  C   UNL     1      -1.280  12.054  22.946  0.00  0.00    +0.000 A 
ATOM     12  C   UNL     1      -2.358  12.599  22.250  0.00  0.00    +0.000 A 
ATOM     13  C   UNL     1      -3.310  13.399  22.895  0.00  0.00    +0.000 A 
ATOM     14  C   UNL     1      -4.389  13.922  22.187  0.00  0.00    +0.000 A 
ATOM     15  C   UNL     1      -4.518  13.629  20.835  0.00  0.00    +0.000 A 
ATOM     16  C   UNL     1      -3.558  12.832  20.194  0.00  0.00    +0.000 A 
ATOM     17  C   UNL     1      -2.455  12.313  20.872  0.00  0.00    +0.000 A 
ATOM     18  N   UNL     1      -1.533  11.574  20.221  0.00  0.00    +0.000 NA
ATOM     19  C   UNL     1       0.702   8.971  20.743  0.00  0.00    +0.000 C 
ENDROOT
BRANCH   1  21
ATOM     20  O   UNL     1       4.910   5.463  18.334  0.00  0.00    +0.000 OA
ATOM     21  C   UNL     1       3.721   5.401  18.652  0.00  0.00    +0.000 C 
ATOM     22  N   UNL     1       3.069   4.175  18.757  0.00  0.00    +0.000 N 
ATOM     23  C   UNL     1       3.784   2.921  18.648  0.00  0.00    +0.000 C 
ATOM     24  C   UNL     1       2.817   2.019  17.902  0.00  0.00    +0.000 C 
ATOM     25  C   UNL     1       1.460   2.465  18.434  0.00  0.00    +0.000 C 
ATOM     26  C   UNL     1       1.629   3.963  18.674  0.00  0.00    +0.000 C 
ENDBRANCH   1  21
TORSDOF 1
ENDMDL
MODEL 2
REMARK VINA RESULT:      -8.3      3.498      5.149
REMARK  Name = 
REMARK  1 active torsions:
REMARK  status: ('A' for Active; 'I' for Inactive)
REMARK    1  A    between atoms: C_2  and  C_3
REMARK                            x       y       z     vdW  Elec       q    Type
REMARK                         _______ _______ _______ _____ _____    ______ ____
ROOT
ATOM      1  C   UNL     1       5.545   5.499  15.701  0.00  0.00    +0.000 A 
ATOM      2  C   UNL     1       5.113   6.847  15.887  0.00  0.00    +0.000 A 
ATOM      3  C   UNL     1       4.155   6.801  16.875  0.00  0.00    +0.000 A 
ATOM      4  N   UNL     1       4.071   5.496  17.237  0.00  0.00    +0.000 N 
ATOM      5  N   UNL     1       4.867   4.679  16.530  0.00  0.00    +0.000 NA
ATOM      6  C   UNL     1       3.216   4.959  18.269  0.00  0.00    +0.000 C 
ATOM      7  C   UNL     1       2.515   6.034  19.101  0.00  0.00    +0.000 C 
ATOM      8  N   UNL     1       2.219   7.265  18.349  0.00  0.00    +0.000 N 
ATOM      9  C   UNL     1       1.558   8.247  19.130  0.00  0.00    +0.000 A 
ATOM     10  C   UNL     1       0.943   9.317  18.487  0.00  0.00    +0.000 A 
ATOM     11  C   UNL     1       0.221  10.252  19.223  0.00  0.00    +0.000 A 
ATOM     12  C   UNL     1       0.126  10.117  20.607  0.00  0.00    +0.000 A 
ATOM     13  C   UNL     1      -0.609  11.027  21.378  0.00  0.00    +0.000 A 
ATOM     14  C   UNL     1      -0.680  10.886  22.760  0.00  0.00    +0.000 A 
ATOM     15  C   UNL     1      -0.001   9.837  23.370  0.00  0.00    +0.000 A 
ATOM     16  C   UNL     1       0.729   8.926  22.592  0.00  0.00    +0.000 A 
ATOM     17  C   UNL     1       0.799   9.029  21.202  0.00  0.00    +0.000 A 
ATOM     18  N   UNL     1       1.484   8.120  20.479  0.00  0.00    +0.000 NA
ATOM     19  C   UNL     1       3.321   7.828  17.549  0.00  0.00    +0.000 C 
ENDROOT
BRANCH   1  21
ATOM     20  O   UNL     1       7.782   5.468  14.964  0.00  0.00    +0.000 OA
ATOM     21  C   UNL     1       6.633   5.052  14.800  0.00  0.00    +0.000 C 
ATOM     22  N   UNL     1       6.334   4.153  13.781  0.00  0.00    +0.000 N 
ATOM     23  C   UNL     1       7.371   3.550  12.969  0.00  0.00    +0.000 C 
ATOM     24  C   UNL     1       6.751   3.482  11.586  0.00  0.00    +0.000 C 
ATOM     25  C   UNL     1       5.285   3.191  11.885  0.00  0.00    +0.000 C 
ATOM     26  C   UNL     1       5.019   3.933  13.193  0.00  0.00    +0.000 C 
ENDBRANCH   1  21
TORSDOF 1
ENDMDL
MODEL 3
REMARK VINA RESULT:      -8.2      3.103      9.464
REMARK  Name = 
REMARK  1 active torsions:
REMARK  status: ('A' for Active; 'I' for Inactive)
REMARK    1  A    between atoms: C_2  and  C_3
REMARK                            x       y       z     vdW  Elec       q    Type
REMARK                         _______ _______ _______ _____ _____    ______ ____
ROOT
ATOM      1  C   UNL     1       0.033  12.022  19.772  0.00  0.00    +0.000 A 
ATOM      2  C   UNL     1       0.461  11.251  18.649  0.00  0.00    +0.000 A 
ATOM      3  C   UNL     1       0.955  10.074  19.168  0.00  0.00    +0.000 A 
ATOM      4  N   UNL     1       0.791  10.175  20.512  0.00  0.00    +0.000 N 
ATOM      5  N   UNL     1       0.272  11.346  20.914  0.00  0.00    +0.000 NA
ATOM      6  C   UNL     1       1.136   9.164  21.482  0.00  0.00    +0.000 C 
ATOM      7  C   UNL     1       1.538   7.828  20.855  0.00  0.00    +0.000 C 
ATOM      8  N   UNL     1       2.197   7.965  19.544  0.00  0.00    +0.000 N 
ATOM      9  C   UNL     1       2.576   6.719  18.982  0.00  0.00    +0.000 A 
ATOM     10  C   UNL     1       3.472   6.706  17.917  0.00  0.00    +0.000 A 
ATOM     11  C   UNL     1       3.921   5.497  17.398  0.00  0.00    +0.000 A 
ATOM     12  C   UNL     1       3.461   4.298  17.942  0.00  0.00    +0.000 A 
ATOM     13  C   UNL     1       3.908   3.061  17.458  0.00  0.00    +0.000 A 
ATOM     14  C   UNL     1       3.426   1.875  18.003  0.00  0.00    +0.000 A 
ATOM     15  C   UNL     1       2.485   1.931  19.025  0.00  0.00    +0.000 A 
ATOM     16  C   UNL     1       2.047   3.173  19.509  0.00  0.00    +0.000 A 
ATOM     17  C   UNL     1       2.529   4.379  18.997  0.00  0.00    +0.000 A 
ATOM     18  N   UNL     1       2.111   5.557  19.504  0.00  0.00    +0.000 NA
ATOM     19  C   UNL     1       1.538   8.849  18.567  0.00  0.00    +0.000 C 
ENDROOT
BRANCH   1  21
ATOM     20  O   UNL     1      -1.876  13.400  19.831  0.00  0.00    +0.000 OA
ATOM     21  C   UNL     1      -0.651  13.335  19.713  0.00  0.00    +0.000 C 
ATOM     22  N   UNL     1       0.115  14.484  19.535  0.00  0.00    +0.000 N 
ATOM     23  C   UNL     1      -0.465  15.807  19.631  0.00  0.00    +0.000 C 
ATOM     24  C   UNL     1       0.264  16.598  18.560  0.00  0.00    +0.000 C 
ATOM     25  C   UNL     1       1.670  16.011  18.603  0.00  0.00    +0.000 C 
ATOM     26  C   UNL     1       1.448  14.540  18.948  0.00  0.00    +0.000 C 
ENDBRANCH   1  21
TORSDOF 1
ENDMDL
MODEL 4
REMARK VINA RESULT:      -8.2      2.640      9.445
REMARK  Name = 
REMARK  1 active torsions:
REMARK  status: ('A' for Active; 'I' for Inactive)
REMARK    1  A    between atoms: C_2  and  C_3
REMARK                            x       y       z     vdW  Elec       q    Type
REMARK                         _______ _______ _______ _____ _____    ______ ____
ROOT
ATOM      1  C   UNL     1       0.139  10.066  21.458  0.00  0.00    +0.000 A 
ATOM      2  C   UNL     1       0.683   8.749  21.542  0.00  0.00    +0.000 A 
ATOM      3  C   UNL     1       1.268   8.506  20.319  0.00  0.00    +0.000 A 
ATOM      4  N   UNL     1       1.078   9.638  19.596  0.00  0.00    +0.000 N 
ATOM      5  N   UNL     1       0.374  10.585  20.235  0.00  0.00    +0.000 NA
ATOM      6  C   UNL     1       1.548   9.870  18.251  0.00  0.00    +0.000 C 
ATOM      7  C   UNL     1       2.485   8.778  17.735  0.00  0.00    +0.000 C 
ATOM      8  N   UNL     1       2.195   7.441  18.283  0.00  0.00    +0.000 N 
ATOM      9  C   UNL     1       3.064   6.437  17.786  0.00  0.00    +0.000 A 
ATOM     10  C   UNL     1       2.720   5.100  17.964  0.00  0.00    +0.000 A 
ATOM     11  C   UNL     1       3.513   4.096  17.419  0.00  0.00    +0.000 A 
ATOM     12  C   UNL     1       4.660   4.436  16.702  0.00  0.00    +0.000 A 
ATOM     13  C   UNL     1       5.471   3.452  16.120  0.00  0.00    +0.000 A 
ATOM     14  C   UNL     1       6.621   3.809  15.421  0.00  0.00    +0.000 A 
ATOM     15  C   UNL     1       6.961   5.153  15.317  0.00  0.00    +0.000 A 
ATOM     16  C   UNL     1       6.142   6.132  15.897  0.00  0.00    +0.000 A 
ATOM     17  C   UNL     1       4.972   5.806  16.584  0.00  0.00    +0.000 A 
ATOM     18  N   UNL     1       4.188   6.773  17.104  0.00  0.00    +0.000 NA
ATOM     19  C   UNL     1       2.010   7.356  19.742  0.00  0.00    +0.000 C 
ENDROOT
BRANCH   1  21
ATOM     20  O   UNL     1      -0.332  10.463  23.731  0.00  0.00    +0.000 OA
ATOM     21  C   UNL     1      -0.515  10.806  22.562  0.00  0.00    +0.000 C 
ATOM     22  N   UNL     1      -1.324  11.896  22.252  0.00  0.00    +0.000 N 
ATOM     23  C   UNL     1      -1.861  12.762  23.281  0.00  0.00    +0.000 C 
ATOM     24  C   UNL     1      -3.248  13.109  22.772  0.00  0.00    +0.000 C 
ATOM     25  C   UNL     1      -3.044  13.193  21.264  0.00  0.00    +0.000 C 
ATOM     26  C   UNL     1      -1.980  12.138  20.973  0.00  0.00    +0.000 C 
ENDBRANCH   1  21
TORSDOF 1
ENDMDL
MODEL 5
REMARK VINA RESULT:      -8.2      1.579      2.261
REMARK  Name = 
REMARK  1 active torsions:
REMARK  status: ('A' for Active; 'I' for Inactive)
REMARK    1  A    between atoms: C_2  and  C_3
REMARK                            x       y       z     vdW  Elec       q    Type
REMARK                         _______ _______ _______ _____ _____    ______ ____
ROOT
ATOM      1  C   UNL     1       3.175   6.597  18.442  0.00  0.00    +0.000 A 
ATOM      2  C   UNL     1       2.390   6.717  19.629  0.00  0.00    +0.000 A 
ATOM      3  C   UNL     1       1.817   7.968  19.575  0.00  0.00    +0.000 A 
ATOM      4  N   UNL     1       2.244   8.511  18.407  0.00  0.00    +0.000 N 
ATOM      5  N   UNL     1       3.088   7.731  17.716  0.00  0.00    +0.000 NA
ATOM      6  C   UNL     1       1.877   9.811  17.897  0.00  0.00    +0.000 C 
ATOM      7  C   UNL     1       0.771  10.494  18.703  0.00  0.00    +0.000 C 
ATOM      8  N   UNL     1       0.784  10.149  20.136  0.00  0.00    +0.000 N 
ATOM      9  C   UNL     1      -0.239  10.799  20.872  0.00  0.00    +0.000 A 
ATOM     10  C   UNL     1      -0.160  10.819  22.261  0.00  0.00    +0.000 A 
ATOM     11  C   UNL     1      -1.107  11.516  23.004  0.00  0.00    +0.000 A 
ATOM     12  C   UNL     1      -2.141  12.186  22.351  0.00  0.00    +0.000 A 
ATOM     13  C   UNL     1      -3.100  12.915  23.065  0.00  0.00    +0.000 A 
ATOM     14  C   UNL     1      -4.134  13.565  22.397  0.00  0.00    +0.000 A 
ATOM     15  C   UNL     1      -4.212  13.469  21.013  0.00  0.00    +0.000 A 
ATOM     16  C   UNL     1      -3.245  12.742  20.303  0.00  0.00    +0.000 A 
ATOM     17  C   UNL     1      -2.184  12.100  20.944  0.00  0.00    +0.000 A 
ATOM     18  N   UNL     1      -1.253  11.433  20.231  0.00  0.00    +0.000 NA
ATOM     19  C   UNL     1       0.894   8.717  20.466  0.00  0.00    +0.000 C 
ENDROOT
BRANCH   1  21
ATOM     20  O   UNL     1       3.395   4.276  18.112  0.00  0.00    +0.000 OA
ATOM     21  C   UNL     1       3.914   5.389  18.009  0.00  0.00    +0.000 C 
ATOM     22  N   UNL     1       5.192   5.538  17.477  0.00  0.00    +0.000 N 
ATOM     23  C   UNL     1       5.905   4.426  16.885  0.00  0.00    +0.000 C 
ATOM     24  C   UNL     1       7.346   4.662  17.297  0.00  0.00    +0.000 C 
ATOM     25  C   UNL     1       7.463   6.181  17.265  0.00  0.00    +0.000 C 
ATOM     26  C   UNL     1       6.084   6.669  17.699  0.00  0.00    +0.000 C 
ENDBRANCH   1  21
TORSDOF 1
ENDMDL
MODEL 6
REMARK VINA RESULT:      -8.0      2.535      9.269
REMARK  Name = 
REMARK  1 active torsions:
REMARK  status: ('A' for Active; 'I' for Inactive)
REMARK    1  A    between atoms: C_2  and  C_3
REMARK                            x       y       z     vdW  Elec       q    Type
REMARK                         _______ _______ _______ _____ _____    ______ ____
ROOT
ATOM      1  C   UNL     1       0.085  12.278  20.888  0.00  0.00    +0.000 A 
ATOM      2  C   UNL     1       0.408  11.614  19.666  0.00  0.00    +0.000 A 
ATOM      3  C   UNL     1       0.832  10.353  20.025  0.00  0.00    +0.000 A 
ATOM      4  N   UNL     1       0.730  10.309  21.377  0.00  0.00    +0.000 N 
ATOM      5  N   UNL     1       0.317  11.458  21.934  0.00  0.00    +0.000 NA
ATOM      6  C   UNL     1       1.035   9.170  22.209  0.00  0.00    +0.000 C 
ATOM      7  C   UNL     1       1.310   7.891  21.418  0.00  0.00    +0.000 C 
ATOM      8  N   UNL     1       1.925   8.132  20.100  0.00  0.00    +0.000 N 
ATOM      9  C   UNL     1       2.186   6.937  19.383  0.00  0.00    +0.000 A 
ATOM     10  C   UNL     1       3.036   6.984  18.282  0.00  0.00    +0.000 A 
ATOM     11  C   UNL     1       3.372   5.814  17.608  0.00  0.00    +0.000 A 
ATOM     12  C   UNL     1       2.844   4.596  18.035  0.00  0.00    +0.000 A 
ATOM     13  C   UNL     1       3.177   3.395  17.394  0.00  0.00    +0.000 A 
ATOM     14  C   UNL     1       2.628   2.191  17.824  0.00  0.00    +0.000 A 
ATOM     15  C   UNL     1       1.736   2.194  18.890  0.00  0.00    +0.000 A 
ATOM     16  C   UNL     1       1.412   3.399  19.531  0.00  0.00    +0.000 A 
ATOM     17  C   UNL     1       1.963   4.619  19.137  0.00  0.00    +0.000 A 
ATOM     18  N   UNL     1       1.656   5.757  19.792  0.00  0.00    +0.000 NA
ATOM     19  C   UNL     1       1.297   9.167  19.262  0.00  0.00    +0.000 C 
ENDROOT
BRANCH   1  21
ATOM     20  O   UNL     1       0.230  14.607  21.203  0.00  0.00    +0.000 OA
ATOM     21  C   UNL     1      -0.500  13.633  21.011  0.00  0.00    +0.000 C 
ATOM     22  N   UNL     1      -1.879  13.783  20.895  0.00  0.00    +0.000 N 
ATOM     23  C   UNL     1      -2.502  15.089  20.841  0.00  0.00    +0.000 C 
ATOM     24  C   UNL     1      -3.789  14.907  21.624  0.00  0.00    +0.000 C 
ATOM     25  C   UNL     1      -4.200  13.481  21.274  0.00  0.00    +0.000 C 
ATOM     26  C   UNL     1      -2.874  12.741  21.117  0.00  0.00    +0.000 C 
ENDBRANCH   1  21
TORSDOF 1
ENDMDL
MODEL 7
REMARK VINA RESULT:      -7.9      2.856      9.444
REMARK  Name = 
REMARK  1 active torsions:
REMARK  status: ('A' for Active; 'I' for Inactive)
REMARK    1  A    between atoms: C_2  and  C_3
REMARK                            x       y       z     vdW  Elec       q    Type
REMARK                         _______ _______ _______ _____ _____    ______ ____
ROOT
ATOM      1  C   UNL     1      -0.619  11.038  21.708  0.00  0.00    +0.000 A 
ATOM      2  C   UNL     1       0.175   9.902  22.048  0.00  0.00    +0.000 A 
ATOM      3  C   UNL     1       0.672   9.421  20.857  0.00  0.00    +0.000 A 
ATOM      4  N   UNL     1       0.196  10.259  19.902  0.00  0.00    +0.000 N 
ATOM      5  N   UNL     1      -0.611  11.223  20.372  0.00  0.00    +0.000 NA
ATOM      6  C   UNL     1       0.477  10.175  18.489  0.00  0.00    +0.000 C 
ATOM      7  C   UNL     1       1.553   9.145  18.140  0.00  0.00    +0.000 C 
ATOM      8  N   UNL     1       1.581   7.988  19.053  0.00  0.00    +0.000 N 
ATOM      9  C   UNL     1       2.575   7.036  18.710  0.00  0.00    +0.000 A 
ATOM     10  C   UNL     1       2.515   5.767  19.277  0.00  0.00    +0.000 A 
ATOM     11  C   UNL     1       3.430   4.790  18.899  0.00  0.00    +0.000 A 
ATOM     12  C   UNL     1       4.413   5.091  17.956  0.00  0.00    +0.000 A 
ATOM     13  C   UNL     1       5.337   4.126  17.536  0.00  0.00    +0.000 A 
ATOM     14  C   UNL     1       6.321   4.450  16.606  0.00  0.00    +0.000 A 
ATOM     15  C   UNL     1       6.384   5.746  16.109  0.00  0.00    +0.000 A 
ATOM     16  C   UNL     1       5.451   6.706  16.530  0.00  0.00    +0.000 A 
ATOM     17  C   UNL     1       4.440   6.405  17.443  0.00  0.00    +0.000 A 
ATOM     18  N   UNL     1       3.540   7.341  17.806  0.00  0.00    +0.000 NA
ATOM     19  C   UNL     1       1.561   8.288  20.495  0.00  0.00    +0.000 C 
ENDROOT
BRANCH   1  21
ATOM     20  O   UNL     1      -2.289  11.565  23.283  0.00  0.00    +0.000 OA
ATOM     21  C   UNL     1      -1.292  11.946  22.666  0.00  0.00    +0.000 C 
ATOM     22  N   UNL     1      -0.771  13.222  22.862  0.00  0.00    +0.000 N 
ATOM     23  C   UNL     1      -1.276  14.100  23.897  0.00  0.00    +0.000 C 
ATOM     24  C   UNL     1      -1.224  15.476  23.259  0.00  0.00    +0.000 C 
ATOM     25  C   UNL     1       0.032  15.403  22.398  0.00  0.00    +0.000 C 
ATOM     26  C   UNL     1       0.077  13.952  21.928  0.00  0.00    +0.000 C 
ENDBRANCH   1  21
TORSDOF 1
ENDMDL
MODEL 8
REMARK VINA RESULT:      -7.9      3.159      9.449
REMARK  Name = 
REMARK  1 active torsions:
REMARK  status: ('A' for Active; 'I' for Inactive)
REMARK    1  A    between atoms: C_2  and  C_3
REMARK                            x       y       z     vdW  Elec       q    Type
REMARK                         _______ _______ _______ _____ _____    ______ ____
ROOT
ATOM      1  C   UNL     1       0.156  12.247  20.488  0.00  0.00    +0.000 A 
ATOM      2  C   UNL     1       0.518  11.535  19.304  0.00  0.00    +0.000 A 
ATOM      3  C   UNL     1       0.930  10.290  19.726  0.00  0.00    +0.000 A 
ATOM      4  N   UNL     1       0.786  10.300  21.075  0.00  0.00    +0.000 N 
ATOM      5  N   UNL     1       0.355  11.470  21.572  0.00  0.00    +0.000 NA
ATOM      6  C   UNL     1       1.065   9.196  21.962  0.00  0.00    +0.000 C 
ATOM      7  C   UNL     1       1.366   7.886  21.231  0.00  0.00    +0.000 C 
ATOM      8  N   UNL     1       2.022   8.076  19.925  0.00  0.00    +0.000 N 
ATOM      9  C   UNL     1       2.306   6.853  19.265  0.00  0.00    +0.000 A 
ATOM     10  C   UNL     1       3.190   6.858  18.190  0.00  0.00    +0.000 A 
ATOM     11  C   UNL     1       3.547   5.663  17.575  0.00  0.00    +0.000 A 
ATOM     12  C   UNL     1       3.007   4.462  18.033  0.00  0.00    +0.000 A 
ATOM     13  C   UNL     1       3.360   3.237  17.451  0.00  0.00    +0.000 A 
ATOM     14  C   UNL     1       2.799   2.049  17.912  0.00  0.00    +0.000 A 
ATOM     15  C   UNL     1       1.873   2.094  18.948  0.00  0.00    +0.000 A 
ATOM     16  C   UNL     1       1.528   3.323  19.530  0.00  0.00    +0.000 A 
ATOM     17  C   UNL     1       2.092   4.527  19.104  0.00  0.00    +0.000 A 
ATOM     18  N   UNL     1       1.763   5.690  19.704  0.00  0.00    +0.000 NA
ATOM     19  C   UNL     1       1.420   9.076  19.026  0.00  0.00    +0.000 C 
ENDROOT
BRANCH   1  21
ATOM     20  O   UNL     1      -1.590  13.792  20.155  0.00  0.00    +0.000 OA
ATOM     21  C   UNL     1      -0.433  13.605  20.538  0.00  0.00    +0.000 C 
ATOM     22  N   UNL     1       0.337  14.653  21.033  0.00  0.00    +0.000 N 
ATOM     23  C   UNL     1      -0.224  15.968  21.263  0.00  0.00    +0.000 C 
ATOM     24  C   UNL     1       0.897  16.912  20.867  0.00  0.00    +0.000 C 
ATOM     25  C   UNL     1       2.146  16.160  21.312  0.00  0.00    +0.000 C 
ATOM     26  C   UNL     1       1.793  14.691  21.091  0.00  0.00    +0.000 C 
ENDBRANCH   1  21
TORSDOF 1
ENDMDL
MODEL 9
REMARK VINA RESULT:      -7.7      3.108      9.429
REMARK  Name = 
REMARK  1 active torsions:
REMARK  status: ('A' for Active; 'I' for Inactive)
REMARK    1  A    between atoms: C_2  and  C_3
REMARK                            x       y       z     vdW  Elec       q    Type
REMARK                         _______ _______ _______ _____ _____    ______ ____
ROOT
ATOM      1  C   UNL     1      -2.799  13.054  20.763  0.00  0.00    +0.000 A 
ATOM      2  C   UNL     1      -2.351  12.381  19.586  0.00  0.00    +0.000 A 
ATOM      3  C   UNL     1      -1.343  11.538  19.996  0.00  0.00    +0.000 A 
ATOM      4  N   UNL     1      -1.247  11.715  21.338  0.00  0.00    +0.000 N 
ATOM      5  N   UNL     1      -2.082  12.644  21.829  0.00  0.00    +0.000 NA
ATOM      6  C   UNL     1      -0.342  11.017  22.220  0.00  0.00    +0.000 C 
ATOM      7  C   UNL     1       0.406   9.869  21.541  0.00  0.00    +0.000 C 
ATOM      8  N   UNL     1       0.669  10.098  20.110  0.00  0.00    +0.000 N 
ATOM      9  C   UNL     1       1.375   9.031  19.498  0.00  0.00    +0.000 A 
ATOM     10  C   UNL     1       1.962   9.238  18.253  0.00  0.00    +0.000 A 
ATOM     11  C   UNL     1       2.725   8.234  17.665  0.00  0.00    +0.000 A 
ATOM     12  C   UNL     1       2.891   7.017  18.325  0.00  0.00    +0.000 A 
ATOM     13  C   UNL     1       3.670   5.992  17.773  0.00  0.00    +0.000 A 
ATOM     14  C   UNL     1       3.812   4.778  18.439  0.00  0.00    +0.000 A 
ATOM     15  C   UNL     1       3.160   4.590  19.652  0.00  0.00    +0.000 A 
ATOM     16  C   UNL     1       2.386   5.623  20.202  0.00  0.00    +0.000 A 
ATOM     17  C   UNL     1       2.244   6.858  19.568  0.00  0.00    +0.000 A 
ATOM     18  N   UNL     1       1.518   7.842  20.137  0.00  0.00    +0.000 NA
ATOM     19  C   UNL     1      -0.469  10.561  19.298  0.00  0.00    +0.000 C 
ENDROOT
BRANCH   1  21
ATOM     20  O   UNL     1      -3.728  15.200  21.050  0.00  0.00    +0.000 OA
ATOM     21  C   UNL     1      -3.934  14.002  20.842  0.00  0.00    +0.000 C 
ATOM     22  N   UNL     1      -5.227  13.517  20.666  0.00  0.00    +0.000 N 
ATOM     23  C   UNL     1      -6.367  14.406  20.568  0.00  0.00    +0.000 C 
ATOM     24  C   UNL     1      -7.468  13.660  21.299  0.00  0.00    +0.000 C 
ATOM     25  C   UNL     1      -7.180  12.204  20.953  0.00  0.00    +0.000 C 
ATOM     26  C   UNL     1      -5.657  12.139  20.862  0.00  0.00    +0.000 C 
ENDBRANCH   1  21
TORSDOF 1
ENDMDL
