MODEL 1
REMARK VINA RESULT:      -7.1      0.000      0.000
REMARK  Name = 
REMARK  8 active torsions:
REMARK  status: ('A' for Active; 'I' for Inactive)
REMARK    1  A    between atoms: C_1  and  O_2
REMARK    2  A    between atoms: O_2  and  C_3
REMARK    3  A    between atoms: C_10  and  C_11
REMARK    4  A    between atoms: C_11  and  C_13
REMARK    5  A    between atoms: C_14  and  O_15
REMARK    6  A    between atoms: C_21  and  C_22
REMARK    7  A    between atoms: C_23  and  C_24
REMARK    8  A    between atoms: C_26  and  C_27
REMARK                            x       y       z     vdW  Elec       q    Type
REMARK                         _______ _______ _______ _____ _____    ______ ____
ROOT
ATOM      1  C   UNL     1      -0.793  12.397  19.151  0.00  0.00    +0.000 C 
ATOM      2  C   UNL     1      -1.678  12.109  18.185  0.00  0.00    +0.000 C 
ATOM      3  C   UNL     1      -3.027  12.126  18.808  0.00  0.00    +0.000 C 
ATOM      4  O   UNL     1      -4.038  11.959  18.147  0.00  0.00    +0.000 OA
ATOM      5  N   UNL     1      -2.860  12.437  20.147  0.00  0.00    +0.000 N 
ATOM      6  C   UNL     1      -3.928  12.755  20.968  0.00  0.00    +0.000 A 
ATOM      7  N   UNL     1      -3.859  13.508  22.044  0.00  0.00    +0.000 NA
ATOM      8  C   UNL     1      -5.127  13.652  22.608  0.00  0.00    +0.000 A 
ATOM      9  C   UNL     1      -5.302  14.563  23.770  0.00  0.00    +0.000 C 
ATOM     10  C   UNL     1      -6.119  12.899  22.005  0.00  0.00    +0.000 A 
ATOM     11  C   UNL     1      -7.555  12.723  22.346  0.00  0.00    +0.000 C 
ATOM     12  S   UNL     1      -5.471  12.083  20.654  0.00  0.00    +0.000 S 
ATOM     13  C   UNL     1      -1.458  12.560  20.499  0.00  0.00    +0.000 C 
ENDROOT
BRANCH  13  14
ATOM     14  C   UNL     1      -1.127  11.502  21.512  0.00  0.00    +0.000 A 
ATOM     15  C   UNL     1      -1.176  11.453  22.892  0.00  0.00    +0.000 A 
ATOM     16  C   UNL     1      -0.721  10.166  23.269  0.00  0.00    +0.000 A 
ATOM     17  C   UNL     1      -0.417   9.511  22.100  0.00  0.00    +0.000 A 
ATOM     18  O   UNL     1      -0.660  10.311  21.029  0.00  0.00    +0.000 OA
ENDBRANCH  13  14
BRANCH   1  19
ATOM     19  C   UNL     1       0.673  12.623  19.011  0.00  0.00    +0.000 C 
ATOM     20  O   UNL     1       1.339  11.801  18.382  0.00  0.00    +0.000 OA
BRANCH  19  28
ATOM     21  C   UNL     1       0.616  16.973  18.226  0.00  0.00    +0.000 A 
ATOM     22  C   UNL     1       1.420  17.696  17.343  0.00  0.00    +0.000 A 
ATOM     23  C   UNL     1       2.719  17.253  17.030  0.00  0.00    +0.000 A 
ATOM     24  C   UNL     1       3.239  16.088  17.601  0.00  0.00    +0.000 A 
ATOM     25  C   UNL     1       2.434  15.377  18.469  0.00  0.00    +0.000 A 
ATOM     26  C   UNL     1       1.155  15.817  18.771  0.00  0.00    +0.000 A 
ATOM     27  O   UNL     1       0.505  14.994  19.655  0.00  0.00    +0.000 OA
ATOM     28  C   UNL     1       1.327  13.810  19.749  0.00  0.00    +0.000 C 
ATOM     29  C   UNL     1       2.739  14.163  19.262  0.00  0.00    +0.000 C 
BRANCH  21  31
ATOM     30  C   UNL     1      -1.242  18.412  17.943  0.00  0.00    +0.000 C 
ATOM     31  O   UNL     1      -0.642  17.319  18.629  0.00  0.00    +0.000 OA
ENDBRANCH  21  31
ENDBRANCH  19  28
ENDBRANCH   1  19
BRANCH   2  32
ATOM     32  O   UNL     1      -1.539  11.888  16.849  0.00  0.00    +0.000 OA
ATOM     33  H   UNL     1      -1.033  12.602  16.420  0.00  0.00    +0.000 HD
ENDBRANCH   2  32
TORSDOF 5
ENDMDL
MODEL 2
REMARK VINA RESULT:      -7.0      1.214      1.385
REMARK  Name = 
REMARK  8 active torsions:
REMARK  status: ('A' for Active; 'I' for Inactive)
REMARK    1  A    between atoms: C_1  and  O_2
REMARK    2  A    between atoms: O_2  and  C_3
REMARK    3  A    between atoms: C_10  and  C_11
REMARK    4  A    between atoms: C_11  and  C_13
REMARK    5  A    between atoms: C_14  and  O_15
REMARK    6  A    between atoms: C_21  and  C_22
REMARK    7  A    between atoms: C_23  and  C_24
REMARK    8  A    between atoms: C_26  and  C_27
REMARK                            x       y       z     vdW  Elec       q    Type
REMARK                         _______ _______ _______ _____ _____    ______ ____
ROOT
ATOM      1  C   UNL     1      -0.201  12.277  19.444  0.00  0.00    +0.000 C 
ATOM      2  C   UNL     1      -1.252  12.409  18.622  0.00  0.00    +0.000 C 
ATOM      3  C   UNL     1      -2.462  12.543  19.474  0.00  0.00    +0.000 C 
ATOM      4  O   UNL     1      -3.564  12.741  18.992  0.00  0.00    +0.000 OA
ATOM      5  N   UNL     1      -2.045  12.487  20.794  0.00  0.00    +0.000 N 
ATOM      6  C   UNL     1      -2.886  12.805  21.846  0.00  0.00    +0.000 A 
ATOM      7  N   UNL     1      -2.497  13.251  23.020  0.00  0.00    +0.000 NA
ATOM      8  C   UNL     1      -3.607  13.504  23.827  0.00  0.00    +0.000 A 
ATOM      9  C   UNL     1      -3.403  14.129  25.161  0.00  0.00    +0.000 C 
ATOM     10  C   UNL     1      -4.820  13.127  23.278  0.00  0.00    +0.000 A 
ATOM     11  C   UNL     1      -6.197  13.163  23.837  0.00  0.00    +0.000 C 
ATOM     12  S   UNL     1      -4.572  12.546  21.695  0.00  0.00    +0.000 S 
ATOM     13  C   UNL     1      -0.619  12.243  20.897  0.00  0.00    +0.000 C 
ENDROOT
BRANCH  13  14
ATOM     14  C   UNL     1      -0.410  10.930  21.595  0.00  0.00    +0.000 A 
ATOM     15  C   UNL     1      -0.371   9.617  21.167  0.00  0.00    +0.000 A 
ATOM     16  C   UNL     1      -0.146   8.821  22.316  0.00  0.00    +0.000 A 
ATOM     17  C   UNL     1      -0.067   9.694  23.374  0.00  0.00    +0.000 A 
ATOM     18  O   UNL     1      -0.225  10.974  22.949  0.00  0.00    +0.000 OA
ENDBRANCH  13  14
BRANCH   1  19
ATOM     19  C   UNL     1       1.244  12.237  19.083  0.00  0.00    +0.000 C 
ATOM     20  O   UNL     1       1.657  11.291  18.412  0.00  0.00    +0.000 OA
BRANCH  19  28
ATOM     21  C   UNL     1       1.204  16.649  18.816  0.00  0.00    +0.000 A 
ATOM     22  C   UNL     1       1.690  17.451  17.780  0.00  0.00    +0.000 A 
ATOM     23  C   UNL     1       2.762  17.014  16.979  0.00  0.00    +0.000 A 
ATOM     24  C   UNL     1       3.370  15.775  17.204  0.00  0.00    +0.000 A 
ATOM     25  C   UNL     1       2.879  14.988  18.227  0.00  0.00    +0.000 A 
ATOM     26  C   UNL     1       1.822  15.422  19.010  0.00  0.00    +0.000 A 
ATOM     27  O   UNL     1       1.474  14.518  19.981  0.00  0.00    +0.000 OA
ATOM     28  C   UNL     1       2.195  13.310  19.653  0.00  0.00    +0.000 C 
ATOM     29  C   UNL     1       3.363  13.682  18.730  0.00  0.00    +0.000 C 
BRANCH  21  31
ATOM     30  C   UNL     1       0.066  18.359  19.992  0.00  0.00    +0.000 C 
ATOM     31  O   UNL     1       0.195  16.978  19.676  0.00  0.00    +0.000 OA
ENDBRANCH  21  31
ENDBRANCH  19  28
ENDBRANCH   1  19
BRANCH   2  32
ATOM     32  O   UNL     1      -1.352  12.489  17.266  0.00  0.00    +0.000 OA
ATOM     33  H   UNL     1      -1.452  11.607  16.863  0.00  0.00    +0.000 HD
ENDBRANCH   2  32
TORSDOF 5
ENDMDL
MODEL 3
REMARK VINA RESULT:      -7.0      3.087      7.429
REMARK  Name = 
REMARK  8 active torsions:
REMARK  status: ('A' for Active; 'I' for Inactive)
REMARK    1  A    between atoms: C_1  and  O_2
REMARK    2  A    between atoms: O_2  and  C_3
REMARK    3  A    between atoms: C_10  and  C_11
REMARK    4  A    between atoms: C_11  and  C_13
REMARK    5  A    between atoms: C_14  and  O_15
REMARK    6  A    between atoms: C_21  and  C_22
REMARK    7  A    between atoms: C_23  and  C_24
REMARK    8  A    between atoms: C_26  and  C_27
REMARK                            x       y       z     vdW  Elec       q    Type
REMARK                         _______ _______ _______ _____ _____    ______ ____
ROOT
ATOM      1  C   UNL     1      -1.274  11.675  19.444  0.00  0.00    +0.000 C 
ATOM      2  C   UNL     1      -1.401  12.223  20.662  0.00  0.00    +0.000 C 
ATOM      3  C   UNL     1      -0.114  12.895  20.978  0.00  0.00    +0.000 C 
ATOM      4  O   UNL     1       0.038  13.535  22.005  0.00  0.00    +0.000 OA
ATOM      5  N   UNL     1       0.727  12.705  19.894  0.00  0.00    +0.000 N 
ATOM      6  C   UNL     1       1.923  13.389  19.761  0.00  0.00    +0.000 A 
ATOM      7  N   UNL     1       2.519  13.660  18.621  0.00  0.00    +0.000 NA
ATOM      8  C   UNL     1       3.683  14.394  18.853  0.00  0.00    +0.000 A 
ATOM      9  C   UNL     1       4.455  14.911  17.692  0.00  0.00    +0.000 C 
ATOM     10  C   UNL     1       4.006  14.563  20.188  0.00  0.00    +0.000 A 
ATOM     11  C   UNL     1       5.177  15.209  20.835  0.00  0.00    +0.000 C 
ATOM     12  S   UNL     1       2.781  13.881  21.159  0.00  0.00    +0.000 S 
ATOM     13  C   UNL     1       0.114  11.871  18.877  0.00  0.00    +0.000 C 
ENDROOT
BRANCH  13  14
ATOM     14  C   UNL     1       0.932  10.620  18.732  0.00  0.00    +0.000 A 
ATOM     15  C   UNL     1       1.794  10.151  17.759  0.00  0.00    +0.000 A 
ATOM     16  C   UNL     1       2.253   8.886  18.198  0.00  0.00    +0.000 A 
ATOM     17  C   UNL     1       1.639   8.657  19.406  0.00  0.00    +0.000 A 
ATOM     18  O   UNL     1       0.838   9.701  19.739  0.00  0.00    +0.000 OA
ENDBRANCH  13  14
BRANCH   1  19
ATOM     19  C   UNL     1      -2.323  11.001  18.630  0.00  0.00    +0.000 C 
ATOM     20  O   UNL     1      -2.137   9.839  18.273  0.00  0.00    +0.000 OA
BRANCH  19  28
ATOM     21  C   UNL     1      -5.968  12.316  20.759  0.00  0.00    +0.000 A 
ATOM     22  C   UNL     1      -7.135  11.586  20.994  0.00  0.00    +0.000 A 
ATOM     23  C   UNL     1      -7.539  10.574  20.103  0.00  0.00    +0.000 A 
ATOM     24  C   UNL     1      -6.790  10.282  18.959  0.00  0.00    +0.000 A 
ATOM     25  C   UNL     1      -5.635  11.007  18.738  0.00  0.00    +0.000 A 
ATOM     26  C   UNL     1      -5.241  11.999  19.620  0.00  0.00    +0.000 A 
ATOM     27  O   UNL     1      -4.078  12.618  19.239  0.00  0.00    +0.000 OA
ATOM     28  C   UNL     1      -3.552  11.811  18.163  0.00  0.00    +0.000 C 
ATOM     29  C   UNL     1      -4.696  10.961  17.593  0.00  0.00    +0.000 C 
BRANCH  21  31
ATOM     30  C   UNL     1      -5.619  13.170  22.939  0.00  0.00    +0.000 C 
ATOM     31  O   UNL     1      -5.494  13.338  21.532  0.00  0.00    +0.000 OA
ENDBRANCH  21  31
ENDBRANCH  19  28
ENDBRANCH   1  19
BRANCH   2  32
ATOM     32  O   UNL     1      -2.447  12.295  21.531  0.00  0.00    +0.000 OA
ATOM     33  H   UNL     1      -2.872  13.172  21.506  0.00  0.00    +0.000 HD
ENDBRANCH   2  32
TORSDOF 5
ENDMDL
MODEL 4
REMARK VINA RESULT:      -6.8      3.927      7.343
REMARK  Name = 
REMARK  8 active torsions:
REMARK  status: ('A' for Active; 'I' for Inactive)
REMARK    1  A    between atoms: C_1  and  O_2
REMARK    2  A    between atoms: O_2  and  C_3
REMARK    3  A    between atoms: C_10  and  C_11
REMARK    4  A    between atoms: C_11  and  C_13
REMARK    5  A    between atoms: C_14  and  O_15
REMARK    6  A    between atoms: C_21  and  C_22
REMARK    7  A    between atoms: C_23  and  C_24
REMARK    8  A    between atoms: C_26  and  C_27
REMARK                            x       y       z     vdW  Elec       q    Type
REMARK                         _______ _______ _______ _____ _____    ______ ____
ROOT
ATOM      1  C   UNL     1       0.909  10.571  18.612  0.00  0.00    +0.000 C 
ATOM      2  C   UNL     1       1.609  11.714  18.550  0.00  0.00    +0.000 C 
ATOM      3  C   UNL     1       0.785  12.769  19.195  0.00  0.00    +0.000 C 
ATOM      4  O   UNL     1       1.201  13.907  19.338  0.00  0.00    +0.000 OA
ATOM      5  N   UNL     1      -0.390  12.172  19.621  0.00  0.00    +0.000 N 
ATOM      6  C   UNL     1      -1.282  12.818  20.459  0.00  0.00    +0.000 A 
ATOM      7  N   UNL     1      -2.115  12.221  21.283  0.00  0.00    +0.000 NA
ATOM      8  C   UNL     1      -2.839  13.173  22.003  0.00  0.00    +0.000 A 
ATOM      9  C   UNL     1      -3.759  12.720  23.079  0.00  0.00    +0.000 C 
ATOM     10  C   UNL     1      -2.616  14.483  21.617  0.00  0.00    +0.000 A 
ATOM     11  C   UNL     1      -3.233  15.755  22.079  0.00  0.00    +0.000 C 
ATOM     12  S   UNL     1      -1.411  14.524  20.411  0.00  0.00    +0.000 S 
ATOM     13  C   UNL     1      -0.454  10.775  19.235  0.00  0.00    +0.000 C 
ENDROOT
BRANCH  13  14
ATOM     14  C   UNL     1      -1.619  10.591  18.305  0.00  0.00    +0.000 A 
ATOM     15  C   UNL     1      -2.622   9.646  18.208  0.00  0.00    +0.000 A 
ATOM     16  C   UNL     1      -3.426  10.019  17.103  0.00  0.00    +0.000 A 
ATOM     17  C   UNL     1      -2.862  11.162  16.590  0.00  0.00    +0.000 A 
ATOM     18  O   UNL     1      -1.767  11.518  17.311  0.00  0.00    +0.000 OA
ENDBRANCH  13  14
BRANCH   1  19
ATOM     19  C   UNL     1       1.352   9.205  18.217  0.00  0.00    +0.000 C 
ATOM     20  O   UNL     1       0.794   8.657  17.266  0.00  0.00    +0.000 OA
BRANCH  19  28
ATOM     21  C   UNL     1       2.758   5.014  18.224  0.00  0.00    +0.000 A 
ATOM     22  C   UNL     1       2.175   3.915  18.858  0.00  0.00    +0.000 A 
ATOM     23  C   UNL     1       1.421   4.083  20.035  0.00  0.00    +0.000 A 
ATOM     24  C   UNL     1       1.245   5.348  20.602  0.00  0.00    +0.000 A 
ATOM     25  C   UNL     1       1.822   6.430  19.964  0.00  0.00    +0.000 A 
ATOM     26  C   UNL     1       2.559   6.258  18.805  0.00  0.00    +0.000 A 
ATOM     27  O   UNL     1       3.063   7.437  18.316  0.00  0.00    +0.000 OA
ATOM     28  C   UNL     1       2.407   8.476  19.075  0.00  0.00    +0.000 C 
ATOM     29  C   UNL     1       1.858   7.855  20.367  0.00  0.00    +0.000 C 
BRANCH  21  31
ATOM     30  C   UNL     1       4.803   4.344  17.238  0.00  0.00    +0.000 C 
ATOM     31  O   UNL     1       3.533   4.972  17.100  0.00  0.00    +0.000 OA
ENDBRANCH  21  31
ENDBRANCH  19  28
ENDBRANCH   1  19
BRANCH   2  32
ATOM     32  O   UNL     1       2.855  12.003  18.084  0.00  0.00    +0.000 OA
ATOM     33  H   UNL     1       3.012  12.964  18.055  0.00  0.00    +0.000 HD
ENDBRANCH   2  32
TORSDOF 5
ENDMDL
MODEL 5
REMARK VINA RESULT:      -6.8      3.289      5.956
REMARK  Name = 
REMARK  8 active torsions:
REMARK  status: ('A' for Active; 'I' for Inactive)
REMARK    1  A    between atoms: C_1  and  O_2
REMARK    2  A    between atoms: O_2  and  C_3
REMARK    3  A    between atoms: C_10  and  C_11
REMARK    4  A    between atoms: C_11  and  C_13
REMARK    5  A    between atoms: C_14  and  O_15
REMARK    6  A    between atoms: C_21  and  C_22
REMARK    7  A    between atoms: C_23  and  C_24
REMARK    8  A    between atoms: C_26  and  C_27
REMARK                            x       y       z     vdW  Elec       q    Type
REMARK                         _______ _______ _______ _____ _____    ______ ____
ROOT
ATOM      1  C   UNL     1      -0.428  12.436  20.437  0.00  0.00    +0.000 C 
ATOM      2  C   UNL     1      -0.310  12.005  21.701  0.00  0.00    +0.000 C 
ATOM      3  C   UNL     1       0.246  10.628  21.645  0.00  0.00    +0.000 C 
ATOM      4  O   UNL     1       0.520  10.007  22.658  0.00  0.00    +0.000 OA
ATOM      5  N   UNL     1       0.437  10.314  20.309  0.00  0.00    +0.000 N 
ATOM      6  C   UNL     1       1.149   9.197  19.909  0.00  0.00    +0.000 A 
ATOM      7  N   UNL     1       1.788   9.074  18.766  0.00  0.00    +0.000 NA
ATOM      8  C   UNL     1       2.428   7.835  18.708  0.00  0.00    +0.000 A 
ATOM      9  C   UNL     1       3.309   7.532  17.549  0.00  0.00    +0.000 C 
ATOM     10  C   UNL     1       2.158   6.993  19.772  0.00  0.00    +0.000 A 
ATOM     11  C   UNL     1       2.580   5.593  20.039  0.00  0.00    +0.000 C 
ATOM     12  S   UNL     1       1.174   7.804  20.904  0.00  0.00    +0.000 S 
ATOM     13  C   UNL     1      -0.032  11.374  19.436  0.00  0.00    +0.000 C 
ENDROOT
BRANCH  13  14
ATOM     14  C   UNL     1      -1.151  10.836  18.593  0.00  0.00    +0.000 A 
ATOM     15  C   UNL     1      -1.200  10.016  17.481  0.00  0.00    +0.000 A 
ATOM     16  C   UNL     1      -2.566   9.879  17.136  0.00  0.00    +0.000 A 
ATOM     17  C   UNL     1      -3.267  10.627  18.051  0.00  0.00    +0.000 A 
ATOM     18  O   UNL     1      -2.420  11.211  18.939  0.00  0.00    +0.000 OA
ENDBRANCH  13  14
BRANCH   1  19
ATOM     19  C   UNL     1      -0.819  13.795  19.967  0.00  0.00    +0.000 C 
ATOM     20  O   UNL     1      -1.869  14.284  20.384  0.00  0.00    +0.000 OA
BRANCH  19  28
ATOM     21  C   UNL     1       2.984  16.034  20.219  0.00  0.00    +0.000 A 
ATOM     22  C   UNL     1       3.168  17.376  20.559  0.00  0.00    +0.000 A 
ATOM     23  C   UNL     1       2.165  18.327  20.295  0.00  0.00    +0.000 A 
ATOM     24  C   UNL     1       0.966  17.955  19.680  0.00  0.00    +0.000 A 
ATOM     25  C   UNL     1       0.791  16.624  19.352  0.00  0.00    +0.000 A 
ATOM     26  C   UNL     1       1.781  15.693  19.617  0.00  0.00    +0.000 A 
ATOM     27  O   UNL     1       1.440  14.426  19.217  0.00  0.00    +0.000 OA
ATOM     28  C   UNL     1       0.035  14.495  18.889  0.00  0.00    +0.000 C 
ATOM     29  C   UNL     1      -0.331  15.965  18.643  0.00  0.00    +0.000 C 
BRANCH  21  31
ATOM     30  C   UNL     1       5.022  15.048  19.528  0.00  0.00    +0.000 C 
ATOM     31  O   UNL     1       3.894  15.031  20.396  0.00  0.00    +0.000 OA
ENDBRANCH  21  31
ENDBRANCH  19  28
ENDBRANCH   1  19
BRANCH   2  32
ATOM     32  O   UNL     1      -0.544  12.604  22.901  0.00  0.00    +0.000 OA
ATOM     33  H   UNL     1      -0.149  13.494  22.939  0.00  0.00    +0.000 HD
ENDBRANCH   2  32
TORSDOF 5
ENDMDL
MODEL 6
REMARK VINA RESULT:      -6.8      3.160      7.481
REMARK  Name = 
REMARK  8 active torsions:
REMARK  status: ('A' for Active; 'I' for Inactive)
REMARK    1  A    between atoms: C_1  and  O_2
REMARK    2  A    between atoms: O_2  and  C_3
REMARK    3  A    between atoms: C_10  and  C_11
REMARK    4  A    between atoms: C_11  and  C_13
REMARK    5  A    between atoms: C_14  and  O_15
REMARK    6  A    between atoms: C_21  and  C_22
REMARK    7  A    between atoms: C_23  and  C_24
REMARK    8  A    between atoms: C_26  and  C_27
REMARK                            x       y       z     vdW  Elec       q    Type
REMARK                         _______ _______ _______ _____ _____    ______ ____
ROOT
ATOM      1  C   UNL     1      -2.621  13.279  22.942  0.00  0.00    +0.000 C 
ATOM      2  C   UNL     1      -2.158  14.258  23.734  0.00  0.00    +0.000 C 
ATOM      3  C   UNL     1      -0.789  14.592  23.263  0.00  0.00    +0.000 C 
ATOM      4  O   UNL     1      -0.145  15.499  23.763  0.00  0.00    +0.000 OA
ATOM      5  N   UNL     1      -0.512  13.771  22.183  0.00  0.00    +0.000 N 
ATOM      6  C   UNL     1       0.587  13.973  21.367  0.00  0.00    +0.000 A 
ATOM      7  N   UNL     1       0.674  13.606  20.107  0.00  0.00    +0.000 NA
ATOM      8  C   UNL     1       1.905  13.999  19.579  0.00  0.00    +0.000 A 
ATOM      9  C   UNL     1       2.170  13.788  18.131  0.00  0.00    +0.000 C 
ATOM     10  C   UNL     1       2.777  14.558  20.496  0.00  0.00    +0.000 A 
ATOM     11  C   UNL     1       4.179  15.028  20.347  0.00  0.00    +0.000 C 
ATOM     12  S   UNL     1       2.006  14.684  22.011  0.00  0.00    +0.000 S 
ATOM     13  C   UNL     1      -1.590  12.832  21.931  0.00  0.00    +0.000 C 
ENDROOT
BRANCH  13  14
ATOM     14  C   UNL     1      -1.062  11.440  22.123  0.00  0.00    +0.000 A 
ATOM     15  C   UNL     1      -0.873  10.636  23.231  0.00  0.00    +0.000 A 
ATOM     16  C   UNL     1      -0.326   9.417  22.760  0.00  0.00    +0.000 A 
ATOM     17  C   UNL     1      -0.208   9.554  21.398  0.00  0.00    +0.000 A 
ATOM     18  O   UNL     1      -0.652  10.774  21.001  0.00  0.00    +0.000 OA
ENDBRANCH  13  14
BRANCH   1  19
ATOM     19  C   UNL     1      -3.987  12.686  22.925  0.00  0.00    +0.000 C 
ATOM     20  O   UNL     1      -4.195  11.666  23.583  0.00  0.00    +0.000 OA
BRANCH  19  28
ATOM     21  C   UNL     1      -6.947  10.817  20.225  0.00  0.00    +0.000 A 
ATOM     22  C   UNL     1      -6.752  10.371  18.916  0.00  0.00    +0.000 A 
ATOM     23  C   UNL     1      -5.786  10.975  18.089  0.00  0.00    +0.000 A 
ATOM     24  C   UNL     1      -5.006  12.038  18.553  0.00  0.00    +0.000 A 
ATOM     25  C   UNL     1      -5.203  12.469  19.850  0.00  0.00    +0.000 A 
ATOM     26  C   UNL     1      -6.153  11.868  20.660  0.00  0.00    +0.000 A 
ATOM     27  O   UNL     1      -6.216  12.429  21.910  0.00  0.00    +0.000 OA
ATOM     28  C   UNL     1      -5.063  13.293  22.000  0.00  0.00    +0.000 C 
ATOM     29  C   UNL     1      -4.578  13.599  20.576  0.00  0.00    +0.000 C 
BRANCH  21  31
ATOM     30  C   UNL     1      -7.913   8.918  21.257  0.00  0.00    +0.000 C 
ATOM     31  O   UNL     1      -7.871  10.333  21.106  0.00  0.00    +0.000 OA
ENDBRANCH  21  31
ENDBRANCH  19  28
ENDBRANCH   1  19
BRANCH   2  32
ATOM     32  O   UNL     1      -2.724  14.955  24.757  0.00  0.00    +0.000 OA
ATOM     33  H   UNL     1      -3.680  14.780  24.823  0.00  0.00    +0.000 HD
ENDBRANCH   2  32
TORSDOF 5
ENDMDL
MODEL 7
REMARK VINA RESULT:      -6.8      2.933      7.385
REMARK  Name = 
REMARK  8 active torsions:
REMARK  status: ('A' for Active; 'I' for Inactive)
REMARK    1  A    between atoms: C_1  and  O_2
REMARK    2  A    between atoms: O_2  and  C_3
REMARK    3  A    between atoms: C_10  and  C_11
REMARK    4  A    between atoms: C_11  and  C_13
REMARK    5  A    between atoms: C_14  and  O_15
REMARK    6  A    between atoms: C_21  and  C_22
REMARK    7  A    between atoms: C_23  and  C_24
REMARK    8  A    between atoms: C_26  and  C_27
REMARK                            x       y       z     vdW  Elec       q    Type
REMARK                         _______ _______ _______ _____ _____    ______ ____
ROOT
ATOM      1  C   UNL     1      -3.176  12.212  19.544  0.00  0.00    +0.000 C 
ATOM      2  C   UNL     1      -3.246  11.862  18.251  0.00  0.00    +0.000 C 
ATOM      3  C   UNL     1      -2.044  11.043  17.952  0.00  0.00    +0.000 C 
ATOM      4  O   UNL     1      -1.874  10.531  16.858  0.00  0.00    +0.000 OA
ATOM      5  N   UNL     1      -1.309  10.946  19.123  0.00  0.00    +0.000 N 
ATOM      6  C   UNL     1      -0.248  10.067  19.256  0.00  0.00    +0.000 A 
ATOM      7  N   UNL     1       0.172   9.552  20.390  0.00  0.00    +0.000 NA
ATOM      8  C   UNL     1       1.235   8.679  20.154  0.00  0.00    +0.000 A 
ATOM      9  C   UNL     1       1.790   7.893  21.288  0.00  0.00    +0.000 C 
ATOM     10  C   UNL     1       1.676   8.644  18.843  0.00  0.00    +0.000 A 
ATOM     11  C   UNL     1       2.805   7.912  18.212  0.00  0.00    +0.000 C 
ATOM     12  S   UNL     1       0.679   9.639  17.881  0.00  0.00    +0.000 S 
ATOM     13  C   UNL     1      -1.903  11.721  20.196  0.00  0.00    +0.000 C 
ENDROOT
BRANCH  13  14
ATOM     14  C   UNL     1      -0.933  12.793  20.601  0.00  0.00    +0.000 A 
ATOM     15  C   UNL     1      -0.279  13.092  21.780  0.00  0.00    +0.000 A 
ATOM     16  C   UNL     1       0.504  14.246  21.530  0.00  0.00    +0.000 A 
ATOM     17  C   UNL     1       0.275  14.584  20.218  0.00  0.00    +0.000 A 
ATOM     18  O   UNL     1      -0.593  13.711  19.645  0.00  0.00    +0.000 OA
ENDBRANCH  13  14
BRANCH   1  19
ATOM     19  C   UNL     1      -4.200  12.929  20.354  0.00  0.00    +0.000 C 
ATOM     20  O   UNL     1      -5.129  13.487  19.771  0.00  0.00    +0.000 OA
BRANCH  19  28
ATOM     21  C   UNL     1      -7.088  12.914  23.702  0.00  0.00    +0.000 A 
ATOM     22  C   UNL     1      -7.838  13.985  24.192  0.00  0.00    +0.000 A 
ATOM     23  C   UNL     1      -7.357  15.304  24.089  0.00  0.00    +0.000 A 
ATOM     24  C   UNL     1      -6.117  15.573  23.502  0.00  0.00    +0.000 A 
ATOM     25  C   UNL     1      -5.385  14.508  23.015  0.00  0.00    +0.000 A 
ATOM     26  C   UNL     1      -5.865  13.213  23.118  0.00  0.00    +0.000 A 
ATOM     27  O   UNL     1      -5.004  12.284  22.591  0.00  0.00    +0.000 OA
ATOM     28  C   UNL     1      -4.006  13.049  21.881  0.00  0.00    +0.000 C 
ATOM     29  C   UNL     1      -4.031  14.487  22.415  0.00  0.00    +0.000 C 
BRANCH  21  31
ATOM     30  C   UNL     1      -7.916  11.007  22.571  0.00  0.00    +0.000 C 
ATOM     31  O   UNL     1      -7.434  11.595  23.774  0.00  0.00    +0.000 OA
ENDBRANCH  21  31
ENDBRANCH  19  28
ENDBRANCH   1  19
BRANCH   2  32
ATOM     32  O   UNL     1      -4.188  12.077  17.292  0.00  0.00    +0.000 OA
ATOM     33  H   UNL     1      -3.919  12.785  16.678  0.00  0.00    +0.000 HD
ENDBRANCH   2  32
TORSDOF 5
ENDMDL
MODEL 8
REMARK VINA RESULT:      -6.8      4.236      7.989
REMARK  Name = 
REMARK  8 active torsions:
REMARK  status: ('A' for Active; 'I' for Inactive)
REMARK    1  A    between atoms: C_1  and  O_2
REMARK    2  A    between atoms: O_2  and  C_3
REMARK    3  A    between atoms: C_10  and  C_11
REMARK    4  A    between atoms: C_11  and  C_13
REMARK    5  A    between atoms: C_14  and  O_15
REMARK    6  A    between atoms: C_21  and  C_22
REMARK    7  A    between atoms: C_23  and  C_24
REMARK    8  A    between atoms: C_26  and  C_27
REMARK                            x       y       z     vdW  Elec       q    Type
REMARK                         _______ _______ _______ _____ _____    ______ ____
ROOT
ATOM      1  C   UNL     1       0.989   9.791  20.098  0.00  0.00    +0.000 C 
ATOM      2  C   UNL     1       1.277  10.040  18.811  0.00  0.00    +0.000 C 
ATOM      3  C   UNL     1       1.632  11.479  18.711  0.00  0.00    +0.000 C 
ATOM      4  O   UNL     1       2.002  11.975  17.660  0.00  0.00    +0.000 OA
ATOM      5  N   UNL     1       1.536  12.017  19.984  0.00  0.00    +0.000 N 
ATOM      6  C   UNL     1       2.015  13.280  20.288  0.00  0.00    +0.000 A 
ATOM      7  N   UNL     1       2.416  13.673  21.477  0.00  0.00    +0.000 NA
ATOM      8  C   UNL     1       2.870  14.991  21.417  0.00  0.00    +0.000 A 
ATOM      9  C   UNL     1       3.481  15.601  22.627  0.00  0.00    +0.000 C 
ATOM     10  C   UNL     1       2.691  15.610  20.192  0.00  0.00    +0.000 A 
ATOM     11  C   UNL     1       2.970  17.002  19.752  0.00  0.00    +0.000 C 
ATOM     12  S   UNL     1       2.040  14.493  19.080  0.00  0.00    +0.000 S 
ATOM     13  C   UNL     1       1.058  11.041  20.946  0.00  0.00    +0.000 C 
ENDROOT
BRANCH  13  14
ATOM     14  C   UNL     1      -0.255  11.519  21.496  0.00  0.00    +0.000 A 
ATOM     15  C   UNL     1      -1.401  12.031  20.919  0.00  0.00    +0.000 A 
ATOM     16  C   UNL     1      -2.300  12.308  21.977  0.00  0.00    +0.000 A 
ATOM     17  C   UNL     1      -1.647  11.955  23.133  0.00  0.00    +0.000 A 
ATOM     18  O   UNL     1      -0.408  11.475  22.854  0.00  0.00    +0.000 OA
ENDBRANCH  13  14
BRANCH   1  19
ATOM     19  C   UNL     1       0.698   8.475  20.732  0.00  0.00    +0.000 C 
ATOM     20  O   UNL     1      -0.443   8.257  21.140  0.00  0.00    +0.000 OA
BRANCH  19  28
ATOM     21  C   UNL     1       2.909   5.837  17.959  0.00  0.00    +0.000 A 
ATOM     22  C   UNL     1       2.539   4.571  17.500  0.00  0.00    +0.000 A 
ATOM     23  C   UNL     1       1.734   3.730  18.292  0.00  0.00    +0.000 A 
ATOM     24  C   UNL     1       1.294   4.136  19.555  0.00  0.00    +0.000 A 
ATOM     25  C   UNL     1       1.661   5.392  19.997  0.00  0.00    +0.000 A 
ATOM     26  C   UNL     1       2.451   6.216  19.212  0.00  0.00    +0.000 A 
ATOM     27  O   UNL     1       2.723   7.419  19.812  0.00  0.00    +0.000 OA
ATOM     28  C   UNL     1       1.852   7.477  20.963  0.00  0.00    +0.000 C 
ATOM     29  C   UNL     1       1.401   6.049  21.299  0.00  0.00    +0.000 C 
BRANCH  21  31
ATOM     30  C   UNL     1       4.876   6.184  16.687  0.00  0.00    +0.000 C 
ATOM     31  O   UNL     1       3.709   6.725  17.297  0.00  0.00    +0.000 OA
ENDBRANCH  21  31
ENDBRANCH  19  28
ENDBRANCH   1  19
BRANCH   2  32
ATOM     32  O   UNL     1       1.342   9.237  17.714  0.00  0.00    +0.000 OA
ATOM     33  H   UNL     1       2.264   9.085  17.436  0.00  0.00    +0.000 HD
ENDBRANCH   2  32
TORSDOF 5
ENDMDL
MODEL 9
REMARK VINA RESULT:      -6.8      1.543      2.145
REMARK  Name = 
REMARK  8 active torsions:
REMARK  status: ('A' for Active; 'I' for Inactive)
REMARK    1  A    between atoms: C_1  and  O_2
REMARK    2  A    between atoms: O_2  and  C_3
REMARK    3  A    between atoms: C_10  and  C_11
REMARK    4  A    between atoms: C_11  and  C_13
REMARK    5  A    between atoms: C_14  and  O_15
REMARK    6  A    between atoms: C_21  and  C_22
REMARK    7  A    between atoms: C_23  and  C_24
REMARK    8  A    between atoms: C_26  and  C_27
REMARK                            x       y       z     vdW  Elec       q    Type
REMARK                         _______ _______ _______ _____ _____    ______ ____
ROOT
ATOM      1  C   UNL     1       0.435  13.191  20.005  0.00  0.00    +0.000 C 
ATOM      2  C   UNL     1       0.388  12.963  18.684  0.00  0.00    +0.000 C 
ATOM      3  C   UNL     1      -0.989  12.505  18.366  0.00  0.00    +0.000 C 
ATOM      4  O   UNL     1      -1.340  12.282  17.220  0.00  0.00    +0.000 OA
ATOM      5  N   UNL     1      -1.704  12.493  19.553  0.00  0.00    +0.000 N 
ATOM      6  C   UNL     1      -3.078  12.333  19.583  0.00  0.00    +0.000 A 
ATOM      7  N   UNL     1      -3.873  12.780  20.530  0.00  0.00    +0.000 NA
ATOM      8  C   UNL     1      -5.200  12.476  20.224  0.00  0.00    +0.000 A 
ATOM      9  C   UNL     1      -6.281  12.993  21.104  0.00  0.00    +0.000 C 
ATOM     10  C   UNL     1      -5.369  11.693  19.096  0.00  0.00    +0.000 A 
ATOM     11  C   UNL     1      -6.593  11.107  18.489  0.00  0.00    +0.000 C 
ATOM     12  S   UNL     1      -3.856  11.424  18.357  0.00  0.00    +0.000 S 
ATOM     13  C   UNL     1      -0.869  12.844  20.687  0.00  0.00    +0.000 C 
ENDROOT
BRANCH  13  14
ATOM     14  C   UNL     1      -0.815  11.669  21.619  0.00  0.00    +0.000 A 
ATOM     15  C   UNL     1      -1.252  11.456  22.913  0.00  0.00    +0.000 A 
ATOM     16  C   UNL     1      -0.894  10.128  23.250  0.00  0.00    +0.000 A 
ATOM     17  C   UNL     1      -0.255   9.615  22.147  0.00  0.00    +0.000 A 
ATOM     18  O   UNL     1      -0.202  10.539  21.153  0.00  0.00    +0.000 OA
ENDBRANCH  13  14
BRANCH   1  19
ATOM     19  C   UNL     1       1.554  13.780  20.792  0.00  0.00    +0.000 C 
ATOM     20  O   UNL     1       2.362  13.021  21.327  0.00  0.00    +0.000 OA
BRANCH  19  28
ATOM     21  C   UNL     1      -0.746  17.087  18.973  0.00  0.00    +0.000 A 
ATOM     22  C   UNL     1      -0.506  17.733  17.758  0.00  0.00    +0.000 A 
ATOM     23  C   UNL     1       0.801  17.828  17.243  0.00  0.00    +0.000 A 
ATOM     24  C   UNL     1       1.888  17.288  17.937  0.00  0.00    +0.000 A 
ATOM     25  C   UNL     1       1.639  16.647  19.135  0.00  0.00    +0.000 A 
ATOM     26  C   UNL     1       0.351  16.555  19.634  0.00  0.00    +0.000 A 
ATOM     27  O   UNL     1       0.293  15.895  20.835  0.00  0.00    +0.000 OA
ATOM     28  C   UNL     1       1.601  15.307  21.011  0.00  0.00    +0.000 C 
ATOM     29  C   UNL     1       2.589  16.051  20.102  0.00  0.00    +0.000 C 
BRANCH  21  31
ATOM     30  C   UNL     1      -2.934  17.946  19.257  0.00  0.00    +0.000 C 
ATOM     31  O   UNL     1      -1.961  16.961  19.585  0.00  0.00    +0.000 OA
ENDBRANCH  21  31
ENDBRANCH  19  28
ENDBRANCH   1  19
BRANCH   2  32
ATOM     32  O   UNL     1       1.305  13.129  17.691  0.00  0.00    +0.000 OA
ATOM     33  H   UNL     1       0.876  13.222  16.821  0.00  0.00    +0.000 HD
ENDBRANCH   2  32
TORSDOF 5
ENDMDL
