MODEL 1
REMARK VINA RESULT:      -6.9      0.000      0.000
REMARK  Name = 
REMARK  3 active torsions:
REMARK  status: ('A' for Active; 'I' for Inactive)
REMARK    1  A    between atoms: C_2  and  C_11
REMARK    2  A    between atoms: N_3  and  C_4
REMARK    3  A    between atoms: C_4  and  C_5
REMARK                            x       y       z     vdW  Elec       q    Type
REMARK                         _______ _______ _______ _____ _____    ______ ____
ROOT
ATOM      1  O   UNL     1       7.058   4.452  18.789  0.00  0.00    +0.000 OA
ATOM      2  C   UNL     1       5.975   4.738  18.268  0.00  0.00    +0.000 C 
ATOM      3  N   UNL     1       5.911   5.225  16.985  0.00  0.00    +0.000 N 
ATOM      4  H   UNL     1       5.017   5.309  16.516  0.00  0.00    +0.000 HD
ENDROOT
BRANCH   2   5
ATOM      5  C   UNL     1       4.720   4.586  18.981  0.00  0.00    +0.000 A 
ATOM      6  C   UNL     1       3.873   5.612  19.368  0.00  0.00    +0.000 A 
ATOM      7  C   UNL     1       2.738   5.142  20.089  0.00  0.00    +0.000 A 
ATOM      8  C   UNL     1       2.776   3.778  20.226  0.00  0.00    +0.000 A 
ATOM      9 BR   UNL     1       1.487   2.802  21.170  0.00  0.00    +0.000 Br
ATOM     10  S   UNL     1       4.107   3.060  19.464  0.00  0.00    +0.000 S 
ENDBRANCH   2   5
BRANCH   3  11
ATOM     11  C   UNL     1       7.125   5.437  16.227  0.00  0.00    +0.000 C 
BRANCH  11  12
ATOM     12  C   UNL     1       7.027   4.917  14.813  0.00  0.00    +0.000 A 
ATOM     13  C   UNL     1       6.066   3.960  14.485  0.00  0.00    +0.000 A 
ATOM     14  C   UNL     1       5.953   3.542  13.163  0.00  0.00    +0.000 A 
ATOM     15  C   UNL     1       6.795   4.089  12.205  0.00  0.00    +0.000 A 
ATOM     16  C   UNL     1       7.729   5.027  12.613  0.00  0.00    +0.000 A 
ATOM     17  N   UNL     1       7.867   5.451  13.889  0.00  0.00    +0.000 NA
ENDBRANCH  11  12
ENDBRANCH   3  11
TORSDOF 3
ENDMDL
MODEL 2
REMARK VINA RESULT:      -6.4      1.457      1.457
REMARK  Name = 
REMARK  3 active torsions:
REMARK  status: ('A' for Active; 'I' for Inactive)
REMARK    1  A    between atoms: C_2  and  C_11
REMARK    2  A    between atoms: N_3  and  C_4
REMARK    3  A    between atoms: C_4  and  C_5
REMARK                            x       y       z     vdW  Elec       q    Type
REMARK                         _______ _______ _______ _____ _____    ______ ____
ROOT
ATOM      1  O   UNL     1       4.982   7.036  16.996  0.00  0.00    +0.000 OA
ATOM      2  C   UNL     1       4.894   5.835  17.270  0.00  0.00    +0.000 C 
ATOM      3  N   UNL     1       5.874   4.948  16.896  0.00  0.00    +0.000 N 
ATOM      4  H   UNL     1       5.870   4.001  17.258  0.00  0.00    +0.000 HD
ENDROOT
BRANCH   2   5
ATOM      5  C   UNL     1       3.754   5.296  17.988  0.00  0.00    +0.000 A 
ATOM      6  C   UNL     1       3.131   5.876  19.082  0.00  0.00    +0.000 A 
ATOM      7  C   UNL     1       2.063   5.081  19.589  0.00  0.00    +0.000 A 
ATOM      8  C   UNL     1       1.926   3.926  18.864  0.00  0.00    +0.000 A 
ATOM      9 BR   UNL     1       0.670   2.598  19.269  0.00  0.00    +0.000 Br
ATOM     10  S   UNL     1       3.010   3.811  17.567  0.00  0.00    +0.000 S 
ENDBRANCH   2   5
BRANCH   3  11
ATOM     11  C   UNL     1       7.023   5.407  16.146  0.00  0.00    +0.000 C 
BRANCH  11  12
ATOM     12  C   UNL     1       7.015   4.926  14.715  0.00  0.00    +0.000 A 
ATOM     13  C   UNL     1       6.115   3.938  14.315  0.00  0.00    +0.000 A 
ATOM     14  C   UNL     1       6.083   3.555  12.978  0.00  0.00    +0.000 A 
ATOM     15  C   UNL     1       6.943   4.167  12.077  0.00  0.00    +0.000 A 
ATOM     16  C   UNL     1       7.814   5.133  12.555  0.00  0.00    +0.000 A 
ATOM     17  N   UNL     1       7.872   5.524  13.848  0.00  0.00    +0.000 NA
ENDBRANCH  11  12
ENDBRANCH   3  11
TORSDOF 3
ENDMDL
MODEL 3
REMARK VINA RESULT:      -6.3      1.129      1.147
REMARK  Name = 
REMARK  3 active torsions:
REMARK  status: ('A' for Active; 'I' for Inactive)
REMARK    1  A    between atoms: C_2  and  C_11
REMARK    2  A    between atoms: N_3  and  C_4
REMARK    3  A    between atoms: C_4  and  C_5
REMARK                            x       y       z     vdW  Elec       q    Type
REMARK                         _______ _______ _______ _____ _____    ______ ____
ROOT
ATOM      1  O   UNL     1       5.233   6.557  17.644  0.00  0.00    +0.000 OA
ATOM      2  C   UNL     1       5.171   5.455  18.198  0.00  0.00    +0.000 C 
ATOM      3  N   UNL     1       6.167   4.522  18.035  0.00  0.00    +0.000 N 
ATOM      4  H   UNL     1       6.185   3.689  18.612  0.00  0.00    +0.000 HD
ENDROOT
BRANCH   2   5
ATOM      5  C   UNL     1       4.048   5.083  19.039  0.00  0.00    +0.000 A 
ATOM      6  C   UNL     1       3.085   5.944  19.539  0.00  0.00    +0.000 A 
ATOM      7  C   UNL     1       2.135   5.280  20.367  0.00  0.00    +0.000 A 
ATOM      8  C   UNL     1       2.422   3.943  20.466  0.00  0.00    +0.000 A 
ATOM      9 BR   UNL     1       1.434   2.752  21.520  0.00  0.00    +0.000 Br
ATOM     10  S   UNL     1       3.765   3.472  19.548  0.00  0.00    +0.000 S 
ENDBRANCH   2   5
BRANCH   3  11
ATOM     11  C   UNL     1       7.300   4.810  17.182  0.00  0.00    +0.000 C 
BRANCH  11  12
ATOM     12  C   UNL     1       7.006   4.566  15.721  0.00  0.00    +0.000 A 
ATOM     13  C   UNL     1       5.994   3.680  15.350  0.00  0.00    +0.000 A 
ATOM     14  C   UNL     1       5.700   3.520  13.999  0.00  0.00    +0.000 A 
ATOM     15  C   UNL     1       6.416   4.247  13.058  0.00  0.00    +0.000 A 
ATOM     16  C   UNL     1       7.412   5.098  13.508  0.00  0.00    +0.000 A 
ATOM     17  N   UNL     1       7.725   5.274  14.811  0.00  0.00    +0.000 NA
ENDBRANCH  11  12
ENDBRANCH   3  11
TORSDOF 3
ENDMDL
MODEL 4
REMARK VINA RESULT:      -6.2      1.195      1.354
REMARK  Name = 
REMARK  3 active torsions:
REMARK  status: ('A' for Active; 'I' for Inactive)
REMARK    1  A    between atoms: C_2  and  C_11
REMARK    2  A    between atoms: N_3  and  C_4
REMARK    3  A    between atoms: C_4  and  C_5
REMARK                            x       y       z     vdW  Elec       q    Type
REMARK                         _______ _______ _______ _____ _____    ______ ____
ROOT
ATOM      1  O   UNL     1       5.380   6.612  17.789  0.00  0.00    +0.000 OA
ATOM      2  C   UNL     1       5.356   5.377  17.760  0.00  0.00    +0.000 C 
ATOM      3  N   UNL     1       6.208   4.670  16.948  0.00  0.00    +0.000 N 
ATOM      4  H   UNL     1       6.288   3.664  17.045  0.00  0.00    +0.000 HD
ENDROOT
BRANCH   2   5
ATOM      5  C   UNL     1       4.427   4.612  18.570  0.00  0.00    +0.000 A 
ATOM      6  C   UNL     1       4.735   3.490  19.325  0.00  0.00    +0.000 A 
ATOM      7  C   UNL     1       3.594   2.939  19.976  0.00  0.00    +0.000 A 
ATOM      8  C   UNL     1       2.466   3.661  19.683  0.00  0.00    +0.000 A 
ATOM      9 BR   UNL     1       0.761   3.205  20.305  0.00  0.00    +0.000 Br
ATOM     10  S   UNL     1       2.763   5.004  18.695  0.00  0.00    +0.000 S 
ENDBRANCH   2   5
BRANCH   3  11
ATOM     11  C   UNL     1       7.137   5.368  16.085  0.00  0.00    +0.000 C 
BRANCH  11  12
ATOM     12  C   UNL     1       7.072   4.894  14.654  0.00  0.00    +0.000 A 
ATOM     13  C   UNL     1       6.168   3.896  14.288  0.00  0.00    +0.000 A 
ATOM     14  C   UNL     1       6.082   3.519  12.951  0.00  0.00    +0.000 A 
ATOM     15  C   UNL     1       6.894   4.148  12.017  0.00  0.00    +0.000 A 
ATOM     16  C   UNL     1       7.772   5.122  12.462  0.00  0.00    +0.000 A 
ATOM     17  N   UNL     1       7.882   5.507  13.753  0.00  0.00    +0.000 NA
ENDBRANCH  11  12
ENDBRANCH   3  11
TORSDOF 3
ENDMDL
MODEL 5
REMARK VINA RESULT:      -6.2      3.308      6.727
REMARK  Name = 
REMARK  3 active torsions:
REMARK  status: ('A' for Active; 'I' for Inactive)
REMARK    1  A    between atoms: C_2  and  C_11
REMARK    2  A    between atoms: N_3  and  C_4
REMARK    3  A    between atoms: C_4  and  C_5
REMARK                            x       y       z     vdW  Elec       q    Type
REMARK                         _______ _______ _______ _____ _____    ______ ____
ROOT
ATOM      1  O   UNL     1       5.619   5.290  19.167  0.00  0.00    +0.000 OA
ATOM      2  C   UNL     1       5.029   5.396  18.087  0.00  0.00    +0.000 C 
ATOM      3  N   UNL     1       3.725   5.827  18.031  0.00  0.00    +0.000 N 
ATOM      4  H   UNL     1       3.303   6.059  17.139  0.00  0.00    +0.000 HD
ENDROOT
BRANCH   2   5
ATOM      5  C   UNL     1       5.670   5.064  16.829  0.00  0.00    +0.000 A 
ATOM      6  C   UNL     1       6.958   5.411  16.454  0.00  0.00    +0.000 A 
ATOM      7  C   UNL     1       7.282   4.973  15.138  0.00  0.00    +0.000 A 
ATOM      8  C   UNL     1       6.223   4.317  14.566  0.00  0.00    +0.000 A 
ATOM      9 BR   UNL     1       6.247   3.650  12.817  0.00  0.00    +0.000 Br
ATOM     10  S   UNL     1       4.883   4.176  15.593  0.00  0.00    +0.000 S 
ENDBRANCH   2   5
BRANCH   3  11
ATOM     11  C   UNL     1       3.010   6.142  19.249  0.00  0.00    +0.000 C 
BRANCH  11  12
ATOM     12  C   UNL     1       2.335   4.936  19.856  0.00  0.00    +0.000 A 
ATOM     13  C   UNL     1       1.487   4.145  19.080  0.00  0.00    +0.000 A 
ATOM     14  C   UNL     1       0.926   3.003  19.643  0.00  0.00    +0.000 A 
ATOM     15  C   UNL     1       1.226   2.679  20.959  0.00  0.00    +0.000 A 
ATOM     16  C   UNL     1       2.068   3.521  21.666  0.00  0.00    +0.000 A 
ATOM     17  N   UNL     1       2.627   4.639  21.149  0.00  0.00    +0.000 NA
ENDBRANCH  11  12
ENDBRANCH   3  11
TORSDOF 3
ENDMDL
MODEL 6
REMARK VINA RESULT:      -6.2      3.217      6.673
REMARK  Name = 
REMARK  3 active torsions:
REMARK  status: ('A' for Active; 'I' for Inactive)
REMARK    1  A    between atoms: C_2  and  C_11
REMARK    2  A    between atoms: N_3  and  C_4
REMARK    3  A    between atoms: C_4  and  C_5
REMARK                            x       y       z     vdW  Elec       q    Type
REMARK                         _______ _______ _______ _____ _____    ______ ____
ROOT
ATOM      1  O   UNL     1       6.054   4.404  18.968  0.00  0.00    +0.000 OA
ATOM      2  C   UNL     1       5.447   4.859  17.993  0.00  0.00    +0.000 C 
ATOM      3  N   UNL     1       4.260   5.532  18.148  0.00  0.00    +0.000 N 
ATOM      4  H   UNL     1       3.851   6.033  17.367  0.00  0.00    +0.000 HD
ENDROOT
BRANCH   2   5
ATOM      5  C   UNL     1       5.945   4.699  16.640  0.00  0.00    +0.000 A 
ATOM      6  C   UNL     1       7.044   5.343  16.094  0.00  0.00    +0.000 A 
ATOM      7  C   UNL     1       7.253   5.006  14.726  0.00  0.00    +0.000 A 
ATOM      8  C   UNL     1       6.298   4.125  14.288  0.00  0.00    +0.000 A 
ATOM      9 BR   UNL     1       6.205   3.499  12.526  0.00  0.00    +0.000 Br
ATOM     10  S   UNL     1       5.203   3.662  15.495  0.00  0.00    +0.000 S 
ENDBRANCH   2   5
BRANCH   3  11
ATOM     11  C   UNL     1       3.684   5.698  19.465  0.00  0.00    +0.000 C 
BRANCH  11  12
ATOM     12  C   UNL     1       2.706   4.603  19.816  0.00  0.00    +0.000 A 
ATOM     13  C   UNL     1       2.520   4.232  21.148  0.00  0.00    +0.000 A 
ATOM     14  C   UNL     1       1.567   3.265  21.453  0.00  0.00    +0.000 A 
ATOM     15  C   UNL     1       0.826   2.697  20.426  0.00  0.00    +0.000 A 
ATOM     16  C   UNL     1       1.078   3.111  19.129  0.00  0.00    +0.000 A 
ATOM     17  N   UNL     1       1.998   4.046  18.800  0.00  0.00    +0.000 NA
ENDBRANCH  11  12
ENDBRANCH   3  11
TORSDOF 3
ENDMDL
MODEL 7
REMARK VINA RESULT:      -6.1      4.398      6.693
REMARK  Name = 
REMARK  3 active torsions:
REMARK  status: ('A' for Active; 'I' for Inactive)
REMARK    1  A    between atoms: C_2  and  C_11
REMARK    2  A    between atoms: N_3  and  C_4
REMARK    3  A    between atoms: C_4  and  C_5
REMARK                            x       y       z     vdW  Elec       q    Type
REMARK                         _______ _______ _______ _____ _____    ______ ____
ROOT
ATOM      1  O   UNL     1       3.662   5.140  17.302  0.00  0.00    +0.000 OA
ATOM      2  C   UNL     1       4.749   4.741  17.733  0.00  0.00    +0.000 C 
ATOM      3  N   UNL     1       4.933   3.426  18.083  0.00  0.00    +0.000 N 
ATOM      4  H   UNL     1       5.863   3.077  18.285  0.00  0.00    +0.000 HD
ENDROOT
BRANCH   2   5
ATOM      5  C   UNL     1       5.879   5.635  17.900  0.00  0.00    +0.000 A 
ATOM      6  C   UNL     1       7.029   5.367  18.627  0.00  0.00    +0.000 A 
ATOM      7  C   UNL     1       7.939   6.464  18.634  0.00  0.00    +0.000 A 
ATOM      8  C   UNL     1       7.438   7.520  17.920  0.00  0.00    +0.000 A 
ATOM      9 BR   UNL     1       8.320   9.163  17.755  0.00  0.00    +0.000 Br
ATOM     10  S   UNL     1       5.936   7.199  17.204  0.00  0.00    +0.000 S 
ENDBRANCH   2   5
BRANCH   3  11
ATOM     11  C   UNL     1       3.839   2.484  17.977  0.00  0.00    +0.000 C 
BRANCH  11  12
ATOM     12  C   UNL     1       2.876   2.576  19.136  0.00  0.00    +0.000 A 
ATOM     13  C   UNL     1       3.354   2.546  20.446  0.00  0.00    +0.000 A 
ATOM     14  C   UNL     1       2.455   2.696  21.497  0.00  0.00    +0.000 A 
ATOM     15  C   UNL     1       1.108   2.875  21.215  0.00  0.00    +0.000 A 
ATOM     16  C   UNL     1       0.711   2.883  19.888  0.00  0.00    +0.000 A 
ATOM     17  N   UNL     1       1.559   2.736  18.845  0.00  0.00    +0.000 NA
ENDBRANCH  11  12
ENDBRANCH   3  11
TORSDOF 3
ENDMDL
MODEL 8
REMARK VINA RESULT:      -6.1      6.450      7.729
REMARK  Name = 
REMARK  3 active torsions:
REMARK  status: ('A' for Active; 'I' for Inactive)
REMARK    1  A    between atoms: C_2  and  C_11
REMARK    2  A    between atoms: N_3  and  C_4
REMARK    3  A    between atoms: C_4  and  C_5
REMARK                            x       y       z     vdW  Elec       q    Type
REMARK                         _______ _______ _______ _____ _____    ______ ____
ROOT
ATOM      1  O   UNL     1       1.493   9.027  19.014  0.00  0.00    +0.000 OA
ATOM      2  C   UNL     1       1.380   8.674  20.192  0.00  0.00    +0.000 C 
ATOM      3  N   UNL     1       1.945   7.504  20.640  0.00  0.00    +0.000 N 
ATOM      4  H   UNL     1       1.980   7.302  21.632  0.00  0.00    +0.000 HD
ENDROOT
BRANCH   2   5
ATOM      5  C   UNL     1       0.641   9.463  21.160  0.00  0.00    +0.000 A 
ATOM      6  C   UNL     1       0.076   8.993  22.335  0.00  0.00    +0.000 A 
ATOM      7  C   UNL     1      -0.621  10.008  23.051  0.00  0.00    +0.000 A 
ATOM      8  C   UNL     1      -0.562  11.205  22.386  0.00  0.00    +0.000 A 
ATOM      9 BR   UNL     1      -1.415  12.760  22.985  0.00  0.00    +0.000 Br
ATOM     10  S   UNL     1       0.351  11.140  20.961  0.00  0.00    +0.000 S 
ENDBRANCH   2   5
BRANCH   3  11
ATOM     11  C   UNL     1       2.666   6.648  19.723  0.00  0.00    +0.000 C 
BRANCH  11  12
ATOM     12  C   UNL     1       2.023   5.292  19.564  0.00  0.00    +0.000 A 
ATOM     13  C   UNL     1       1.948   4.697  18.304  0.00  0.00    +0.000 A 
ATOM     14  C   UNL     1       1.408   3.419  18.192  0.00  0.00    +0.000 A 
ATOM     15  C   UNL     1       0.961   2.769  19.334  0.00  0.00    +0.000 A 
ATOM     16  C   UNL     1       1.061   3.432  20.546  0.00  0.00    +0.000 A 
ATOM     17  N   UNL     1       1.577   4.674  20.688  0.00  0.00    +0.000 NA
ENDBRANCH  11  12
ENDBRANCH   3  11
TORSDOF 3
ENDMDL
MODEL 9
REMARK VINA RESULT:      -6.1      0.776      1.229
REMARK  Name = 
REMARK  3 active torsions:
REMARK  status: ('A' for Active; 'I' for Inactive)
REMARK    1  A    between atoms: C_2  and  C_11
REMARK    2  A    between atoms: N_3  and  C_4
REMARK    3  A    between atoms: C_4  and  C_5
REMARK                            x       y       z     vdW  Elec       q    Type
REMARK                         _______ _______ _______ _____ _____    ______ ____
ROOT
ATOM      1  O   UNL     1       6.981   4.287  18.474  0.00  0.00    +0.000 OA
ATOM      2  C   UNL     1       5.875   4.677  18.084  0.00  0.00    +0.000 C 
ATOM      3  N   UNL     1       5.730   5.294  16.865  0.00  0.00    +0.000 N 
ATOM      4  H   UNL     1       4.805   5.469  16.489  0.00  0.00    +0.000 HD
ENDROOT
BRANCH   2   5
ATOM      5  C   UNL     1       4.680   4.517  18.890  0.00  0.00    +0.000 A 
ATOM      6  C   UNL     1       3.797   5.524  19.250  0.00  0.00    +0.000 A 
ATOM      7  C   UNL     1       2.741   5.054  20.082  0.00  0.00    +0.000 A 
ATOM      8  C   UNL     1       2.870   3.711  20.325  0.00  0.00    +0.000 A 
ATOM      9 BR   UNL     1       1.705   2.748  21.430  0.00  0.00    +0.000 Br
ATOM     10  S   UNL     1       4.192   3.006  19.536  0.00  0.00    +0.000 S 
ENDBRANCH   2   5
BRANCH   3  11
ATOM     11  C   UNL     1       6.885   5.521  16.022  0.00  0.00    +0.000 C 
BRANCH  11  12
ATOM     12  C   UNL     1       6.725   4.928  14.643  0.00  0.00    +0.000 A 
ATOM     13  C   UNL     1       7.651   5.226  13.643  0.00  0.00    +0.000 A 
ATOM     14  C   UNL     1       7.519   4.619  12.398  0.00  0.00    +0.000 A 
ATOM     15  C   UNL     1       6.474   3.731  12.185  0.00  0.00    +0.000 A 
ATOM     16  C   UNL     1       5.591   3.495  13.226  0.00  0.00    +0.000 A 
ATOM     17  N   UNL     1       5.690   4.072  14.445  0.00  0.00    +0.000 NA
ENDBRANCH  11  12
ENDBRANCH   3  11
TORSDOF 3
ENDMDL
