MODEL 1
REMARK VINA RESULT:      -9.0      0.000      0.000
REMARK  Name = 
REMARK  8 active torsions:
REMARK  status: ('A' for Active; 'I' for Inactive)
REMARK    1  A    between atoms: C_1  and  O_2
REMARK    2  A    between atoms: O_2  and  C_3
REMARK    3  A    between atoms: C_6  and  C_7
REMARK    4  A    between atoms: C_7  and  N_8
REMARK    5  A    between atoms: C_9  and  C_11
REMARK    6  A    between atoms: C_11  and  N_12
REMARK    7  A    between atoms: C_19  and  C_20
REMARK    8  A    between atoms: N_22  and  C_23
REMARK                            x       y       z     vdW  Elec       q    Type
REMARK                         _______ _______ _______ _____ _____    ______ ____
ROOT
ATOM      1  N   UNL     1      -0.240  10.637  19.268  0.00  0.00    +0.000 N 
ATOM      2  C   UNL     1      -0.786  11.084  20.531  0.00  0.00    +0.000 C 
ATOM      3  O   UNL     1      -1.589  12.006  20.519  0.00  0.00    +0.000 OA
ATOM      4  C   UNL     1      -0.335  10.446  21.823  0.00  0.00    +0.000 C 
ATOM      5  C   UNL     1       0.716   9.355  21.739  0.00  0.00    +0.000 C 
ATOM      6  N   UNL     1       1.113   8.999  20.406  0.00  0.00    +0.000 N 
ATOM      7  N   UNL     1       1.989   8.023  20.204  0.00  0.00    +0.000 NA
ATOM      8  C   UNL     1       2.029   7.886  18.869  0.00  0.00    +0.000 A 
ATOM      9  C   UNL     1       1.258   8.890  18.234  0.00  0.00    +0.000 A 
ATOM     10  C   UNL     1       0.654   9.578  19.269  0.00  0.00    +0.000 A 
ENDROOT
BRANCH   8  11
ATOM     11  C   UNL     1       2.897   6.861  18.276  0.00  0.00    +0.000 A 
ATOM     12  C   UNL     1       4.222   7.154  17.995  0.00  0.00    +0.000 A 
ATOM     13  N   UNL     1       4.599   6.218  17.082  0.00  0.00    +0.000 N 
ATOM     14  C   UNL     1       5.025   6.584  15.744  0.00  0.00    +0.000 C 
ATOM     15  C   UNL     1       3.932   5.055  17.377  0.00  0.00    +0.000 A 
ATOM     16  C   UNL     1       4.274   3.727  17.100  0.00  0.00    +0.000 A 
ATOM     17  C   UNL     1       3.321   2.756  17.377  0.00  0.00    +0.000 A 
ATOM     18  C   UNL     1       2.051   3.123  17.819  0.00  0.00    +0.000 A 
ATOM     19  C   UNL     1       1.725   4.470  18.093  0.00  0.00    +0.000 A 
ATOM     20  C   UNL     1       2.717   5.465  17.956  0.00  0.00    +0.000 A 
ENDBRANCH   8  11
BRANCH   1  21
ATOM     21  C   UNL     1      -0.663  11.352  18.054  0.00  0.00    +0.000 C 
BRANCH  21  23
ATOM     22  N   UNL     1      -2.987  11.895  17.543  0.00  0.00    +0.000 N 
ATOM     23  C   UNL     1      -2.033  10.899  17.569  0.00  0.00    +0.000 C 
ATOM     24  O   UNL     1      -2.264   9.742  17.235  0.00  0.00    +0.000 OA
ATOM     25  H   UNL     1      -2.739  12.852  17.733  0.00  0.00    +0.000 HD
BRANCH  22  26
ATOM     26  C   UNL     1      -4.372  11.643  17.215  0.00  0.00    +0.000 C 
BRANCH  26  30
ATOM     27  C   UNL     1      -6.853  11.420  20.741  0.00  0.00    +0.000 A 
ATOM     28  C   UNL     1      -5.754  12.277  20.702  0.00  0.00    +0.000 A 
ATOM     29  C   UNL     1      -4.943  12.344  19.565  0.00  0.00    +0.000 A 
ATOM     30  C   UNL     1      -5.226  11.547  18.453  0.00  0.00    +0.000 A 
ATOM     31  C   UNL     1      -6.310  10.652  18.516  0.00  0.00    +0.000 A 
ATOM     32  C   UNL     1      -7.121  10.587  19.651  0.00  0.00    +0.000 A 
BRANCH  27  34
ATOM     33  C   UNL     1      -7.269  12.519  22.796  0.00  0.00    +0.000 C 
ATOM     34  O   UNL     1      -7.576  11.452  21.903  0.00  0.00    +0.000 OA
ENDBRANCH  27  34
ENDBRANCH  26  30
ENDBRANCH  22  26
ENDBRANCH  21  23
ENDBRANCH   1  21
TORSDOF 6
ENDMDL
MODEL 2
REMARK VINA RESULT:      -8.6      0.927      1.808
REMARK  Name = 
REMARK  8 active torsions:
REMARK  status: ('A' for Active; 'I' for Inactive)
REMARK    1  A    between atoms: C_1  and  O_2
REMARK    2  A    between atoms: O_2  and  C_3
REMARK    3  A    between atoms: C_6  and  C_7
REMARK    4  A    between atoms: C_7  and  N_8
REMARK    5  A    between atoms: C_9  and  C_11
REMARK    6  A    between atoms: C_11  and  N_12
REMARK    7  A    between atoms: C_19  and  C_20
REMARK    8  A    between atoms: N_22  and  C_23
REMARK                            x       y       z     vdW  Elec       q    Type
REMARK                         _______ _______ _______ _____ _____    ______ ____
ROOT
ATOM      1  N   UNL     1       0.136  10.420  19.541  0.00  0.00    +0.000 N 
ATOM      2  C   UNL     1      -0.357  10.927  20.802  0.00  0.00    +0.000 C 
ATOM      3  O   UNL     1      -1.027  11.950  20.792  0.00  0.00    +0.000 OA
ATOM      4  C   UNL     1      -0.010  10.223  22.093  0.00  0.00    +0.000 C 
ATOM      5  C   UNL     1       0.884   9.001  22.007  0.00  0.00    +0.000 C 
ATOM      6  N   UNL     1       1.243   8.605  20.675  0.00  0.00    +0.000 N 
ATOM      7  N   UNL     1       1.980   7.521  20.471  0.00  0.00    +0.000 NA
ATOM      8  C   UNL     1       2.016   7.391  19.135  0.00  0.00    +0.000 A 
ATOM      9  C   UNL     1       1.394   8.496  18.503  0.00  0.00    +0.000 A 
ATOM     10  C   UNL     1       0.878   9.251  19.539  0.00  0.00    +0.000 A 
ENDROOT
BRANCH   8  11
ATOM     11  C   UNL     1       2.742   6.263  18.540  0.00  0.00    +0.000 A 
ATOM     12  C   UNL     1       2.361   4.962  18.833  0.00  0.00    +0.000 A 
ATOM     13  N   UNL     1       3.449   4.204  18.528  0.00  0.00    +0.000 N 
ATOM     14  C   UNL     1       4.142   3.422  19.534  0.00  0.00    +0.000 C 
ATOM     15  C   UNL     1       4.074   4.785  17.452  0.00  0.00    +0.000 A 
ATOM     16  C   UNL     1       4.894   4.214  16.472  0.00  0.00    +0.000 A 
ATOM     17  C   UNL     1       5.524   5.082  15.589  0.00  0.00    +0.000 A 
ATOM     18  C   UNL     1       5.404   6.460  15.753  0.00  0.00    +0.000 A 
ATOM     19  C   UNL     1       4.569   7.017  16.747  0.00  0.00    +0.000 A 
ATOM     20  C   UNL     1       3.806   6.161  17.570  0.00  0.00    +0.000 A 
ENDBRANCH   8  11
BRANCH   1  21
ATOM     21  C   UNL     1      -0.174  11.197  18.329  0.00  0.00    +0.000 C 
BRANCH  21  23
ATOM     22  N   UNL     1      -2.451  11.825  17.715  0.00  0.00    +0.000 N 
ATOM     23  C   UNL     1      -1.517  10.810  17.728  0.00  0.00    +0.000 C 
ATOM     24  O   UNL     1      -1.747   9.684  17.297  0.00  0.00    +0.000 OA
ATOM     25  H   UNL     1      -2.199  12.760  17.991  0.00  0.00    +0.000 HD
BRANCH  22  26
ATOM     26  C   UNL     1      -3.816  11.627  17.284  0.00  0.00    +0.000 C 
BRANCH  26  30
ATOM     27  C   UNL     1      -6.567  11.569  20.610  0.00  0.00    +0.000 A 
ATOM     28  C   UNL     1      -5.412  12.348  20.661  0.00  0.00    +0.000 A 
ATOM     29  C   UNL     1      -4.514  12.361  19.589  0.00  0.00    +0.000 A 
ATOM     30  C   UNL     1      -4.766  11.588  18.453  0.00  0.00    +0.000 A 
ATOM     31  C   UNL     1      -5.911  10.771  18.426  0.00  0.00    +0.000 A 
ATOM     32  C   UNL     1      -6.809  10.760  19.496  0.00  0.00    +0.000 A 
BRANCH  27  34
ATOM     33  C   UNL     1      -7.818  12.955  22.065  0.00  0.00    +0.000 C 
ATOM     34  O   UNL     1      -7.373  11.649  21.714  0.00  0.00    +0.000 OA
ENDBRANCH  27  34
ENDBRANCH  26  30
ENDBRANCH  22  26
ENDBRANCH  21  23
ENDBRANCH   1  21
TORSDOF 6
ENDMDL
MODEL 3
REMARK VINA RESULT:      -8.5      5.327     10.716
REMARK  Name = 
REMARK  8 active torsions:
REMARK  status: ('A' for Active; 'I' for Inactive)
REMARK    1  A    between atoms: C_1  and  O_2
REMARK    2  A    between atoms: O_2  and  C_3
REMARK    3  A    between atoms: C_6  and  C_7
REMARK    4  A    between atoms: C_7  and  N_8
REMARK    5  A    between atoms: C_9  and  C_11
REMARK    6  A    between atoms: C_11  and  N_12
REMARK    7  A    between atoms: C_19  and  C_20
REMARK    8  A    between atoms: N_22  and  C_23
REMARK                            x       y       z     vdW  Elec       q    Type
REMARK                         _______ _______ _______ _____ _____    ______ ____
ROOT
ATOM      1  N   UNL     1       5.907   6.072  16.910  0.00  0.00    +0.000 N 
ATOM      2  C   UNL     1       6.076   4.654  16.685  0.00  0.00    +0.000 C 
ATOM      3  O   UNL     1       7.162   4.257  16.289  0.00  0.00    +0.000 OA
ATOM      4  C   UNL     1       4.919   3.707  16.899  0.00  0.00    +0.000 C 
ATOM      5  C   UNL     1       3.592   4.305  17.325  0.00  0.00    +0.000 C 
ATOM      6  N   UNL     1       3.611   5.722  17.552  0.00  0.00    +0.000 N 
ATOM      7  N   UNL     1       2.522   6.349  17.978  0.00  0.00    +0.000 NA
ATOM      8  C   UNL     1       2.929   7.611  18.192  0.00  0.00    +0.000 A 
ATOM      9  C   UNL     1       4.268   7.790  17.764  0.00  0.00    +0.000 A 
ATOM     10  C   UNL     1       4.687   6.530  17.380  0.00  0.00    +0.000 A 
ENDROOT
BRANCH   8  11
ATOM     11  C   UNL     1       1.971   8.601  18.698  0.00  0.00    +0.000 A 
ATOM     12  C   UNL     1       1.430   9.544  17.837  0.00  0.00    +0.000 A 
ATOM     13  N   UNL     1       0.979  10.538  18.649  0.00  0.00    +0.000 N 
ATOM     14  C   UNL     1       1.511  11.886  18.575  0.00  0.00    +0.000 C 
ATOM     15  C   UNL     1       0.537   9.958  19.813  0.00  0.00    +0.000 A 
ATOM     16  C   UNL     1      -0.415  10.407  20.736  0.00  0.00    +0.000 A 
ATOM     17  C   UNL     1      -0.544   9.684  21.914  0.00  0.00    +0.000 A 
ATOM     18  C   UNL     1       0.315   8.620  22.185  0.00  0.00    +0.000 A 
ATOM     19  C   UNL     1       1.268   8.182  21.239  0.00  0.00    +0.000 A 
ATOM     20  C   UNL     1       1.329   8.807  19.974  0.00  0.00    +0.000 A 
ENDBRANCH   8  11
BRANCH   1  21
ATOM     21  C   UNL     1       7.050   6.949  16.609  0.00  0.00    +0.000 C 
BRANCH  21  23
ATOM     22  N   UNL     1       8.093   8.734  17.907  0.00  0.00    +0.000 N 
ATOM     23  C   UNL     1       7.781   7.391  17.869  0.00  0.00    +0.000 C 
ATOM     24  O   UNL     1       8.071   6.611  18.771  0.00  0.00    +0.000 OA
ATOM     25  H   UNL     1       7.758   9.361  17.194  0.00  0.00    +0.000 HD
BRANCH  22  26
ATOM     26  C   UNL     1       8.877   9.326  18.967  0.00  0.00    +0.000 C 
BRANCH  26  30
ATOM     27  C   UNL     1      10.084  13.361  18.018  0.00  0.00    +0.000 A 
ATOM     28  C   UNL     1       8.896  12.840  17.508  0.00  0.00    +0.000 A 
ATOM     29  C   UNL     1       8.508  11.530  17.806  0.00  0.00    +0.000 A 
ATOM     30  C   UNL     1       9.312  10.727  18.619  0.00  0.00    +0.000 A 
ATOM     31  C   UNL     1      10.531  11.244  19.093  0.00  0.00    +0.000 A 
ATOM     32  C   UNL     1      10.918  12.554  18.798  0.00  0.00    +0.000 A 
BRANCH  27  34
ATOM     33  C   UNL     1      10.314  15.608  18.726  0.00  0.00    +0.000 C 
ATOM     34  O   UNL     1      10.351  14.657  17.666  0.00  0.00    +0.000 OA
ENDBRANCH  27  34
ENDBRANCH  26  30
ENDBRANCH  22  26
ENDBRANCH  21  23
ENDBRANCH   1  21
TORSDOF 6
ENDMDL
MODEL 4
REMARK VINA RESULT:      -8.4      5.164     10.248
REMARK  Name = 
REMARK  8 active torsions:
REMARK  status: ('A' for Active; 'I' for Inactive)
REMARK    1  A    between atoms: C_1  and  O_2
REMARK    2  A    between atoms: O_2  and  C_3
REMARK    3  A    between atoms: C_6  and  C_7
REMARK    4  A    between atoms: C_7  and  N_8
REMARK    5  A    between atoms: C_9  and  C_11
REMARK    6  A    between atoms: C_11  and  N_12
REMARK    7  A    between atoms: C_19  and  C_20
REMARK    8  A    between atoms: N_22  and  C_23
REMARK                            x       y       z     vdW  Elec       q    Type
REMARK                         _______ _______ _______ _____ _____    ______ ____
ROOT
ATOM      1  N   UNL     1       4.782   5.664  16.784  0.00  0.00    +0.000 N 
ATOM      2  C   UNL     1       4.718   4.224  16.668  0.00  0.00    +0.000 C 
ATOM      3  O   UNL     1       5.647   3.646  16.122  0.00  0.00    +0.000 OA
ATOM      4  C   UNL     1       3.509   3.474  17.175  0.00  0.00    +0.000 C 
ATOM      5  C   UNL     1       2.378   4.288  17.775  0.00  0.00    +0.000 C 
ATOM      6  N   UNL     1       2.626   5.699  17.859  0.00  0.00    +0.000 N 
ATOM      7  N   UNL     1       1.730   6.507  18.412  0.00  0.00    +0.000 NA
ATOM      8  C   UNL     1       2.334   7.706  18.430  0.00  0.00    +0.000 A 
ATOM      9  C   UNL     1       3.577   7.658  17.753  0.00  0.00    +0.000 A 
ATOM     10  C   UNL     1       3.746   6.327  17.421  0.00  0.00    +0.000 A 
ENDROOT
BRANCH   8  11
ATOM     11  C   UNL     1       1.628   8.859  19.003  0.00  0.00    +0.000 A 
ATOM     12  C   UNL     1       1.178   9.877  18.177  0.00  0.00    +0.000 A 
ATOM     13  N   UNL     1       1.002  10.944  19.003  0.00  0.00    +0.000 N 
ATOM     14  C   UNL     1       1.757  12.172  18.838  0.00  0.00    +0.000 C 
ATOM     15  C   UNL     1       0.587  10.463  20.222  0.00  0.00    +0.000 A 
ATOM     16  C   UNL     1      -0.165  11.085  21.224  0.00  0.00    +0.000 A 
ATOM     17  C   UNL     1      -0.297  10.408  22.429  0.00  0.00    +0.000 A 
ATOM     18  C   UNL     1       0.380   9.208  22.639  0.00  0.00    +0.000 A 
ATOM     19  C   UNL     1       1.133   8.596  21.613  0.00  0.00    +0.000 A 
ATOM     20  C   UNL     1       1.172   9.189  20.332  0.00  0.00    +0.000 A 
ENDBRANCH   8  11
BRANCH   1  21
ATOM     21  C   UNL     1       5.952   6.341  16.201  0.00  0.00    +0.000 C 
BRANCH  21  23
ATOM     22  N   UNL     1       7.319   7.765  17.637  0.00  0.00    +0.000 N 
ATOM     23  C   UNL     1       7.093   6.477  17.199  0.00  0.00    +0.000 C 
ATOM     24  O   UNL     1       7.757   5.516  17.577  0.00  0.00    +0.000 OA
ATOM     25  H   UNL     1       6.696   8.514  17.380  0.00  0.00    +0.000 HD
BRANCH  22  26
ATOM     26  C   UNL     1       8.421   8.116  18.503  0.00  0.00    +0.000 C 
BRANCH  26  30
ATOM     27  C   UNL     1       9.086  12.382  18.544  0.00  0.00    +0.000 A 
ATOM     28  C   UNL     1       8.271  11.802  17.573  0.00  0.00    +0.000 A 
ATOM     29  C   UNL     1       8.062  10.420  17.551  0.00  0.00    +0.000 A 
ATOM     30  C   UNL     1       8.673   9.602  18.506  0.00  0.00    +0.000 A 
ATOM     31  C   UNL     1       9.529  10.188  19.455  0.00  0.00    +0.000 A 
ATOM     32  C   UNL     1       9.736  11.570  19.478  0.00  0.00    +0.000 A 
BRANCH  27  34
ATOM     33  C   UNL     1       8.133  14.492  19.035  0.00  0.00    +0.000 C 
ATOM     34  O   UNL     1       9.205  13.743  18.469  0.00  0.00    +0.000 OA
ENDBRANCH  27  34
ENDBRANCH  26  30
ENDBRANCH  22  26
ENDBRANCH  21  23
ENDBRANCH   1  21
TORSDOF 6
ENDMDL
MODEL 5
REMARK VINA RESULT:      -8.4      5.089     10.346
REMARK  Name = 
REMARK  8 active torsions:
REMARK  status: ('A' for Active; 'I' for Inactive)
REMARK    1  A    between atoms: C_1  and  O_2
REMARK    2  A    between atoms: O_2  and  C_3
REMARK    3  A    between atoms: C_6  and  C_7
REMARK    4  A    between atoms: C_7  and  N_8
REMARK    5  A    between atoms: C_9  and  C_11
REMARK    6  A    between atoms: C_11  and  N_12
REMARK    7  A    between atoms: C_19  and  C_20
REMARK    8  A    between atoms: N_22  and  C_23
REMARK                            x       y       z     vdW  Elec       q    Type
REMARK                         _______ _______ _______ _____ _____    ______ ____
ROOT
ATOM      1  N   UNL     1       4.844   5.872  16.917  0.00  0.00    +0.000 N 
ATOM      2  C   UNL     1       4.793   4.439  16.731  0.00  0.00    +0.000 C 
ATOM      3  O   UNL     1       5.759   3.887  16.223  0.00  0.00    +0.000 OA
ATOM      4  C   UNL     1       3.557   3.664  17.121  0.00  0.00    +0.000 C 
ATOM      5  C   UNL     1       2.385   4.448  17.680  0.00  0.00    +0.000 C 
ATOM      6  N   UNL     1       2.620   5.854  17.845  0.00  0.00    +0.000 N 
ATOM      7  N   UNL     1       1.686   6.635  18.373  0.00  0.00    +0.000 NA
ATOM      8  C   UNL     1       2.281   7.833  18.485  0.00  0.00    +0.000 A 
ATOM      9  C   UNL     1       3.567   7.817  17.892  0.00  0.00    +0.000 A 
ATOM     10  C   UNL     1       3.764   6.503  17.512  0.00  0.00    +0.000 A 
ENDROOT
BRANCH   8  11
ATOM     11  C   UNL     1       1.534   8.957  19.062  0.00  0.00    +0.000 A 
ATOM     12  C   UNL     1       1.041   9.957  18.238  0.00  0.00    +0.000 A 
ATOM     13  N   UNL     1       0.827  11.016  19.065  0.00  0.00    +0.000 N 
ATOM     14  C   UNL     1       1.532  12.272  18.898  0.00  0.00    +0.000 C 
ATOM     15  C   UNL     1       0.436  10.520  20.285  0.00  0.00    +0.000 A 
ATOM     16  C   UNL     1      -0.336  11.112  21.291  0.00  0.00    +0.000 A 
ATOM     17  C   UNL     1      -0.436  10.429  22.497  0.00  0.00    +0.000 A 
ATOM     18  C   UNL     1       0.288   9.257  22.703  0.00  0.00    +0.000 A 
ATOM     19  C   UNL     1       1.060   8.674  21.674  0.00  0.00    +0.000 A 
ATOM     20  C   UNL     1       1.070   9.269  20.393  0.00  0.00    +0.000 A 
ENDBRANCH   8  11
BRANCH   1  21
ATOM     21  C   UNL     1       6.047   6.576  16.444  0.00  0.00    +0.000 C 
BRANCH  21  23
ATOM     22  N   UNL     1       7.595   8.087  17.575  0.00  0.00    +0.000 N 
ATOM     23  C   UNL     1       7.045   6.822  17.567  0.00  0.00    +0.000 C 
ATOM     24  O   UNL     1       7.336   5.960  18.390  0.00  0.00    +0.000 OA
ATOM     25  H   UNL     1       7.264   8.797  16.943  0.00  0.00    +0.000 HD
BRANCH  22  26
ATOM     26  C   UNL     1       8.638   8.480  18.494  0.00  0.00    +0.000 C 
BRANCH  26  30
ATOM     27  C   UNL     1       9.067  12.771  18.711  0.00  0.00    +0.000 A 
ATOM     28  C   UNL     1       9.540  11.960  19.741  0.00  0.00    +0.000 A 
ATOM     29  C   UNL     1       9.394  10.571  19.678  0.00  0.00    +0.000 A 
ATOM     30  C   UNL     1       8.767   9.980  18.578  0.00  0.00    +0.000 A 
ATOM     31  C   UNL     1       8.252  10.807  17.563  0.00  0.00    +0.000 A 
ATOM     32  C   UNL     1       8.400  12.195  17.625  0.00  0.00    +0.000 A 
BRANCH  27  34
ATOM     33  C   UNL     1      10.607  14.567  18.641  0.00  0.00    +0.000 C 
ATOM     34  O   UNL     1       9.278  14.113  18.881  0.00  0.00    +0.000 OA
ENDBRANCH  27  34
ENDBRANCH  26  30
ENDBRANCH  22  26
ENDBRANCH  21  23
ENDBRANCH   1  21
TORSDOF 6
ENDMDL
MODEL 6
REMARK VINA RESULT:      -8.2      4.976     10.035
REMARK  Name = 
REMARK  8 active torsions:
REMARK  status: ('A' for Active; 'I' for Inactive)
REMARK    1  A    between atoms: C_1  and  O_2
REMARK    2  A    between atoms: O_2  and  C_3
REMARK    3  A    between atoms: C_6  and  C_7
REMARK    4  A    between atoms: C_7  and  N_8
REMARK    5  A    between atoms: C_9  and  C_11
REMARK    6  A    between atoms: C_11  and  N_12
REMARK    7  A    between atoms: C_19  and  C_20
REMARK    8  A    between atoms: N_22  and  C_23
REMARK                            x       y       z     vdW  Elec       q    Type
REMARK                         _______ _______ _______ _____ _____    ______ ____
ROOT
ATOM      1  N   UNL     1       3.094   3.977  18.463  0.00  0.00    +0.000 N 
ATOM      2  C   UNL     1       3.302   2.870  19.370  0.00  0.00    +0.000 C 
ATOM      3  O   UNL     1       3.774   1.835  18.921  0.00  0.00    +0.000 OA
ATOM      4  C   UNL     1       2.902   2.992  20.822  0.00  0.00    +0.000 C 
ATOM      5  C   UNL     1       2.262   4.292  21.267  0.00  0.00    +0.000 C 
ATOM      6  N   UNL     1       2.176   5.304  20.252  0.00  0.00    +0.000 N 
ATOM      7  N   UNL     1       1.681   6.502  20.538  0.00  0.00    +0.000 NA
ATOM      8  C   UNL     1       1.863   7.211  19.412  0.00  0.00    +0.000 A 
ATOM      9  C   UNL     1       2.363   6.390  18.372  0.00  0.00    +0.000 A 
ATOM     10  C   UNL     1       2.581   5.161  18.966  0.00  0.00    +0.000 A 
ENDROOT
BRANCH   8  11
ATOM     11  C   UNL     1       1.443   8.617  19.371  0.00  0.00    +0.000 A 
ATOM     12  C   UNL     1       1.412   9.295  18.163  0.00  0.00    +0.000 A 
ATOM     13  N   UNL     1       1.437  10.613  18.502  0.00  0.00    +0.000 N 
ATOM     14  C   UNL     1       2.523  11.486  18.098  0.00  0.00    +0.000 C 
ATOM     15  C   UNL     1       0.747  10.753  19.682  0.00  0.00    +0.000 A 
ATOM     16  C   UNL     1       0.076  11.864  20.204  0.00  0.00    +0.000 A 
ATOM     17  C   UNL     1      -0.400  11.762  21.505  0.00  0.00    +0.000 A 
ATOM     18  C   UNL     1      -0.123  10.630  22.268  0.00  0.00    +0.000 A 
ATOM     19  C   UNL     1       0.555   9.518  21.722  0.00  0.00    +0.000 A 
ATOM     20  C   UNL     1       0.927   9.534  20.360  0.00  0.00    +0.000 A 
ENDBRANCH   8  11
BRANCH   1  21
ATOM     21  C   UNL     1       3.433   3.767  17.046  0.00  0.00    +0.000 C 
BRANCH  21  23
ATOM     22  N   UNL     1       5.683   4.142  17.916  0.00  0.00    +0.000 N 
ATOM     23  C   UNL     1       4.926   3.911  16.786  0.00  0.00    +0.000 C 
ATOM     24  O   UNL     1       5.410   3.832  15.661  0.00  0.00    +0.000 OA
ATOM     25  H   UNL     1       5.266   4.108  18.832  0.00  0.00    +0.000 HD
BRANCH  22  26
ATOM     26  C   UNL     1       7.102   4.412  17.865  0.00  0.00    +0.000 C 
BRANCH  26  30
ATOM     27  C   UNL     1       7.974   8.639  17.990  0.00  0.00    +0.000 A 
ATOM     28  C   UNL     1       8.536   7.773  18.926  0.00  0.00    +0.000 A 
ATOM     29  C   UNL     1       8.247   6.405  18.894  0.00  0.00    +0.000 A 
ATOM     30  C   UNL     1       7.387   5.891  17.920  0.00  0.00    +0.000 A 
ATOM     31  C   UNL     1       6.789   6.777  17.005  0.00  0.00    +0.000 A 
ATOM     32  C   UNL     1       7.079   8.143  17.036  0.00  0.00    +0.000 A 
BRANCH  27  34
ATOM     33  C   UNL     1       9.234  10.246  19.186  0.00  0.00    +0.000 C 
ATOM     34  O   UNL     1       8.340   9.951  18.116  0.00  0.00    +0.000 OA
ENDBRANCH  27  34
ENDBRANCH  26  30
ENDBRANCH  22  26
ENDBRANCH  21  23
ENDBRANCH   1  21
TORSDOF 6
ENDMDL
MODEL 7
REMARK VINA RESULT:      -8.1      1.488      2.379
REMARK  Name = 
REMARK  8 active torsions:
REMARK  status: ('A' for Active; 'I' for Inactive)
REMARK    1  A    between atoms: C_1  and  O_2
REMARK    2  A    between atoms: O_2  and  C_3
REMARK    3  A    between atoms: C_6  and  C_7
REMARK    4  A    between atoms: C_7  and  N_8
REMARK    5  A    between atoms: C_9  and  C_11
REMARK    6  A    between atoms: C_11  and  N_12
REMARK    7  A    between atoms: C_19  and  C_20
REMARK    8  A    between atoms: N_22  and  C_23
REMARK                            x       y       z     vdW  Elec       q    Type
REMARK                         _______ _______ _______ _____ _____    ______ ____
ROOT
ATOM      1  N   UNL     1       0.648  10.876  20.170  0.00  0.00    +0.000 N 
ATOM      2  C   UNL     1      -0.098  11.288  21.339  0.00  0.00    +0.000 C 
ATOM      3  O   UNL     1      -0.501  12.441  21.390  0.00  0.00    +0.000 OA
ATOM      4  C   UNL     1      -0.326  10.320  22.476  0.00  0.00    +0.000 C 
ATOM      5  C   UNL     1       0.273   8.933  22.348  0.00  0.00    +0.000 C 
ATOM      6  N   UNL     1       0.939   8.674  21.103  0.00  0.00    +0.000 N 
ATOM      7  N   UNL     1       1.459   7.478  20.855  0.00  0.00    +0.000 NA
ATOM      8  C   UNL     1       1.882   7.558  19.583  0.00  0.00    +0.000 A 
ATOM      9  C   UNL     1       1.735   8.876  19.083  0.00  0.00    +0.000 A 
ATOM     10  C   UNL     1       1.091   9.566  20.093  0.00  0.00    +0.000 A 
ENDROOT
BRANCH   8  11
ATOM     11  C   UNL     1       2.505   6.387  18.956  0.00  0.00    +0.000 A 
ATOM     12  C   UNL     1       2.003   5.119  19.205  0.00  0.00    +0.000 A 
ATOM     13  N   UNL     1       3.018   4.272  18.881  0.00  0.00    +0.000 N 
ATOM     14  C   UNL     1       3.627   3.398  19.865  0.00  0.00    +0.000 C 
ATOM     15  C   UNL     1       3.702   4.826  17.827  0.00  0.00    +0.000 A 
ATOM     16  C   UNL     1       4.474   4.213  16.834  0.00  0.00    +0.000 A 
ATOM     17  C   UNL     1       5.188   5.045  15.982  0.00  0.00    +0.000 A 
ATOM     18  C   UNL     1       5.196   6.423  16.189  0.00  0.00    +0.000 A 
ATOM     19  C   UNL     1       4.409   7.023  17.196  0.00  0.00    +0.000 A 
ATOM     20  C   UNL     1       3.563   6.217  17.988  0.00  0.00    +0.000 A 
ENDBRANCH   8  11
BRANCH   1  21
ATOM     21  C   UNL     1       0.902  11.890  19.134  0.00  0.00    +0.000 C 
BRANCH  21  23
ATOM     22  N   UNL     1      -1.296  11.282  18.263  0.00  0.00    +0.000 N 
ATOM     23  C   UNL     1      -0.371  12.295  18.404  0.00  0.00    +0.000 C 
ATOM     24  O   UNL     1      -0.551  13.430  17.974  0.00  0.00    +0.000 OA
ATOM     25  H   UNL     1      -1.155  10.390  18.709  0.00  0.00    +0.000 HD
BRANCH  22  26
ATOM     26  C   UNL     1      -2.518  11.437  17.510  0.00  0.00    +0.000 C 
BRANCH  26  30
ATOM     27  C   UNL     1      -5.922  11.850  20.134  0.00  0.00    +0.000 A 
ATOM     28  C   UNL     1      -6.022  11.110  18.957  0.00  0.00    +0.000 A 
ATOM     29  C   UNL     1      -4.924  10.983  18.100  0.00  0.00    +0.000 A 
ATOM     30  C   UNL     1      -3.711  11.601  18.416  0.00  0.00    +0.000 A 
ATOM     31  C   UNL     1      -3.631  12.384  19.583  0.00  0.00    +0.000 A 
ATOM     32  C   UNL     1      -4.727  12.508  20.440  0.00  0.00    +0.000 A 
BRANCH  27  34
ATOM     33  C   UNL     1      -7.860  10.713  20.879  0.00  0.00    +0.000 C 
ATOM     34  O   UNL     1      -7.059  11.892  20.895  0.00  0.00    +0.000 OA
ENDBRANCH  27  34
ENDBRANCH  26  30
ENDBRANCH  22  26
ENDBRANCH  21  23
ENDBRANCH   1  21
TORSDOF 6
ENDMDL
MODEL 8
REMARK VINA RESULT:      -8.0      5.179     10.102
REMARK  Name = 
REMARK  8 active torsions:
REMARK  status: ('A' for Active; 'I' for Inactive)
REMARK    1  A    between atoms: C_1  and  O_2
REMARK    2  A    between atoms: O_2  and  C_3
REMARK    3  A    between atoms: C_6  and  C_7
REMARK    4  A    between atoms: C_7  and  N_8
REMARK    5  A    between atoms: C_9  and  C_11
REMARK    6  A    between atoms: C_11  and  N_12
REMARK    7  A    between atoms: C_19  and  C_20
REMARK    8  A    between atoms: N_22  and  C_23
REMARK                            x       y       z     vdW  Elec       q    Type
REMARK                         _______ _______ _______ _____ _____    ______ ____
ROOT
ATOM      1  N   UNL     1       2.887   3.820  18.509  0.00  0.00    +0.000 N 
ATOM      2  C   UNL     1       3.010   2.509  19.108  0.00  0.00    +0.000 C 
ATOM      3  O   UNL     1       3.418   1.591  18.411  0.00  0.00    +0.000 OA
ATOM      4  C   UNL     1       2.602   2.288  20.545  0.00  0.00    +0.000 C 
ATOM      5  C   UNL     1       2.044   3.475  21.307  0.00  0.00    +0.000 C 
ATOM      6  N   UNL     1       2.037   4.712  20.579  0.00  0.00    +0.000 N 
ATOM      7  N   UNL     1       1.619   5.831  21.159  0.00  0.00    +0.000 NA
ATOM      8  C   UNL     1       1.861   6.786  20.247  0.00  0.00    +0.000 A 
ATOM      9  C   UNL     1       2.318   6.221  19.031  0.00  0.00    +0.000 A 
ATOM     10  C   UNL     1       2.447   4.871  19.296  0.00  0.00    +0.000 A 
ENDROOT
BRANCH   8  11
ATOM     11  C   UNL     1       1.535   8.182  20.563  0.00  0.00    +0.000 A 
ATOM     12  C   UNL     1       1.447   8.591  21.884  0.00  0.00    +0.000 A 
ATOM     13  N   UNL     1       0.716   9.738  21.846  0.00  0.00    +0.000 N 
ATOM     14  C   UNL     1      -0.565   9.851  22.518  0.00  0.00    +0.000 C 
ATOM     15  C   UNL     1       1.021  10.388  20.676  0.00  0.00    +0.000 A 
ATOM     16  C   UNL     1       0.952  11.749  20.359  0.00  0.00    +0.000 A 
ATOM     17  C   UNL     1       1.171  12.103  19.034  0.00  0.00    +0.000 A 
ATOM     18  C   UNL     1       1.354  11.119  18.064  0.00  0.00    +0.000 A 
ATOM     19  C   UNL     1       1.422   9.750  18.405  0.00  0.00    +0.000 A 
ATOM     20  C   UNL     1       1.344   9.368  19.762  0.00  0.00    +0.000 A 
ENDBRANCH   8  11
BRANCH   1  21
ATOM     21  C   UNL     1       3.229   3.950  17.083  0.00  0.00    +0.000 C 
BRANCH  21  23
ATOM     22  N   UNL     1       5.475   4.235  17.996  0.00  0.00    +0.000 N 
ATOM     23  C   UNL     1       4.733   4.003  16.856  0.00  0.00    +0.000 C 
ATOM     24  O   UNL     1       5.238   3.856  15.748  0.00  0.00    +0.000 OA
ATOM     25  H   UNL     1       5.035   4.257  18.901  0.00  0.00    +0.000 HD
BRANCH  22  26
ATOM     26  C   UNL     1       6.907   4.425  17.972  0.00  0.00    +0.000 C 
BRANCH  26  30
ATOM     27  C   UNL     1       8.007   8.600  18.017  0.00  0.00    +0.000 A 
ATOM     28  C   UNL     1       8.539   7.718  18.956  0.00  0.00    +0.000 A 
ATOM     29  C   UNL     1       8.177   6.368  18.950  0.00  0.00    +0.000 A 
ATOM     30  C   UNL     1       7.272   5.888  18.000  0.00  0.00    +0.000 A 
ATOM     31  C   UNL     1       6.705   6.792  17.083  0.00  0.00    +0.000 A 
ATOM     32  C   UNL     1       7.068   8.141  17.088  0.00  0.00    +0.000 A 
BRANCH  27  34
ATOM     33  C   UNL     1       9.247  10.190  19.257  0.00  0.00    +0.000 C 
ATOM     34  O   UNL     1       8.445   9.893  18.118  0.00  0.00    +0.000 OA
ENDBRANCH  27  34
ENDBRANCH  26  30
ENDBRANCH  22  26
ENDBRANCH  21  23
ENDBRANCH   1  21
TORSDOF 6
ENDMDL
MODEL 9
REMARK VINA RESULT:      -8.0      4.846     10.768
REMARK  Name = 
REMARK  8 active torsions:
REMARK  status: ('A' for Active; 'I' for Inactive)
REMARK    1  A    between atoms: C_1  and  O_2
REMARK    2  A    between atoms: O_2  and  C_3
REMARK    3  A    between atoms: C_6  and  C_7
REMARK    4  A    between atoms: C_7  and  N_8
REMARK    5  A    between atoms: C_9  and  C_11
REMARK    6  A    between atoms: C_11  and  N_12
REMARK    7  A    between atoms: C_19  and  C_20
REMARK    8  A    between atoms: N_22  and  C_23
REMARK                            x       y       z     vdW  Elec       q    Type
REMARK                         _______ _______ _______ _____ _____    ______ ____
ROOT
ATOM      1  N   UNL     1       4.237   3.963  19.613  0.00  0.00    +0.000 N 
ATOM      2  C   UNL     1       4.094   2.728  20.351  0.00  0.00    +0.000 C 
ATOM      3  O   UNL     1       4.919   1.844  20.165  0.00  0.00    +0.000 OA
ATOM      4  C   UNL     1       2.928   2.534  21.291  0.00  0.00    +0.000 C 
ATOM      5  C   UNL     1       1.920   3.662  21.401  0.00  0.00    +0.000 C 
ATOM      6  N   UNL     1       2.240   4.836  20.640  0.00  0.00    +0.000 N 
ATOM      7  N   UNL     1       1.459   5.907  20.697  0.00  0.00    +0.000 NA
ATOM      8  C   UNL     1       2.112   6.832  19.974  0.00  0.00    +0.000 A 
ATOM      9  C   UNL     1       3.255   6.272  19.353  0.00  0.00    +0.000 A 
ATOM     10  C   UNL     1       3.321   4.978  19.833  0.00  0.00    +0.000 A 
ENDROOT
BRANCH   8  11
ATOM     11  C   UNL     1       1.537   8.175  19.836  0.00  0.00    +0.000 A 
ATOM     12  C   UNL     1       1.418   8.751  18.580  0.00  0.00    +0.000 A 
ATOM     13  N   UNL     1       1.300  10.086  18.819  0.00  0.00    +0.000 N 
ATOM     14  C   UNL     1       2.278  11.039  18.330  0.00  0.00    +0.000 C 
ATOM     15  C   UNL     1       0.611  10.239  19.998  0.00  0.00    +0.000 A 
ATOM     16  C   UNL     1      -0.173  11.306  20.448  0.00  0.00    +0.000 A 
ATOM     17  C   UNL     1      -0.621  11.253  21.762  0.00  0.00    +0.000 A 
ATOM     18  C   UNL     1      -0.212  10.220  22.603  0.00  0.00    +0.000 A 
ATOM     19  C   UNL     1       0.580   9.151  22.128  0.00  0.00    +0.000 A 
ATOM     20  C   UNL     1       0.934   9.103  20.762  0.00  0.00    +0.000 A 
ENDBRANCH   8  11
BRANCH   1  21
ATOM     21  C   UNL     1       5.352   4.058  18.657  0.00  0.00    +0.000 C 
BRANCH  21  23
ATOM     22  N   UNL     1       5.638   5.335  16.596  0.00  0.00    +0.000 N 
ATOM     23  C   UNL     1       4.874   4.391  17.251  0.00  0.00    +0.000 C 
ATOM     24  O   UNL     1       3.888   3.862  16.747  0.00  0.00    +0.000 OA
ATOM     25  H   UNL     1       6.493   5.678  17.002  0.00  0.00    +0.000 HD
BRANCH  22  26
ATOM     26  C   UNL     1       5.287   5.861  15.297  0.00  0.00    +0.000 C 
BRANCH  26  30
ATOM     27  C   UNL     1       6.767   3.292  12.159  0.00  0.00    +0.000 A 
ATOM     28  C   UNL     1       7.612   4.212  12.777  0.00  0.00    +0.000 A 
ATOM     29  C   UNL     1       7.133   5.053  13.787  0.00  0.00    +0.000 A 
ATOM     30  C   UNL     1       5.796   4.979  14.186  0.00  0.00    +0.000 A 
ATOM     31  C   UNL     1       4.938   4.078  13.528  0.00  0.00    +0.000 A 
ATOM     32  C   UNL     1       5.418   3.238  12.520  0.00  0.00    +0.000 A 
BRANCH  27  34
ATOM     33  C   UNL     1       6.755   1.245  10.970  0.00  0.00    +0.000 C 
ATOM     34  O   UNL     1       7.354   2.518  11.194  0.00  0.00    +0.000 OA
ENDBRANCH  27  34
ENDBRANCH  26  30
ENDBRANCH  22  26
ENDBRANCH  21  23
ENDBRANCH   1  21
TORSDOF 6
ENDMDL
