MODEL 1
REMARK VINA RESULT:      -7.4      0.000      0.000
REMARK  Name = 
REMARK  8 active torsions:
REMARK  status: ('A' for Active; 'I' for Inactive)
REMARK    1  A    between atoms: C_1  and  C_2
REMARK    2  A    between atoms: N_4  and  C_5
REMARK    3  A    between atoms: C_5  and  C_6
REMARK    4  A    between atoms: C_5  and  C_15
REMARK    5  A    between atoms: C_6  and  C_7
REMARK    6  A    between atoms: C_9  and  C_10
REMARK    7  A    between atoms: C_13  and  C_14
REMARK    8  A    between atoms: C_21  and  C_23
REMARK                            x       y       z     vdW  Elec       q    Type
REMARK                         _______ _______ _______ _____ _____    ______ ____
ROOT
ATOM      1  C   UNL     1      -0.064  11.211  19.806  0.00  0.00    +0.000 C 
ATOM      2  O   UNL     1      -0.650  11.508  20.854  0.00  0.00    +0.000 OA
ATOM      3  N   UNL     1       0.977  10.298  19.798  0.00  0.00    +0.000 N 
ATOM      4  C   UNL     1       1.239   9.452  20.972  0.00  0.00    +0.000 C 
ATOM      5  C   UNL     1       1.269   7.948  20.602  0.00  0.00    +0.000 C 
ATOM      6  N   UNL     1       2.074   7.662  19.396  0.00  0.00    +0.000 N 
ATOM      7  C   UNL     1       2.839   6.481  19.366  0.00  0.00    +0.000 C 
ATOM      8  O   UNL     1       2.916   5.745  20.348  0.00  0.00    +0.000 OA
ATOM      9  C   UNL     1       1.801   8.564  18.266  0.00  0.00    +0.000 C 
ATOM     10  C   UNL     1       1.877  10.031  18.684  0.00  0.00    +0.000 C 
ENDROOT
BRANCH   7  11
ATOM     11  C   UNL     1       3.599   6.092  18.133  0.00  0.00    +0.000 A 
ATOM     12  C   UNL     1       4.535   6.989  17.588  0.00  0.00    +0.000 A 
ATOM     13  C   UNL     1       5.382   6.607  16.544  0.00  0.00    +0.000 A 
ATOM     14  C   UNL     1       5.233   5.360  15.952  0.00  0.00    +0.000 A 
ATOM     15  C   UNL     1       4.218   4.509  16.387  0.00  0.00    +0.000 A 
ATOM     16  C   UNL     1       3.401   4.866  17.474  0.00  0.00    +0.000 A 
ATOM     17 BR   UNL     1       2.070   3.594  17.951  0.00  0.00    +0.000 Br
ENDBRANCH   7  11
BRANCH   1  18
ATOM     18  C   UNL     1      -0.551  11.813  18.464  0.00  0.00    +0.000 C 
BRANCH  18  22
ATOM     19  C   UNL     1      -3.707   9.933  17.515  0.00  0.00    +0.000 C 
ATOM     20  C   UNL     1      -2.239  10.244  17.589  0.00  0.00    +0.000 C 
ATOM     21  O   UNL     1      -1.396   9.590  16.983  0.00  0.00    +0.000 OA
ATOM     22  N   UNL     1      -1.941  11.374  18.315  0.00  0.00    +0.000 N 
ATOM     23  H   UNL     1      -2.614  11.718  18.991  0.00  0.00    +0.000 HD
ENDBRANCH  18  22
BRANCH  18  24
ATOM     24  C   UNL     1      -0.407  13.352  18.479  0.00  0.00    +0.000 C 
BRANCH  24  25
ATOM     25  C   UNL     1       0.876  13.960  19.046  0.00  0.00    +0.000 A 
ATOM     26  C   UNL     1       2.114  13.807  18.391  0.00  0.00    +0.000 A 
ATOM     27  C   UNL     1       3.252  14.514  18.791  0.00  0.00    +0.000 A 
ATOM     28  C   UNL     1       4.505  14.463  17.964  0.00  0.00    +0.000 C 
ATOM     29  C   UNL     1       3.196  15.307  19.931  0.00  0.00    +0.000 A 
ATOM     30  C   UNL     1       1.999  15.421  20.646  0.00  0.00    +0.000 A 
ATOM     31  C   UNL     1       0.833  14.765  20.208  0.00  0.00    +0.000 A 
ATOM     32  C   UNL     1      -0.440  14.991  20.979  0.00  0.00    +0.000 C 
ENDBRANCH  24  25
ENDBRANCH  18  24
ENDBRANCH   1  18
TORSDOF 5
ENDMDL
MODEL 2
REMARK VINA RESULT:      -7.4      3.842      8.363
REMARK  Name = 
REMARK  8 active torsions:
REMARK  status: ('A' for Active; 'I' for Inactive)
REMARK    1  A    between atoms: C_1  and  C_2
REMARK    2  A    between atoms: N_4  and  C_5
REMARK    3  A    between atoms: C_5  and  C_6
REMARK    4  A    between atoms: C_5  and  C_15
REMARK    5  A    between atoms: C_6  and  C_7
REMARK    6  A    between atoms: C_9  and  C_10
REMARK    7  A    between atoms: C_13  and  C_14
REMARK    8  A    between atoms: C_21  and  C_23
REMARK                            x       y       z     vdW  Elec       q    Type
REMARK                         _______ _______ _______ _____ _____    ______ ____
ROOT
ATOM      1  C   UNL     1       0.062  10.862  20.054  0.00  0.00    +0.000 C 
ATOM      2  O   UNL     1       0.406  10.180  21.028  0.00  0.00    +0.000 OA
ATOM      3  N   UNL     1      -0.029  12.241  20.138  0.00  0.00    +0.000 N 
ATOM      4  C   UNL     1       0.537  12.959  21.290  0.00  0.00    +0.000 C 
ATOM      5  C   UNL     1       1.521  14.071  20.847  0.00  0.00    +0.000 C 
ATOM      6  N   UNL     1       0.996  14.908  19.748  0.00  0.00    +0.000 N 
ATOM      7  C   UNL     1       1.283  16.285  19.757  0.00  0.00    +0.000 C 
ATOM      8  O   UNL     1       1.876  16.807  20.700  0.00  0.00    +0.000 OA
ATOM      9  C   UNL     1       0.404  14.139  18.640  0.00  0.00    +0.000 C 
ATOM     10  C   UNL     1      -0.622  13.125  19.143  0.00  0.00    +0.000 C 
ENDROOT
BRANCH   7  11
ATOM     11  C   UNL     1       0.858  17.165  18.619  0.00  0.00    +0.000 A 
ATOM     12  C   UNL     1       1.798  17.526  17.638  0.00  0.00    +0.000 A 
ATOM     13  C   UNL     1       1.411  18.202  16.478  0.00  0.00    +0.000 A 
ATOM     14  C   UNL     1       0.098  18.627  16.329  0.00  0.00    +0.000 A 
ATOM     15  C   UNL     1      -0.819  18.401  17.354  0.00  0.00    +0.000 A 
ATOM     16  C   UNL     1      -0.448  17.671  18.498  0.00  0.00    +0.000 A 
ATOM     17 BR   UNL     1      -1.814  17.440  19.801  0.00  0.00    +0.000 Br
ENDBRANCH   7  11
BRANCH   1  18
ATOM     18  C   UNL     1      -0.198  10.169  18.693  0.00  0.00    +0.000 C 
BRANCH  18  22
ATOM     19  C   UNL     1       2.696   7.812  18.007  0.00  0.00    +0.000 C 
ATOM     20  C   UNL     1       1.889   9.079  17.961  0.00  0.00    +0.000 C 
ATOM     21  O   UNL     1       2.224  10.050  17.288  0.00  0.00    +0.000 OA
ATOM     22  N   UNL     1       0.705   9.014  18.658  0.00  0.00    +0.000 N 
ATOM     23  H   UNL     1       0.598   8.317  19.386  0.00  0.00    +0.000 HD
ENDBRANCH  18  22
BRANCH  18  24
ATOM     24  C   UNL     1      -1.685   9.770  18.565  0.00  0.00    +0.000 C 
BRANCH  24  25
ATOM     25  C   UNL     1      -2.495  10.332  17.396  0.00  0.00    +0.000 A 
ATOM     26  C   UNL     1      -2.242   9.932  16.068  0.00  0.00    +0.000 A 
ATOM     27  C   UNL     1      -3.094  10.287  15.017  0.00  0.00    +0.000 A 
ATOM     28  C   UNL     1      -2.895   9.699  13.650  0.00  0.00    +0.000 C 
ATOM     29  C   UNL     1      -4.158  11.147  15.263  0.00  0.00    +0.000 A 
ATOM     30  C   UNL     1      -4.391  11.620  16.558  0.00  0.00    +0.000 A 
ATOM     31  C   UNL     1      -3.577  11.211  17.632  0.00  0.00    +0.000 A 
ATOM     32  C   UNL     1      -3.928  11.696  19.013  0.00  0.00    +0.000 C 
ENDBRANCH  24  25
ENDBRANCH  18  24
ENDBRANCH   1  18
TORSDOF 5
ENDMDL
MODEL 3
REMARK VINA RESULT:      -7.3      3.889      8.669
REMARK  Name = 
REMARK  8 active torsions:
REMARK  status: ('A' for Active; 'I' for Inactive)
REMARK    1  A    between atoms: C_1  and  C_2
REMARK    2  A    between atoms: N_4  and  C_5
REMARK    3  A    between atoms: C_5  and  C_6
REMARK    4  A    between atoms: C_5  and  C_15
REMARK    5  A    between atoms: C_6  and  C_7
REMARK    6  A    between atoms: C_9  and  C_10
REMARK    7  A    between atoms: C_13  and  C_14
REMARK    8  A    between atoms: C_21  and  C_23
REMARK                            x       y       z     vdW  Elec       q    Type
REMARK                         _______ _______ _______ _____ _____    ______ ____
ROOT
ATOM      1  C   UNL     1       1.096  11.503  19.110  0.00  0.00    +0.000 C 
ATOM      2  O   UNL     1       1.973  12.100  18.473  0.00  0.00    +0.000 OA
ATOM      3  N   UNL     1       0.387  12.131  20.120  0.00  0.00    +0.000 N 
ATOM      4  C   UNL     1       0.458  13.590  20.287  0.00  0.00    +0.000 C 
ATOM      5  C   UNL     1      -0.950  14.238  20.291  0.00  0.00    +0.000 C 
ATOM      6  N   UNL     1      -1.915  13.525  21.155  0.00  0.00    +0.000 N 
ATOM      7  C   UNL     1      -2.850  14.284  21.883  0.00  0.00    +0.000 C 
ATOM      8  O   UNL     1      -2.814  15.513  21.880  0.00  0.00    +0.000 OA
ATOM      9  C   UNL     1      -1.915  12.064  20.975  0.00  0.00    +0.000 C 
ATOM     10  C   UNL     1      -0.505  11.484  21.074  0.00  0.00    +0.000 C 
ENDROOT
BRANCH   7  11
ATOM     11  C   UNL     1      -3.913  13.612  22.700  0.00  0.00    +0.000 A 
ATOM     12  C   UNL     1      -3.568  13.018  23.927  0.00  0.00    +0.000 A 
ATOM     13  C   UNL     1      -4.546  12.529  24.796  0.00  0.00    +0.000 A 
ATOM     14  C   UNL     1      -5.879  12.523  24.406  0.00  0.00    +0.000 A 
ATOM     15  C   UNL     1      -6.225  12.979  23.136  0.00  0.00    +0.000 A 
ATOM     16  C   UNL     1      -5.252  13.525  22.280  0.00  0.00    +0.000 A 
ATOM     17 BR   UNL     1      -5.886  14.112  20.586  0.00  0.00    +0.000 Br
ENDBRANCH   7  11
BRANCH   1  18
ATOM     18  C   UNL     1       0.727  10.049  18.720  0.00  0.00    +0.000 C 
BRANCH  18  22
ATOM     19  C   UNL     1      -2.215  10.135  16.324  0.00  0.00    +0.000 C 
ATOM     20  C   UNL     1      -1.485  10.007  17.632  0.00  0.00    +0.000 C 
ATOM     21  O   UNL     1      -2.053   9.706  18.677  0.00  0.00    +0.000 OA
ATOM     22  N   UNL     1      -0.122  10.162  17.530  0.00  0.00    +0.000 N 
ATOM     23  H   UNL     1       0.261  10.652  16.728  0.00  0.00    +0.000 HD
ENDBRANCH  18  22
BRANCH  18  24
ATOM     24  C   UNL     1       2.005   9.217  18.467  0.00  0.00    +0.000 C 
BRANCH  24  25
ATOM     25  C   UNL     1       2.017   7.749  18.891  0.00  0.00    +0.000 A 
ATOM     26  C   UNL     1       2.370   6.725  17.989  0.00  0.00    +0.000 A 
ATOM     27  C   UNL     1       2.571   5.407  18.411  0.00  0.00    +0.000 A 
ATOM     28  C   UNL     1       3.118   4.382  17.460  0.00  0.00    +0.000 C 
ATOM     29  C   UNL     1       2.311   5.069  19.734  0.00  0.00    +0.000 A 
ATOM     30  C   UNL     1       1.887   6.048  20.637  0.00  0.00    +0.000 A 
ATOM     31  C   UNL     1       1.749   7.390  20.233  0.00  0.00    +0.000 A 
ATOM     32  C   UNL     1       1.364   8.408  21.272  0.00  0.00    +0.000 C 
ENDBRANCH  24  25
ENDBRANCH  18  24
ENDBRANCH   1  18
TORSDOF 5
ENDMDL
MODEL 4
REMARK VINA RESULT:      -7.2      1.688      4.561
REMARK  Name = 
REMARK  8 active torsions:
REMARK  status: ('A' for Active; 'I' for Inactive)
REMARK    1  A    between atoms: C_1  and  C_2
REMARK    2  A    between atoms: N_4  and  C_5
REMARK    3  A    between atoms: C_5  and  C_6
REMARK    4  A    between atoms: C_5  and  C_15
REMARK    5  A    between atoms: C_6  and  C_7
REMARK    6  A    between atoms: C_9  and  C_10
REMARK    7  A    between atoms: C_13  and  C_14
REMARK    8  A    between atoms: C_21  and  C_23
REMARK                            x       y       z     vdW  Elec       q    Type
REMARK                         _______ _______ _______ _____ _____    ______ ____
ROOT
ATOM      1  C   UNL     1       0.025  10.456  20.320  0.00  0.00    +0.000 C 
ATOM      2  O   UNL     1      -0.601  10.576  21.381  0.00  0.00    +0.000 OA
ATOM      3  N   UNL     1       1.088   9.575  20.208  0.00  0.00    +0.000 N 
ATOM      4  C   UNL     1       1.334   8.564  21.247  0.00  0.00    +0.000 C 
ATOM      5  C   UNL     1       1.412   7.135  20.651  0.00  0.00    +0.000 C 
ATOM      6  N   UNL     1       2.261   7.055  19.444  0.00  0.00    +0.000 N 
ATOM      7  C   UNL     1       3.055   5.908  19.259  0.00  0.00    +0.000 C 
ATOM      8  O   UNL     1       3.120   5.031  20.119  0.00  0.00    +0.000 OA
ATOM      9  C   UNL     1       2.000   8.115  18.456  0.00  0.00    +0.000 C 
ATOM     10  C   UNL     1       2.028   9.502  19.097  0.00  0.00    +0.000 C 
ENDROOT
BRANCH   7  11
ATOM     11  C   UNL     1       3.862   5.729  18.008  0.00  0.00    +0.000 A 
ATOM     12  C   UNL     1       4.725   6.758  17.590  0.00  0.00    +0.000 A 
ATOM     13  C   UNL     1       5.615   6.571  16.529  0.00  0.00    +0.000 A 
ATOM     14  C   UNL     1       5.582   5.392  15.796  0.00  0.00    +0.000 A 
ATOM     15  C   UNL     1       4.639   4.416  16.107  0.00  0.00    +0.000 A 
ATOM     16  C   UNL     1       3.779   4.575  17.209  0.00  0.00    +0.000 A 
ATOM     17 BR   UNL     1       2.556   3.150  17.507  0.00  0.00    +0.000 Br
ENDBRANCH   7  11
BRANCH   1  18
ATOM     18  C   UNL     1      -0.435  11.248  19.070  0.00  0.00    +0.000 C 
BRANCH  18  22
ATOM     19  C   UNL     1       2.522  13.339  17.937  0.00  0.00    +0.000 C 
ATOM     20  C   UNL     1       1.262  12.993  18.679  0.00  0.00    +0.000 C 
ATOM     21  O   UNL     1       0.664  13.807  19.378  0.00  0.00    +0.000 OA
ATOM     22  N   UNL     1       0.794  11.724  18.429  0.00  0.00    +0.000 N 
ATOM     23  H   UNL     1       1.434  11.024  18.069  0.00  0.00    +0.000 HD
ENDBRANCH  18  22
BRANCH  18  24
ATOM     24  C   UNL     1      -1.284  10.349  18.144  0.00  0.00    +0.000 C 
BRANCH  24  25
ATOM     25  C   UNL     1      -2.724  10.765  17.841  0.00  0.00    +0.000 A 
ATOM     26  C   UNL     1      -3.503  11.458  18.787  0.00  0.00    +0.000 A 
ATOM     27  C   UNL     1      -4.745  12.012  18.458  0.00  0.00    +0.000 A 
ATOM     28  C   UNL     1      -5.465  12.894  19.436  0.00  0.00    +0.000 C 
ATOM     29  C   UNL     1      -5.280  11.781  17.196  0.00  0.00    +0.000 A 
ATOM     30  C   UNL     1      -4.562  11.032  16.257  0.00  0.00    +0.000 A 
ATOM     31  C   UNL     1      -3.282  10.531  16.562  0.00  0.00    +0.000 A 
ATOM     32  C   UNL     1      -2.531   9.800  15.482  0.00  0.00    +0.000 C 
ENDBRANCH  24  25
ENDBRANCH  18  24
ENDBRANCH   1  18
TORSDOF 5
ENDMDL
MODEL 5
REMARK VINA RESULT:      -7.1      1.332      2.449
REMARK  Name = 
REMARK  8 active torsions:
REMARK  status: ('A' for Active; 'I' for Inactive)
REMARK    1  A    between atoms: C_1  and  C_2
REMARK    2  A    between atoms: N_4  and  C_5
REMARK    3  A    between atoms: C_5  and  C_6
REMARK    4  A    between atoms: C_5  and  C_15
REMARK    5  A    between atoms: C_6  and  C_7
REMARK    6  A    between atoms: C_9  and  C_10
REMARK    7  A    between atoms: C_13  and  C_14
REMARK    8  A    between atoms: C_21  and  C_23
REMARK                            x       y       z     vdW  Elec       q    Type
REMARK                         _______ _______ _______ _____ _____    ______ ____
ROOT
ATOM      1  C   UNL     1      -0.009  10.090  19.870  0.00  0.00    +0.000 C 
ATOM      2  O   UNL     1      -0.642  10.242  20.923  0.00  0.00    +0.000 OA
ATOM      3  N   UNL     1       1.131   9.305  19.823  0.00  0.00    +0.000 N 
ATOM      4  C   UNL     1       1.471   8.413  20.942  0.00  0.00    +0.000 C 
ATOM      5  C   UNL     1       1.680   6.952  20.470  0.00  0.00    +0.000 C 
ATOM      6  N   UNL     1       2.532   6.847  19.266  0.00  0.00    +0.000 N 
ATOM      7  C   UNL     1       3.429   5.767  19.172  0.00  0.00    +0.000 C 
ATOM      8  O   UNL     1       3.575   4.976  20.103  0.00  0.00    +0.000 OA
ATOM      9  C   UNL     1       2.173   7.790  18.194  0.00  0.00    +0.000 C 
ATOM     10  C   UNL     1       2.073   9.223  18.715  0.00  0.00    +0.000 C 
ENDROOT
BRANCH   7  11
ATOM     11  C   UNL     1       4.247   5.556  17.933  0.00  0.00    +0.000 A 
ATOM     12  C   UNL     1       5.239   6.494  17.594  0.00  0.00    +0.000 A 
ATOM     13  C   UNL     1       6.133   6.256  16.547  0.00  0.00    +0.000 A 
ATOM     14  C   UNL     1       5.983   5.129  15.750  0.00  0.00    +0.000 A 
ATOM     15  C   UNL     1       4.921   4.259  15.983  0.00  0.00    +0.000 A 
ATOM     16  C   UNL     1       4.052   4.464  17.071  0.00  0.00    +0.000 A 
ATOM     17 BR   UNL     1       2.659   3.182  17.260  0.00  0.00    +0.000 Br
ENDBRANCH   7  11
BRANCH   1  18
ATOM     18  C   UNL     1      -0.542  10.727  18.562  0.00  0.00    +0.000 C 
BRANCH  18  22
ATOM     19  C   UNL     1      -4.187  10.197  17.649  0.00  0.00    +0.000 C 
ATOM     20  C   UNL     1      -2.704  10.334  17.445  0.00  0.00    +0.000 C 
ATOM     21  O   UNL     1      -2.189  10.330  16.331  0.00  0.00    +0.000 OA
ATOM     22  N   UNL     1      -1.997  10.557  18.604  0.00  0.00    +0.000 N 
ATOM     23  H   UNL     1      -2.411  10.299  19.493  0.00  0.00    +0.000 HD
ENDBRANCH  18  22
BRANCH  18  24
ATOM     24  C   UNL     1      -0.114  12.209  18.469  0.00  0.00    +0.000 C 
BRANCH  24  25
ATOM     25  C   UNL     1      -0.324  13.107  19.689  0.00  0.00    +0.000 A 
ATOM     26  C   UNL     1      -1.615  13.491  20.105  0.00  0.00    +0.000 A 
ATOM     27  C   UNL     1      -1.833  14.147  21.321  0.00  0.00    +0.000 A 
ATOM     28  C   UNL     1      -3.231  14.382  21.815  0.00  0.00    +0.000 C 
ATOM     29  C   UNL     1      -0.742  14.531  22.092  0.00  0.00    +0.000 A 
ATOM     30  C   UNL     1       0.556  14.230  21.669  0.00  0.00    +0.000 A 
ATOM     31  C   UNL     1       0.777  13.509  20.480  0.00  0.00    +0.000 A 
ATOM     32  C   UNL     1       2.194  13.151  20.121  0.00  0.00    +0.000 C 
ENDBRANCH  24  25
ENDBRANCH  18  24
ENDBRANCH   1  18
TORSDOF 5
ENDMDL
MODEL 6
REMARK VINA RESULT:      -7.1      1.707      4.363
REMARK  Name = 
REMARK  8 active torsions:
REMARK  status: ('A' for Active; 'I' for Inactive)
REMARK    1  A    between atoms: C_1  and  C_2
REMARK    2  A    between atoms: N_4  and  C_5
REMARK    3  A    between atoms: C_5  and  C_6
REMARK    4  A    between atoms: C_5  and  C_15
REMARK    5  A    between atoms: C_6  and  C_7
REMARK    6  A    between atoms: C_9  and  C_10
REMARK    7  A    between atoms: C_13  and  C_14
REMARK    8  A    between atoms: C_21  and  C_23
REMARK                            x       y       z     vdW  Elec       q    Type
REMARK                         _______ _______ _______ _____ _____    ______ ____
ROOT
ATOM      1  C   UNL     1      -0.006  10.283  20.381  0.00  0.00    +0.000 C 
ATOM      2  O   UNL     1      -0.574  10.419  21.472  0.00  0.00    +0.000 OA
ATOM      3  N   UNL     1       1.089   9.446  20.240  0.00  0.00    +0.000 N 
ATOM      4  C   UNL     1       1.442   8.492  21.301  0.00  0.00    +0.000 C 
ATOM      5  C   UNL     1       1.552   7.044  20.759  0.00  0.00    +0.000 C 
ATOM      6  N   UNL     1       2.332   6.950  19.507  0.00  0.00    +0.000 N 
ATOM      7  C   UNL     1       3.167   5.833  19.320  0.00  0.00    +0.000 C 
ATOM      8  O   UNL     1       3.323   4.997  20.208  0.00  0.00    +0.000 OA
ATOM      9  C   UNL     1       1.964   7.955  18.496  0.00  0.00    +0.000 C 
ATOM     10  C   UNL     1       1.965   9.367  19.078  0.00  0.00    +0.000 C 
ENDROOT
BRANCH   7  11
ATOM     11  C   UNL     1       3.906   5.637  18.030  0.00  0.00    +0.000 A 
ATOM     12  C   UNL     1       4.760   6.652  17.563  0.00  0.00    +0.000 A 
ATOM     13  C   UNL     1       5.592   6.448  16.460  0.00  0.00    +0.000 A 
ATOM     14  C   UNL     1       5.507   5.266  15.736  0.00  0.00    +0.000 A 
ATOM     15  C   UNL     1       4.567   4.303  16.100  0.00  0.00    +0.000 A 
ATOM     16  C   UNL     1       3.767   4.480  17.243  0.00  0.00    +0.000 A 
ATOM     17 BR   UNL     1       2.542   3.072  17.612  0.00  0.00    +0.000 Br
ENDBRANCH   7  11
BRANCH   1  18
ATOM     18  C   UNL     1      -0.575  11.000  19.131  0.00  0.00    +0.000 C 
BRANCH  18  22
ATOM     19  C   UNL     1       2.144  13.406  18.028  0.00  0.00    +0.000 C 
ATOM     20  C   UNL     1       0.956  12.903  18.799  0.00  0.00    +0.000 C 
ATOM     21  O   UNL     1       0.333  13.611  19.585  0.00  0.00    +0.000 OA
ATOM     22  N   UNL     1       0.577  11.622  18.472  0.00  0.00    +0.000 N 
ATOM     23  H   UNL     1       1.251  11.005  18.030  0.00  0.00    +0.000 HD
ENDBRANCH  18  22
BRANCH  18  24
ATOM     24  C   UNL     1      -1.313   9.992  18.220  0.00  0.00    +0.000 C 
BRANCH  24  25
ATOM     25  C   UNL     1      -2.382  10.520  17.263  0.00  0.00    +0.000 A 
ATOM     26  C   UNL     1      -2.397  10.153  15.903  0.00  0.00    +0.000 A 
ATOM     27  C   UNL     1      -3.471  10.470  15.065  0.00  0.00    +0.000 A 
ATOM     28  C   UNL     1      -3.535   9.913  13.672  0.00  0.00    +0.000 C 
ATOM     29  C   UNL     1      -4.504  11.262  15.552  0.00  0.00    +0.000 A 
ATOM     30  C   UNL     1      -4.482  11.704  16.879  0.00  0.00    +0.000 A 
ATOM     31  C   UNL     1      -3.437  11.331  17.746  0.00  0.00    +0.000 A 
ATOM     32  C   UNL     1      -3.512  11.776  19.181  0.00  0.00    +0.000 C 
ENDBRANCH  24  25
ENDBRANCH  18  24
ENDBRANCH   1  18
TORSDOF 5
ENDMDL
MODEL 7
REMARK VINA RESULT:      -7.0      3.978      8.781
REMARK  Name = 
REMARK  8 active torsions:
REMARK  status: ('A' for Active; 'I' for Inactive)
REMARK    1  A    between atoms: C_1  and  C_2
REMARK    2  A    between atoms: N_4  and  C_5
REMARK    3  A    between atoms: C_5  and  C_6
REMARK    4  A    between atoms: C_5  and  C_15
REMARK    5  A    between atoms: C_6  and  C_7
REMARK    6  A    between atoms: C_9  and  C_10
REMARK    7  A    between atoms: C_13  and  C_14
REMARK    8  A    between atoms: C_21  and  C_23
REMARK                            x       y       z     vdW  Elec       q    Type
REMARK                         _______ _______ _______ _____ _____    ______ ____
ROOT
ATOM      1  C   UNL     1       0.801  11.860  19.260  0.00  0.00    +0.000 C 
ATOM      2  O   UNL     1       1.777  12.445  18.775  0.00  0.00    +0.000 OA
ATOM      3  N   UNL     1      -0.058  12.499  20.139  0.00  0.00    +0.000 N 
ATOM      4  C   UNL     1      -0.000  13.958  20.311  0.00  0.00    +0.000 C 
ATOM      5  C   UNL     1      -1.383  14.619  20.081  0.00  0.00    +0.000 C 
ATOM      6  N   UNL     1      -2.484  13.920  20.777  0.00  0.00    +0.000 N 
ATOM      7  C   UNL     1      -3.518  14.691  21.339  0.00  0.00    +0.000 C 
ATOM      8  O   UNL     1      -3.470  15.920  21.339  0.00  0.00    +0.000 OA
ATOM      9  C   UNL     1      -2.469  12.458  20.604  0.00  0.00    +0.000 C 
ATOM     10  C   UNL     1      -1.101  11.865  20.935  0.00  0.00    +0.000 C 
ENDROOT
BRANCH   7  11
ATOM     11  C   UNL     1      -4.707  14.033  21.972  0.00  0.00    +0.000 A 
ATOM     12  C   UNL     1      -5.843  13.759  21.190  0.00  0.00    +0.000 A 
ATOM     13  C   UNL     1      -6.904  13.002  21.692  0.00  0.00    +0.000 A 
ATOM     14  C   UNL     1      -6.900  12.598  23.020  0.00  0.00    +0.000 A 
ATOM     15  C   UNL     1      -5.847  12.979  23.851  0.00  0.00    +0.000 A 
ATOM     16  C   UNL     1      -4.750  13.692  23.335  0.00  0.00    +0.000 A 
ATOM     17 BR   UNL     1      -3.392  14.127  24.594  0.00  0.00    +0.000 Br
ENDBRANCH   7  11
BRANCH   1  18
ATOM     18  C   UNL     1       0.487  10.408  18.819  0.00  0.00    +0.000 C 
BRANCH  18  22
ATOM     19  C   UNL     1      -2.365  10.306  16.318  0.00  0.00    +0.000 C 
ATOM     20  C   UNL     1      -1.656  10.132  17.631  0.00  0.00    +0.000 C 
ATOM     21  O   UNL     1      -2.188   9.602  18.602  0.00  0.00    +0.000 OA
ATOM     22  N   UNL     1      -0.339  10.531  17.614  0.00  0.00    +0.000 N 
ATOM     23  H   UNL     1      -0.030  11.181  16.900  0.00  0.00    +0.000 HD
ENDBRANCH  18  22
BRANCH  18  24
ATOM     24  C   UNL     1       1.795   9.624  18.570  0.00  0.00    +0.000 C 
BRANCH  24  25
ATOM     25  C   UNL     1       1.867   8.162  19.012  0.00  0.00    +0.000 A 
ATOM     26  C   UNL     1       2.271   7.145  18.125  0.00  0.00    +0.000 A 
ATOM     27  C   UNL     1       2.525   5.841  18.564  0.00  0.00    +0.000 A 
ATOM     28  C   UNL     1       3.124   4.830  17.630  0.00  0.00    +0.000 C 
ATOM     29  C   UNL     1       2.268   5.507  19.889  0.00  0.00    +0.000 A 
ATOM     30  C   UNL     1       1.795   6.478  20.777  0.00  0.00    +0.000 A 
ATOM     31  C   UNL     1       1.603   7.808  20.356  0.00  0.00    +0.000 A 
ATOM     32  C   UNL     1       1.165   8.820  21.379  0.00  0.00    +0.000 C 
ENDBRANCH  24  25
ENDBRANCH  18  24
ENDBRANCH   1  18
TORSDOF 5
ENDMDL
MODEL 8
REMARK VINA RESULT:      -7.0      4.542      7.825
REMARK  Name = 
REMARK  8 active torsions:
REMARK  status: ('A' for Active; 'I' for Inactive)
REMARK    1  A    between atoms: C_1  and  C_2
REMARK    2  A    between atoms: N_4  and  C_5
REMARK    3  A    between atoms: C_5  and  C_6
REMARK    4  A    between atoms: C_5  and  C_15
REMARK    5  A    between atoms: C_6  and  C_7
REMARK    6  A    between atoms: C_9  and  C_10
REMARK    7  A    between atoms: C_13  and  C_14
REMARK    8  A    between atoms: C_21  and  C_23
REMARK                            x       y       z     vdW  Elec       q    Type
REMARK                         _______ _______ _______ _____ _____    ______ ____
ROOT
ATOM      1  C   UNL     1      -0.956  13.736  20.497  0.00  0.00    +0.000 C 
ATOM      2  O   UNL     1      -2.111  14.125  20.282  0.00  0.00    +0.000 OA
ATOM      3  N   UNL     1       0.090  14.090  19.660  0.00  0.00    +0.000 N 
ATOM      4  C   UNL     1      -0.083  15.150  18.656  0.00  0.00    +0.000 C 
ATOM      5  C   UNL     1       0.999  16.252  18.791  0.00  0.00    +0.000 C 
ATOM      6  N   UNL     1       2.366  15.708  18.942  0.00  0.00    +0.000 N 
ATOM      7  C   UNL     1       3.429  16.384  18.316  0.00  0.00    +0.000 C 
ATOM      8  O   UNL     1       3.226  17.350  17.582  0.00  0.00    +0.000 OA
ATOM      9  C   UNL     1       2.472  14.622  19.930  0.00  0.00    +0.000 C 
ATOM     10  C   UNL     1       1.434  13.529  19.681  0.00  0.00    +0.000 C 
ENDROOT
BRANCH   7  11
ATOM     11  C   UNL     1       4.845  15.933  18.513  0.00  0.00    +0.000 A 
ATOM     12  C   UNL     1       5.334  14.846  17.768  0.00  0.00    +0.000 A 
ATOM     13  C   UNL     1       6.687  14.498  17.796  0.00  0.00    +0.000 A 
ATOM     14  C   UNL     1       7.555  15.159  18.654  0.00  0.00    +0.000 A 
ATOM     15  C   UNL     1       7.062  16.148  19.503  0.00  0.00    +0.000 A 
ATOM     16  C   UNL     1       5.713  16.540  19.438  0.00  0.00    +0.000 A 
ATOM     17 BR   UNL     1       5.198  17.908  20.655  0.00  0.00    +0.000 Br
ENDBRANCH   7  11
BRANCH   1  18
ATOM     18  C   UNL     1      -0.657  12.902  21.768  0.00  0.00    +0.000 C 
BRANCH  18  22
ATOM     19  C   UNL     1      -1.314  15.413  24.536  0.00  0.00    +0.000 C 
ATOM     20  C   UNL     1      -0.598  14.759  23.388  0.00  0.00    +0.000 C 
ATOM     21  O   UNL     1       0.505  15.134  23.000  0.00  0.00    +0.000 OA
ATOM     22  N   UNL     1      -1.242  13.654  22.882  0.00  0.00    +0.000 N 
ATOM     23  H   UNL     1      -2.236  13.543  23.049  0.00  0.00    +0.000 HD
ENDBRANCH  18  22
BRANCH  18  24
ATOM     24  C   UNL     1      -1.246  11.480  21.631  0.00  0.00    +0.000 C 
BRANCH  24  25
ATOM     25  C   UNL     1      -0.340  10.360  21.120  0.00  0.00    +0.000 A 
ATOM     26  C   UNL     1       0.012  10.263  19.759  0.00  0.00    +0.000 A 
ATOM     27  C   UNL     1       0.987   9.366  19.311  0.00  0.00    +0.000 A 
ATOM     28  C   UNL     1       1.464   9.413  17.888  0.00  0.00    +0.000 C 
ATOM     29  C   UNL     1       1.549   8.467  20.210  0.00  0.00    +0.000 A 
ATOM     30  C   UNL     1       1.165   8.488  21.555  0.00  0.00    +0.000 A 
ATOM     31  C   UNL     1       0.234   9.435  22.023  0.00  0.00    +0.000 A 
ATOM     32  C   UNL     1      -0.078   9.455  23.495  0.00  0.00    +0.000 C 
ENDBRANCH  24  25
ENDBRANCH  18  24
ENDBRANCH   1  18
TORSDOF 5
ENDMDL
MODEL 9
REMARK VINA RESULT:      -7.0      3.610      8.707
REMARK  Name = 
REMARK  8 active torsions:
REMARK  status: ('A' for Active; 'I' for Inactive)
REMARK    1  A    between atoms: C_1  and  C_2
REMARK    2  A    between atoms: N_4  and  C_5
REMARK    3  A    between atoms: C_5  and  C_6
REMARK    4  A    between atoms: C_5  and  C_15
REMARK    5  A    between atoms: C_6  and  C_7
REMARK    6  A    between atoms: C_9  and  C_10
REMARK    7  A    between atoms: C_13  and  C_14
REMARK    8  A    between atoms: C_21  and  C_23
REMARK                            x       y       z     vdW  Elec       q    Type
REMARK                         _______ _______ _______ _____ _____    ______ ____
ROOT
ATOM      1  C   UNL     1       1.497  11.561  18.764  0.00  0.00    +0.000 C 
ATOM      2  O   UNL     1       2.390  11.973  18.013  0.00  0.00    +0.000 OA
ATOM      3  N   UNL     1       0.871  12.403  19.667  0.00  0.00    +0.000 N 
ATOM      4  C   UNL     1       1.050  13.860  19.578  0.00  0.00    +0.000 C 
ATOM      5  C   UNL     1      -0.309  14.603  19.503  0.00  0.00    +0.000 C 
ATOM      6  N   UNL     1      -1.289  14.123  20.500  0.00  0.00    +0.000 N 
ATOM      7  C   UNL     1      -2.141  15.062  21.108  0.00  0.00    +0.000 C 
ATOM      8  O   UNL     1      -2.020  16.267  20.892  0.00  0.00    +0.000 OA
ATOM      9  C   UNL     1      -1.397  12.656  20.575  0.00  0.00    +0.000 C 
ATOM     10  C   UNL     1      -0.028  11.998  20.739  0.00  0.00    +0.000 C 
ENDROOT
BRANCH   7  11
ATOM     11  C   UNL     1      -3.218  14.621  22.054  0.00  0.00    +0.000 A 
ATOM     12  C   UNL     1      -4.511  14.371  21.561  0.00  0.00    +0.000 A 
ATOM     13  C   UNL     1      -5.497  13.802  22.369  0.00  0.00    +0.000 A 
ATOM     14  C   UNL     1      -5.245  13.574  23.715  0.00  0.00    +0.000 A 
ATOM     15  C   UNL     1      -4.014  13.944  24.256  0.00  0.00    +0.000 A 
ATOM     16  C   UNL     1      -2.999  14.465  23.434  0.00  0.00    +0.000 A 
ATOM     17 BR   UNL     1      -1.376  14.911  24.320  0.00  0.00    +0.000 Br
ENDBRANCH   7  11
BRANCH   1  18
ATOM     18  C   UNL     1       1.013  10.094  18.639  0.00  0.00    +0.000 C 
BRANCH  18  22
ATOM     19  C   UNL     1      -2.159   9.958  16.562  0.00  0.00    +0.000 C 
ATOM     20  C   UNL     1      -1.299   9.963  17.794  0.00  0.00    +0.000 C 
ATOM     21  O   UNL     1      -1.757   9.785  18.919  0.00  0.00    +0.000 OA
ATOM     22  N   UNL     1       0.047  10.088  17.537  0.00  0.00    +0.000 N 
ATOM     23  H   UNL     1       0.346  10.482  16.652  0.00  0.00    +0.000 HD
ENDBRANCH  18  22
BRANCH  18  24
ATOM     24  C   UNL     1       2.212   9.150  18.389  0.00  0.00    +0.000 C 
BRANCH  24  25
ATOM     25  C   UNL     1       2.108   7.698  18.857  0.00  0.00    +0.000 A 
ATOM     26  C   UNL     1       2.450   6.626  18.009  0.00  0.00    +0.000 A 
ATOM     27  C   UNL     1       2.544   5.313  18.481  0.00  0.00    +0.000 A 
ATOM     28  C   UNL     1       3.082   4.227  17.595  0.00  0.00    +0.000 C 
ATOM     29  C   UNL     1       2.187   5.035  19.795  0.00  0.00    +0.000 A 
ATOM     30  C   UNL     1       1.772   6.067  20.641  0.00  0.00    +0.000 A 
ATOM     31  C   UNL     1       1.740   7.401  20.190  0.00  0.00    +0.000 A 
ATOM     32  C   UNL     1       1.359   8.474  21.174  0.00  0.00    +0.000 C 
ENDBRANCH  24  25
ENDBRANCH  18  24
ENDBRANCH   1  18
TORSDOF 5
ENDMDL
