MODEL 1
REMARK VINA RESULT:      -8.0      0.000      0.000
REMARK  Name = 
REMARK  7 active torsions:
REMARK  status: ('A' for Active; 'I' for Inactive)
REMARK    1  A    between atoms: C_1  and  C_2
REMARK    2  A    between atoms: C_7  and  S_8
REMARK    3  A    between atoms: S_8  and  N_11
REMARK    4  A    between atoms: N_11  and  C_12
REMARK    5  A    between atoms: N_15  and  C_16
REMARK    6  A    between atoms: C_16  and  C_17
REMARK    7  A    between atoms: C_16  and  C_18
REMARK                            x       y       z     vdW  Elec       q    Type
REMARK                         _______ _______ _______ _____ _____    ______ ____
ROOT
ATOM      1  N   UNL     1      -1.176  10.351  19.854  0.00  0.00    +0.000 NA
ATOM      2  H   UNL     1      -1.672  10.205  20.733  0.00  0.00    +0.000 HD
ENDROOT
BRANCH   1   3
ATOM      3  C   UNL     1      -1.850  11.334  18.955  0.00  0.00    +0.000 C 
ATOM      4  C   UNL     1      -2.777  10.583  17.991  0.00  0.00    +0.000 C 
ATOM      5  C   UNL     1      -4.006  11.460  17.892  0.00  0.00    +0.000 C 
ATOM      6  N   UNL     1      -4.116  12.018  19.217  0.00  0.00    +0.000 N 
ATOM      7  C   UNL     1      -2.797  12.360  19.586  0.00  0.00    +0.000 C 
ATOM      8  O   UNL     1      -2.465  13.342  20.228  0.00  0.00    +0.000 OA
BRANCH   6   9
ATOM      9  C   UNL     1      -5.295  12.849  19.613  0.00  0.00    +0.000 C 
ATOM     10  C   UNL     1      -6.165  13.073  18.374  0.00  0.00    +0.000 C 
BRANCH   9  11
ATOM     11  C   UNL     1      -6.163  12.247  20.819  0.00  0.00    +0.000 C 
ATOM     12  O   UNL     1      -6.523  11.070  20.853  0.00  0.00    +0.000 OA
ATOM     13  N   UNL     1      -6.436  13.094  21.900  0.00  0.00    +0.000 N 
ATOM     14  C   UNL     1      -7.175  12.604  23.074  0.00  0.00    +0.000 C 
ATOM     15  C   UNL     1      -7.888  13.781  23.747  0.00  0.00    +0.000 C 
ATOM     16  O   UNL     1      -6.922  14.758  24.173  0.00  0.00    +0.000 OA
ATOM     17  C   UNL     1      -6.141  15.237  23.065  0.00  0.00    +0.000 C 
ATOM     18  C   UNL     1      -5.470  14.105  22.289  0.00  0.00    +0.000 C 
ENDBRANCH   9  11
ENDBRANCH   6   9
ENDBRANCH   1   3
BRANCH   1  19
ATOM     19  S   UNL     1       0.467  10.683  20.165  0.00  0.00    +0.000 S 
ATOM     20  O   UNL     1       0.640  10.647  21.572  0.00  0.00    +0.000 OA
ATOM     21  O   UNL     1       0.838  11.846  19.343  0.00  0.00    +0.000 OA
BRANCH  19  28
ATOM     22  C   UNL     1       4.355   3.698  18.103  0.00  0.00    +0.000 C 
ATOM     23  C   UNL     1       3.581   4.853  18.666  0.00  0.00    +0.000 A 
ATOM     24  C   UNL     1       3.040   4.800  19.953  0.00  0.00    +0.000 A 
ATOM     25  C   UNL     1       2.324   5.886  20.460  0.00  0.00    +0.000 A 
ATOM     26  C   UNL     1       2.144   7.045  19.693  0.00  0.00    +0.000 A 
ATOM     27  C   UNL     1       1.445   8.143  20.200  0.00  0.00    +0.000 A 
ATOM     28  C   UNL     1       1.318   9.309  19.441  0.00  0.00    +0.000 A 
ATOM     29  C   UNL     1       1.841   9.387  18.150  0.00  0.00    +0.000 A 
ATOM     30  C   UNL     1       2.526   8.285  17.632  0.00  0.00    +0.000 A 
ATOM     31  C   UNL     1       2.691   7.114  18.392  0.00  0.00    +0.000 A 
ATOM     32  C   UNL     1       3.399   6.009  17.893  0.00  0.00    +0.000 A 
ENDBRANCH  19  28
ENDBRANCH   1  19
TORSDOF 5
ENDMDL
MODEL 2
REMARK VINA RESULT:      -7.9      1.047      1.686
REMARK  Name = 
REMARK  7 active torsions:
REMARK  status: ('A' for Active; 'I' for Inactive)
REMARK    1  A    between atoms: C_1  and  C_2
REMARK    2  A    between atoms: C_7  and  S_8
REMARK    3  A    between atoms: S_8  and  N_11
REMARK    4  A    between atoms: N_11  and  C_12
REMARK    5  A    between atoms: N_15  and  C_16
REMARK    6  A    between atoms: C_16  and  C_17
REMARK    7  A    between atoms: C_16  and  C_18
REMARK                            x       y       z     vdW  Elec       q    Type
REMARK                         _______ _______ _______ _____ _____    ______ ____
ROOT
ATOM      1  N   UNL     1      -0.972  10.089  19.757  0.00  0.00    +0.000 NA
ATOM      2  H   UNL     1      -1.469  10.232  20.635  0.00  0.00    +0.000 HD
ENDROOT
BRANCH   1   3
ATOM      3  C   UNL     1      -1.567  10.848  18.616  0.00  0.00    +0.000 C 
ATOM      4  C   UNL     1      -2.306   9.872  17.692  0.00  0.00    +0.000 C 
ATOM      5  C   UNL     1      -3.556  10.620  17.279  0.00  0.00    +0.000 C 
ATOM      6  N   UNL     1      -3.882  11.386  18.457  0.00  0.00    +0.000 N 
ATOM      7  C   UNL     1      -2.647  11.889  18.926  0.00  0.00    +0.000 C 
ATOM      8  O   UNL     1      -2.464  12.989  19.418  0.00  0.00    +0.000 OA
BRANCH   6   9
ATOM      9  C   UNL     1      -5.148  12.176  18.542  0.00  0.00    +0.000 C 
ATOM     10  C   UNL     1      -5.675  12.397  17.122  0.00  0.00    +0.000 C 
BRANCH   9  11
ATOM     11  C   UNL     1      -6.278  11.530  19.477  0.00  0.00    +0.000 C 
ATOM     12  O   UNL     1      -6.920  10.532  19.148  0.00  0.00    +0.000 OA
ATOM     13  N   UNL     1      -6.464  12.094  20.745  0.00  0.00    +0.000 N 
ATOM     14  C   UNL     1      -7.439  11.524  21.689  0.00  0.00    +0.000 C 
ATOM     15  C   UNL     1      -7.916  12.624  22.644  0.00  0.00    +0.000 C 
ATOM     16  O   UNL     1      -6.798  13.148  23.382  0.00  0.00    +0.000 OA
ATOM     17  C   UNL     1      -5.794  13.677  22.500  0.00  0.00    +0.000 C 
ATOM     18  C   UNL     1      -5.333  12.659  21.458  0.00  0.00    +0.000 C 
ENDBRANCH   9  11
ENDBRANCH   6   9
ENDBRANCH   1   3
BRANCH   1  19
ATOM     19  S   UNL     1       0.698  10.342  19.986  0.00  0.00    +0.000 S 
ATOM     20  O   UNL     1       0.866  10.834  21.305  0.00  0.00    +0.000 OA
ATOM     21  O   UNL     1       1.195  11.054  18.798  0.00  0.00    +0.000 OA
BRANCH  19  28
ATOM     22  C   UNL     1       4.277   3.135  18.145  0.00  0.00    +0.000 C 
ATOM     23  C   UNL     1       3.737   4.525  18.294  0.00  0.00    +0.000 A 
ATOM     24  C   UNL     1       3.947   5.491  17.307  0.00  0.00    +0.000 A 
ATOM     25  C   UNL     1       3.435   6.781  17.463  0.00  0.00    +0.000 A 
ATOM     26  C   UNL     1       2.696   7.123  18.604  0.00  0.00    +0.000 A 
ATOM     27  C   UNL     1       2.163   8.405  18.759  0.00  0.00    +0.000 A 
ATOM     28  C   UNL     1       1.388   8.715  19.879  0.00  0.00    +0.000 A 
ATOM     29  C   UNL     1       1.168   7.774  20.884  0.00  0.00    +0.000 A 
ATOM     30  C   UNL     1       1.713   6.495  20.741  0.00  0.00    +0.000 A 
ATOM     31  C   UNL     1       2.471   6.155  19.607  0.00  0.00    +0.000 A 
ATOM     32  C   UNL     1       3.003   4.866  19.440  0.00  0.00    +0.000 A 
ENDBRANCH  19  28
ENDBRANCH   1  19
TORSDOF 5
ENDMDL
MODEL 3
REMARK VINA RESULT:      -7.9      2.286      2.866
REMARK  Name = 
REMARK  7 active torsions:
REMARK  status: ('A' for Active; 'I' for Inactive)
REMARK    1  A    between atoms: C_1  and  C_2
REMARK    2  A    between atoms: C_7  and  S_8
REMARK    3  A    between atoms: S_8  and  N_11
REMARK    4  A    between atoms: N_11  and  C_12
REMARK    5  A    between atoms: N_15  and  C_16
REMARK    6  A    between atoms: C_16  and  C_17
REMARK    7  A    between atoms: C_16  and  C_18
REMARK                            x       y       z     vdW  Elec       q    Type
REMARK                         _______ _______ _______ _____ _____    ______ ____
ROOT
ATOM      1  N   UNL     1      -0.237  10.281  20.462  0.00  0.00    +0.000 NA
ATOM      2  H   UNL     1      -1.251  10.173  20.485  0.00  0.00    +0.000 HD
ENDROOT
BRANCH   1   3
ATOM      3  C   UNL     1       0.216  11.652  20.846  0.00  0.00    +0.000 C 
ATOM      4  C   UNL     1       0.077  12.586  19.638  0.00  0.00    +0.000 C 
ATOM      5  C   UNL     1      -0.426  13.887  20.226  0.00  0.00    +0.000 C 
ATOM      6  N   UNL     1      -1.276  13.450  21.306  0.00  0.00    +0.000 N 
ATOM      7  C   UNL     1      -0.572  12.396  21.929  0.00  0.00    +0.000 C 
ATOM      8  O   UNL     1      -0.536  12.169  23.126  0.00  0.00    +0.000 OA
BRANCH   6   9
ATOM      9  C   UNL     1      -2.104  14.424  22.082  0.00  0.00    +0.000 C 
ATOM     10  C   UNL     1      -1.565  15.832  21.822  0.00  0.00    +0.000 C 
BRANCH   9  11
ATOM     11  C   UNL     1      -3.678  14.350  21.784  0.00  0.00    +0.000 C 
ATOM     12  O   UNL     1      -4.177  14.798  20.752  0.00  0.00    +0.000 OA
ATOM     13  N   UNL     1      -4.477  13.672  22.711  0.00  0.00    +0.000 N 
ATOM     14  C   UNL     1      -5.922  13.507  22.483  0.00  0.00    +0.000 C 
ATOM     15  C   UNL     1      -6.630  13.359  23.834  0.00  0.00    +0.000 C 
ATOM     16  O   UNL     1      -6.128  12.202  24.525  0.00  0.00    +0.000 OA
ATOM     17  C   UNL     1      -4.708  12.295  24.733  0.00  0.00    +0.000 C 
ATOM     18  C   UNL     1      -3.941  12.533  23.434  0.00  0.00    +0.000 C 
ENDBRANCH   9  11
ENDBRANCH   6   9
ENDBRANCH   1   3
BRANCH   1  19
ATOM     19  S   UNL     1       0.500   9.017  21.336  0.00  0.00    +0.000 S 
ATOM     20  O   UNL     1      -0.536   8.154  21.774  0.00  0.00    +0.000 OA
ATOM     21  O   UNL     1       1.470   9.634  22.256  0.00  0.00    +0.000 OA
BRANCH  19  28
ATOM     22  C   UNL     1       5.268   4.130  16.694  0.00  0.00    +0.000 C 
ATOM     23  C   UNL     1       4.382   4.836  17.677  0.00  0.00    +0.000 A 
ATOM     24  C   UNL     1       4.041   4.244  18.896  0.00  0.00    +0.000 A 
ATOM     25  C   UNL     1       3.216   4.918  19.799  0.00  0.00    +0.000 A 
ATOM     26  C   UNL     1       2.726   6.197  19.503  0.00  0.00    +0.000 A 
ATOM     27  C   UNL     1       1.917   6.886  20.410  0.00  0.00    +0.000 A 
ATOM     28  C   UNL     1       1.478   8.180  20.120  0.00  0.00    +0.000 A 
ATOM     29  C   UNL     1       1.796   8.793  18.908  0.00  0.00    +0.000 A 
ATOM     30  C   UNL     1       2.592   8.101  17.990  0.00  0.00    +0.000 A 
ATOM     31  C   UNL     1       3.068   6.810  18.276  0.00  0.00    +0.000 A 
ATOM     32  C   UNL     1       3.889   6.114  17.375  0.00  0.00    +0.000 A 
ENDBRANCH  19  28
ENDBRANCH   1  19
TORSDOF 5
ENDMDL
MODEL 4
REMARK VINA RESULT:      -7.7      4.860      6.773
REMARK  Name = 
REMARK  7 active torsions:
REMARK  status: ('A' for Active; 'I' for Inactive)
REMARK    1  A    between atoms: C_1  and  C_2
REMARK    2  A    between atoms: C_7  and  S_8
REMARK    3  A    between atoms: S_8  and  N_11
REMARK    4  A    between atoms: N_11  and  C_12
REMARK    5  A    between atoms: N_15  and  C_16
REMARK    6  A    between atoms: C_16  and  C_17
REMARK    7  A    between atoms: C_16  and  C_18
REMARK                            x       y       z     vdW  Elec       q    Type
REMARK                         _______ _______ _______ _____ _____    ______ ____
ROOT
ATOM      1  N   UNL     1       2.124   6.775  20.772  0.00  0.00    +0.000 NA
ATOM      2  H   UNL     1       3.012   7.060  20.361  0.00  0.00    +0.000 HD
ENDROOT
BRANCH   1   3
ATOM      3  C   UNL     1       0.961   7.560  20.261  0.00  0.00    +0.000 C 
ATOM      4  C   UNL     1       0.267   8.258  21.437  0.00  0.00    +0.000 C 
ATOM      5  C   UNL     1      -0.106   9.621  20.897  0.00  0.00    +0.000 C 
ATOM      6  N   UNL     1       0.983   9.927  20.003  0.00  0.00    +0.000 N 
ATOM      7  C   UNL     1       1.240   8.725  19.307  0.00  0.00    +0.000 C 
ATOM      8  O   UNL     1       1.552   8.632  18.132  0.00  0.00    +0.000 OA
BRANCH   6   9
ATOM      9  C   UNL     1       1.095  11.267  19.349  0.00  0.00    +0.000 C 
ATOM     10  C   UNL     1      -0.208  11.548  18.598  0.00  0.00    +0.000 C 
BRANCH   9  11
ATOM     11  C   UNL     1       1.452  12.471  20.346  0.00  0.00    +0.000 C 
ATOM     12  O   UNL     1       1.272  12.398  21.562  0.00  0.00    +0.000 OA
ATOM     13  N   UNL     1       2.065  13.602  19.795  0.00  0.00    +0.000 N 
ATOM     14  C   UNL     1       2.478  14.727  20.650  0.00  0.00    +0.000 C 
ATOM     15  C   UNL     1       2.487  16.014  19.817  0.00  0.00    +0.000 C 
ATOM     16  O   UNL     1       3.416  15.885  18.728  0.00  0.00    +0.000 OA
ATOM     17  C   UNL     1       3.080  14.768  17.886  0.00  0.00    +0.000 C 
ATOM     18  C   UNL     1       2.966  13.460  18.666  0.00  0.00    +0.000 C 
ENDBRANCH   9  11
ENDBRANCH   6   9
ENDBRANCH   1   3
BRANCH   1  19
ATOM     19  S   UNL     1       1.947   5.083  20.653  0.00  0.00    +0.000 S 
ATOM     20  O   UNL     1       0.589   4.829  20.334  0.00  0.00    +0.000 OA
ATOM     21  O   UNL     1       2.616   4.494  21.824  0.00  0.00    +0.000 OA
BRANCH  19  28
ATOM     22  C   UNL     1       6.602   4.469  13.863  0.00  0.00    +0.000 C 
ATOM     23  C   UNL     1       5.796   4.807  15.082  0.00  0.00    +0.000 A 
ATOM     24  C   UNL     1       5.528   6.135  15.425  0.00  0.00    +0.000 A 
ATOM     25  C   UNL     1       4.775   6.429  16.563  0.00  0.00    +0.000 A 
ATOM     26  C   UNL     1       4.269   5.402  17.371  0.00  0.00    +0.000 A 
ATOM     27  C   UNL     1       3.498   5.688  18.500  0.00  0.00    +0.000 A 
ATOM     28  C   UNL     1       2.961   4.651  19.267  0.00  0.00    +0.000 A 
ATOM     29  C   UNL     1       3.218   3.317  18.953  0.00  0.00    +0.000 A 
ATOM     30  C   UNL     1       4.003   3.026  17.834  0.00  0.00    +0.000 A 
ATOM     31  C   UNL     1       4.528   4.055  17.033  0.00  0.00    +0.000 A 
ATOM     32  C   UNL     1       5.296   3.777  15.892  0.00  0.00    +0.000 A 
ENDBRANCH  19  28
ENDBRANCH   1  19
TORSDOF 5
ENDMDL
MODEL 5
REMARK VINA RESULT:      -7.7      1.986      2.777
REMARK  Name = 
REMARK  7 active torsions:
REMARK  status: ('A' for Active; 'I' for Inactive)
REMARK    1  A    between atoms: C_1  and  C_2
REMARK    2  A    between atoms: C_7  and  S_8
REMARK    3  A    between atoms: S_8  and  N_11
REMARK    4  A    between atoms: N_11  and  C_12
REMARK    5  A    between atoms: N_15  and  C_16
REMARK    6  A    between atoms: C_16  and  C_17
REMARK    7  A    between atoms: C_16  and  C_18
REMARK                            x       y       z     vdW  Elec       q    Type
REMARK                         _______ _______ _______ _____ _____    ______ ____
ROOT
ATOM      1  N   UNL     1       0.209   9.804  20.134  0.00  0.00    +0.000 NA
ATOM      2  H   UNL     1      -0.667   9.560  19.672  0.00  0.00    +0.000 HD
ENDROOT
BRANCH   1   3
ATOM      3  C   UNL     1       0.254  11.224  20.594  0.00  0.00    +0.000 C 
ATOM      4  C   UNL     1       0.205  12.151  19.373  0.00  0.00    +0.000 C 
ATOM      5  C   UNL     1      -0.689  13.294  19.806  0.00  0.00    +0.000 C 
ATOM      6  N   UNL     1      -1.654  12.648  20.660  0.00  0.00    +0.000 N 
ATOM      7  C   UNL     1      -0.906  11.744  21.448  0.00  0.00    +0.000 C 
ATOM      8  O   UNL     1      -1.105  11.486  22.623  0.00  0.00    +0.000 OA
BRANCH   6   9
ATOM      9  C   UNL     1      -2.831  13.394  21.203  0.00  0.00    +0.000 C 
ATOM     10  C   UNL     1      -2.675  14.872  20.839  0.00  0.00    +0.000 C 
BRANCH   9  11
ATOM     11  C   UNL     1      -4.256  12.834  20.726  0.00  0.00    +0.000 C 
ATOM     12  O   UNL     1      -4.420  12.283  19.638  0.00  0.00    +0.000 OA
ATOM     13  N   UNL     1      -5.316  12.916  21.637  0.00  0.00    +0.000 N 
ATOM     14  C   UNL     1      -6.642  12.372  21.301  0.00  0.00    +0.000 C 
ATOM     15  C   UNL     1      -7.711  13.129  22.096  0.00  0.00    +0.000 C 
ATOM     16  O   UNL     1      -7.479  12.965  23.506  0.00  0.00    +0.000 OA
ATOM     17  C   UNL     1      -6.175  13.441  23.878  0.00  0.00    +0.000 C 
ATOM     18  C   UNL     1      -5.059  12.793  23.060  0.00  0.00    +0.000 C 
ENDBRANCH   9  11
ENDBRANCH   6   9
ENDBRANCH   1   3
BRANCH   1  19
ATOM     19  S   UNL     1       0.568   8.654  21.341  0.00  0.00    +0.000 S 
ATOM     20  O   UNL     1      -0.664   8.090  21.757  0.00  0.00    +0.000 OA
ATOM     21  O   UNL     1       1.514   9.286  22.274  0.00  0.00    +0.000 OA
BRANCH  19  28
ATOM     22  C   UNL     1       5.180   3.955  16.360  0.00  0.00    +0.000 C 
ATOM     23  C   UNL     1       4.427   4.987  17.147  0.00  0.00    +0.000 A 
ATOM     24  C   UNL     1       4.424   6.329  16.759  0.00  0.00    +0.000 A 
ATOM     25  C   UNL     1       3.716   7.275  17.503  0.00  0.00    +0.000 A 
ATOM     26  C   UNL     1       2.993   6.893  18.641  0.00  0.00    +0.000 A 
ATOM     27  C   UNL     1       2.265   7.830  19.379  0.00  0.00    +0.000 A 
ATOM     28  C   UNL     1       1.510   7.425  20.482  0.00  0.00    +0.000 A 
ATOM     29  C   UNL     1       1.500   6.093  20.897  0.00  0.00    +0.000 A 
ATOM     30  C   UNL     1       2.239   5.155  20.170  0.00  0.00    +0.000 A 
ATOM     31  C   UNL     1       2.982   5.538  19.041  0.00  0.00    +0.000 A 
ATOM     32  C   UNL     1       3.708   4.602  18.288  0.00  0.00    +0.000 A 
ENDBRANCH  19  28
ENDBRANCH   1  19
TORSDOF 5
ENDMDL
MODEL 6
REMARK VINA RESULT:      -7.5      2.295      2.974
REMARK  Name = 
REMARK  7 active torsions:
REMARK  status: ('A' for Active; 'I' for Inactive)
REMARK    1  A    between atoms: C_1  and  C_2
REMARK    2  A    between atoms: C_7  and  S_8
REMARK    3  A    between atoms: S_8  and  N_11
REMARK    4  A    between atoms: N_11  and  C_12
REMARK    5  A    between atoms: N_15  and  C_16
REMARK    6  A    between atoms: C_16  and  C_17
REMARK    7  A    between atoms: C_16  and  C_18
REMARK                            x       y       z     vdW  Elec       q    Type
REMARK                         _______ _______ _______ _____ _____    ______ ____
ROOT
ATOM      1  N   UNL     1       0.795  10.263  20.293  0.00  0.00    +0.000 NA
ATOM      2  H   UNL     1      -0.074  10.187  19.763  0.00  0.00    +0.000 HD
ENDROOT
BRANCH   1   3
ATOM      3  C   UNL     1       1.018  11.625  20.863  0.00  0.00    +0.000 C 
ATOM      4  C   UNL     1       1.244  12.620  19.718  0.00  0.00    +0.000 C 
ATOM      5  C   UNL     1       0.503  13.867  20.153  0.00  0.00    +0.000 C 
ATOM      6  N   UNL     1      -0.636  13.339  20.862  0.00  0.00    +0.000 N 
ATOM      7  C   UNL     1      -0.127  12.278  21.644  0.00  0.00    +0.000 C 
ATOM      8  O   UNL     1      -0.485  11.985  22.772  0.00  0.00    +0.000 OA
BRANCH   6   9
ATOM      9  C   UNL     1      -1.728  14.236  21.350  0.00  0.00    +0.000 C 
ATOM     10  C   UNL     1      -1.622  15.572  20.611  0.00  0.00    +0.000 C 
BRANCH   9  11
ATOM     11  C   UNL     1      -3.205  13.625  21.218  0.00  0.00    +0.000 C 
ATOM     12  O   UNL     1      -3.474  12.708  20.442  0.00  0.00    +0.000 OA
ATOM     13  N   UNL     1      -4.185  14.116  22.088  0.00  0.00    +0.000 N 
ATOM     14  C   UNL     1      -5.551  13.568  22.073  0.00  0.00    +0.000 C 
ATOM     15  C   UNL     1      -6.527  14.637  22.575  0.00  0.00    +0.000 C 
ATOM     16  O   UNL     1      -6.187  15.016  23.920  0.00  0.00    +0.000 OA
ATOM     17  C   UNL     1      -4.842  15.518  23.996  0.00  0.00    +0.000 C 
ATOM     18  C   UNL     1      -3.818  14.537  23.428  0.00  0.00    +0.000 C 
ENDBRANCH   9  11
ENDBRANCH   6   9
ENDBRANCH   1   3
BRANCH   1  19
ATOM     19  S   UNL     1       0.896   8.993  21.425  0.00  0.00    +0.000 S 
ATOM     20  O   UNL     1      -0.427   8.707  21.850  0.00  0.00    +0.000 OA
ATOM     21  O   UNL     1       1.981   9.332  22.360  0.00  0.00    +0.000 OA
BRANCH  19  28
ATOM     22  C   UNL     1       3.416   1.847  18.147  0.00  0.00    +0.000 C 
ATOM     23  C   UNL     1       2.849   3.015  18.898  0.00  0.00    +0.000 A 
ATOM     24  C   UNL     1       2.180   2.837  20.112  0.00  0.00    +0.000 A 
ATOM     25  C   UNL     1       1.661   3.937  20.797  0.00  0.00    +0.000 A 
ATOM     26  C   UNL     1       1.808   5.233  20.285  0.00  0.00    +0.000 A 
ATOM     27  C   UNL     1       1.308   6.341  20.974  0.00  0.00    +0.000 A 
ATOM     28  C   UNL     1       1.508   7.630  20.474  0.00  0.00    +0.000 A 
ATOM     29  C   UNL     1       2.165   7.837  19.261  0.00  0.00    +0.000 A 
ATOM     30  C   UNL     1       2.652   6.731  18.560  0.00  0.00    +0.000 A 
ATOM     31  C   UNL     1       2.488   5.428  19.061  0.00  0.00    +0.000 A 
ATOM     32  C   UNL     1       2.994   4.311  18.380  0.00  0.00    +0.000 A 
ENDBRANCH  19  28
ENDBRANCH   1  19
TORSDOF 5
ENDMDL
MODEL 7
REMARK VINA RESULT:      -7.4      1.670      1.897
REMARK  Name = 
REMARK  7 active torsions:
REMARK  status: ('A' for Active; 'I' for Inactive)
REMARK    1  A    between atoms: C_1  and  C_2
REMARK    2  A    between atoms: C_7  and  S_8
REMARK    3  A    between atoms: S_8  and  N_11
REMARK    4  A    between atoms: N_11  and  C_12
REMARK    5  A    between atoms: N_15  and  C_16
REMARK    6  A    between atoms: C_16  and  C_17
REMARK    7  A    between atoms: C_16  and  C_18
REMARK                            x       y       z     vdW  Elec       q    Type
REMARK                         _______ _______ _______ _____ _____    ______ ____
ROOT
ATOM      1  N   UNL     1      -0.916  10.180  19.326  0.00  0.00    +0.000 NA
ATOM      2  H   UNL     1      -1.349   9.832  20.180  0.00  0.00    +0.000 HD
ENDROOT
BRANCH   1   3
ATOM      3  C   UNL     1      -1.690  11.286  18.685  0.00  0.00    +0.000 C 
ATOM      4  C   UNL     1      -3.005  10.726  18.131  0.00  0.00    +0.000 C 
ATOM      5  C   UNL     1      -4.028  11.798  18.437  0.00  0.00    +0.000 C 
ATOM      6  N   UNL     1      -3.575  12.332  19.698  0.00  0.00    +0.000 N 
ATOM      7  C   UNL     1      -2.172  12.438  19.572  0.00  0.00    +0.000 C 
ATOM      8  O   UNL     1      -1.479  13.334  20.025  0.00  0.00    +0.000 OA
BRANCH   6   9
ATOM      9  C   UNL     1      -4.387  13.336  20.451  0.00  0.00    +0.000 C 
ATOM     10  C   UNL     1      -5.861  13.128  20.098  0.00  0.00    +0.000 C 
BRANCH   9  11
ATOM     11  C   UNL     1      -4.170  13.315  22.040  0.00  0.00    +0.000 C 
ATOM     12  O   UNL     1      -4.124  12.270  22.688  0.00  0.00    +0.000 OA
ATOM     13  N   UNL     1      -3.946  14.543  22.674  0.00  0.00    +0.000 N 
ATOM     14  C   UNL     1      -3.680  14.607  24.121  0.00  0.00    +0.000 C 
ATOM     15  C   UNL     1      -4.119  15.975  24.652  0.00  0.00    +0.000 C 
ATOM     16  O   UNL     1      -3.379  17.016  23.991  0.00  0.00    +0.000 OA
ATOM     17  C   UNL     1      -3.571  16.968  22.567  0.00  0.00    +0.000 C 
ATOM     18  C   UNL     1      -3.237  15.600  21.977  0.00  0.00    +0.000 C 
ENDBRANCH   9  11
ENDBRANCH   6   9
ENDBRANCH   1   3
BRANCH   1  19
ATOM     19  S   UNL     1       0.727  10.534  19.610  0.00  0.00    +0.000 S 
ATOM     20  O   UNL     1       0.870  10.758  21.003  0.00  0.00    +0.000 OA
ATOM     21  O   UNL     1       1.140  11.517  18.596  0.00  0.00    +0.000 OA
BRANCH  19  28
ATOM     22  C   UNL     1       4.275   3.113  18.908  0.00  0.00    +0.000 C 
ATOM     23  C   UNL     1       3.523   4.373  19.219  0.00  0.00    +0.000 A 
ATOM     24  C   UNL     1       2.777   4.497  20.394  0.00  0.00    +0.000 A 
ATOM     25  C   UNL     1       2.085   5.678  20.667  0.00  0.00    +0.000 A 
ATOM     26  C   UNL     1       2.134   6.758  19.774  0.00  0.00    +0.000 A 
ATOM     27  C   UNL     1       1.461   7.951  20.050  0.00  0.00    +0.000 A 
ATOM     28  C   UNL     1       1.561   9.034  19.173  0.00  0.00    +0.000 A 
ATOM     29  C   UNL     1       2.292   8.937  17.990  0.00  0.00    +0.000 A 
ATOM     30  C   UNL     1       2.955   7.740  17.702  0.00  0.00    +0.000 A 
ATOM     31  C   UNL     1       2.890   6.648  18.586  0.00  0.00    +0.000 A 
ATOM     32  C   UNL     1       3.571   5.450  18.321  0.00  0.00    +0.000 A 
ENDBRANCH  19  28
ENDBRANCH   1  19
TORSDOF 5
ENDMDL
MODEL 8
REMARK VINA RESULT:      -7.4      4.385     10.607
REMARK  Name = 
REMARK  7 active torsions:
REMARK  status: ('A' for Active; 'I' for Inactive)
REMARK    1  A    between atoms: C_1  and  C_2
REMARK    2  A    between atoms: C_7  and  S_8
REMARK    3  A    between atoms: S_8  and  N_11
REMARK    4  A    between atoms: N_11  and  C_12
REMARK    5  A    between atoms: N_15  and  C_16
REMARK    6  A    between atoms: C_16  and  C_17
REMARK    7  A    between atoms: C_16  and  C_18
REMARK                            x       y       z     vdW  Elec       q    Type
REMARK                         _______ _______ _______ _____ _____    ______ ____
ROOT
ATOM      1  N   UNL     1       1.697   8.710  21.553  0.00  0.00    +0.000 NA
ATOM      2  H   UNL     1       2.391   8.351  22.208  0.00  0.00    +0.000 HD
ENDROOT
BRANCH   1   3
ATOM      3  C   UNL     1       1.392   7.758  20.442  0.00  0.00    +0.000 C 
ATOM      4  C   UNL     1       1.966   8.311  19.132  0.00  0.00    +0.000 C 
ATOM      5  C   UNL     1       2.516   7.094  18.420  0.00  0.00    +0.000 C 
ATOM      6  N   UNL     1       3.000   6.274  19.503  0.00  0.00    +0.000 N 
ATOM      7  C   UNL     1       2.006   6.356  20.503  0.00  0.00    +0.000 C 
ATOM      8  O   UNL     1       1.648   5.447  21.232  0.00  0.00    +0.000 OA
BRANCH   6   9
ATOM      9  C   UNL     1       3.764   5.016  19.240  0.00  0.00    +0.000 C 
ATOM     10  C   UNL     1       3.066   3.866  19.969  0.00  0.00    +0.000 C 
BRANCH   9  11
ATOM     11  C   UNL     1       3.968   4.668  17.688  0.00  0.00    +0.000 C 
ATOM     12  O   UNL     1       3.092   4.131  17.009  0.00  0.00    +0.000 OA
ATOM     13  N   UNL     1       5.165   5.077  17.089  0.00  0.00    +0.000 N 
ATOM     14  C   UNL     1       5.407   4.851  15.655  0.00  0.00    +0.000 C 
ATOM     15  C   UNL     1       6.917   4.761  15.408  0.00  0.00    +0.000 C 
ATOM     16  O   UNL     1       7.550   5.991  15.803  0.00  0.00    +0.000 OA
ATOM     17  C   UNL     1       7.305   6.281  17.190  0.00  0.00    +0.000 C 
ATOM     18  C   UNL     1       5.816   6.297  17.530  0.00  0.00    +0.000 C 
ENDBRANCH   9  11
ENDBRANCH   6   9
ENDBRANCH   1   3
BRANCH   1  19
ATOM     19  S   UNL     1       0.330   9.271  22.403  0.00  0.00    +0.000 S 
ATOM     20  O   UNL     1       0.746   9.529  23.734  0.00  0.00    +0.000 OA
ATOM     21  O   UNL     1      -0.785   8.369  22.074  0.00  0.00    +0.000 OA
BRANCH  19  28
ATOM     22  C   UNL     1      -0.075  16.476  18.393  0.00  0.00    +0.000 C 
ATOM     23  C   UNL     1       0.205  15.143  19.021  0.00  0.00    +0.000 A 
ATOM     24  C   UNL     1       1.456  14.534  18.895  0.00  0.00    +0.000 A 
ATOM     25  C   UNL     1       1.697  13.293  19.488  0.00  0.00    +0.000 A 
ATOM     26  C   UNL     1       0.696  12.645  20.224  0.00  0.00    +0.000 A 
ATOM     27  C   UNL     1       0.936  11.413  20.838  0.00  0.00    +0.000 A 
ATOM     28  C   UNL     1      -0.058  10.805  21.608  0.00  0.00    +0.000 A 
ATOM     29  C   UNL     1      -1.319  11.386  21.745  0.00  0.00    +0.000 A 
ATOM     30  C   UNL     1      -1.568  12.611  21.120  0.00  0.00    +0.000 A 
ATOM     31  C   UNL     1      -0.572  13.253  20.365  0.00  0.00    +0.000 A 
ATOM     32  C   UNL     1      -0.802  14.495  19.753  0.00  0.00    +0.000 A 
ENDBRANCH  19  28
ENDBRANCH   1  19
TORSDOF 5
ENDMDL
MODEL 9
REMARK VINA RESULT:      -7.4      4.457      6.987
REMARK  Name = 
REMARK  7 active torsions:
REMARK  status: ('A' for Active; 'I' for Inactive)
REMARK    1  A    between atoms: C_1  and  C_2
REMARK    2  A    between atoms: C_7  and  S_8
REMARK    3  A    between atoms: S_8  and  N_11
REMARK    4  A    between atoms: N_11  and  C_12
REMARK    5  A    between atoms: N_15  and  C_16
REMARK    6  A    between atoms: C_16  and  C_17
REMARK    7  A    between atoms: C_16  and  C_18
REMARK                            x       y       z     vdW  Elec       q    Type
REMARK                         _______ _______ _______ _____ _____    ______ ____
ROOT
ATOM      1  N   UNL     1       1.309  11.337  21.086  0.00  0.00    +0.000 NA
ATOM      2  H   UNL     1       2.118  11.173  20.488  0.00  0.00    +0.000 HD
ENDROOT
BRANCH   1   3
ATOM      3  C   UNL     1       0.358  12.343  20.525  0.00  0.00    +0.000 C 
ATOM      4  C   UNL     1       0.036  13.388  21.600  0.00  0.00    +0.000 C 
ATOM      5  C   UNL     1      -0.004  14.700  20.847  0.00  0.00    +0.000 C 
ATOM      6  N   UNL     1       1.009  14.527  19.835  0.00  0.00    +0.000 N 
ATOM      7  C   UNL     1       0.832  13.210  19.355  0.00  0.00    +0.000 C 
ATOM      8  O   UNL     1       0.959  12.848  18.198  0.00  0.00    +0.000 OA
BRANCH   6   9
ATOM      9  C   UNL     1       1.410  15.655  18.939  0.00  0.00    +0.000 C 
ATOM     10  C   UNL     1       0.156  16.455  18.579  0.00  0.00    +0.000 C 
BRANCH   9  11
ATOM     11  C   UNL     1       2.546  16.614  19.539  0.00  0.00    +0.000 C 
ATOM     12  O   UNL     1       2.295  17.526  20.327  0.00  0.00    +0.000 OA
ATOM     13  N   UNL     1       3.874  16.328  19.200  0.00  0.00    +0.000 N 
ATOM     14  C   UNL     1       4.982  17.123  19.755  0.00  0.00    +0.000 C 
ATOM     15  C   UNL     1       6.170  17.072  18.788  0.00  0.00    +0.000 C 
ATOM     16  O   UNL     1       6.605  15.712  18.619  0.00  0.00    +0.000 OA
ATOM     17  C   UNL     1       5.542  14.883  18.120  0.00  0.00    +0.000 C 
ATOM     18  C   UNL     1       4.287  14.953  18.989  0.00  0.00    +0.000 C 
ENDBRANCH   9  11
ENDBRANCH   6   9
ENDBRANCH   1   3
BRANCH   1  19
ATOM     19  S   UNL     1       0.597   9.850  21.519  0.00  0.00    +0.000 S 
ATOM     20  O   UNL     1      -0.792   9.962  21.259  0.00  0.00    +0.000 OA
ATOM     21  O   UNL     1       1.136   9.478  22.837  0.00  0.00    +0.000 OA
BRANCH  19  28
ATOM     22  C   UNL     1       4.033   3.604  17.354  0.00  0.00    +0.000 C 
ATOM     23  C   UNL     1       3.368   4.583  18.276  0.00  0.00    +0.000 A 
ATOM     24  C   UNL     1       3.026   4.226  19.583  0.00  0.00    +0.000 A 
ATOM     25  C   UNL     1       2.409   5.152  20.426  0.00  0.00    +0.000 A 
ATOM     26  C   UNL     1       2.132   6.452  19.980  0.00  0.00    +0.000 A 
ATOM     27  C   UNL     1       1.533   7.390  20.825  0.00  0.00    +0.000 A 
ATOM     28  C   UNL     1       1.309   8.696  20.380  0.00  0.00    +0.000 A 
ATOM     29  C   UNL     1       1.634   9.078  19.078  0.00  0.00    +0.000 A 
ATOM     30  C   UNL     1       2.218   8.138  18.225  0.00  0.00    +0.000 A 
ATOM     31  C   UNL     1       2.479   6.828  18.663  0.00  0.00    +0.000 A 
ATOM     32  C   UNL     1       3.088   5.882  17.825  0.00  0.00    +0.000 A 
ENDBRANCH  19  28
ENDBRANCH   1  19
TORSDOF 5
ENDMDL
