MODEL 1
REMARK VINA RESULT:      -8.8      0.000      0.000
REMARK  Name = 
REMARK  10 active torsions:
REMARK  status: ('A' for Active; 'I' for Inactive)
REMARK    1  A    between atoms: C_1  and  C_2
REMARK    2  A    between atoms: C_2  and  C_3
REMARK    3  A    between atoms: C_2  and  N_11
REMARK    4  A    between atoms: C_3  and  C_4
REMARK    5  A    between atoms: C_4  and  C_5
REMARK    6  A    between atoms: C_12  and  C_14
REMARK    7  A    between atoms: C_17  and  N_18
REMARK    8  A    between atoms: C_20  and  O_21
REMARK    9  A    between atoms: O_21  and  C_22
REMARK   10  A    between atoms: C_22  and  C_23
REMARK                            x       y       z     vdW  Elec       q    Type
REMARK                         _______ _______ _______ _____ _____    ______ ____
ROOT
ATOM      1  C   UNL     1       1.111   9.359  19.598  0.00  0.00    +0.000 A 
ATOM      2  C   UNL     1       1.139   8.530  20.732  0.00  0.00    +0.000 A 
ATOM      3  C   UNL     1       1.824   7.318  20.702  0.00  0.00    +0.000 A 
ATOM      4  C   UNL     1       2.463   6.919  19.530  0.00  0.00    +0.000 A 
ATOM      5  C   UNL     1       2.410   7.719  18.382  0.00  0.00    +0.000 A 
ATOM      6  C   UNL     1       1.731   8.939  18.414  0.00  0.00    +0.000 A 
ENDROOT
BRANCH   4   7
ATOM      7  N   UNL     1       3.144   5.691  19.497  0.00  0.00    +0.000 N 
ATOM      8  N   UNL     1       4.515   5.814  19.518  0.00  0.00    +0.000 NA
ATOM      9  C   UNL     1       5.197   4.729  19.353  0.00  0.00    +0.000 A 
ATOM     10  C   UNL     1       4.625   3.392  19.186  0.00  0.00    +0.000 A 
ATOM     11  C   UNL     1       3.294   3.300  19.160  0.00  0.00    +0.000 A 
ATOM     12  C   UNL     1       2.451   4.506  19.297  0.00  0.00    +0.000 A 
ATOM     13  O   UNL     1       1.230   4.372  19.235  0.00  0.00    +0.000 OA
BRANCH   9  14
ATOM     14  O   UNL     1       6.543   4.834  19.336  0.00  0.00    +0.000 OA
BRANCH  14  15
ATOM     15  C   UNL     1       7.201   5.603  18.318  0.00  0.00    +0.000 C 
BRANCH  15  16
ATOM     16  C   UNL     1       6.685   5.280  16.939  0.00  0.00    +0.000 A 
ATOM     17  C   UNL     1       7.092   4.082  16.330  0.00  0.00    +0.000 A 
ATOM     18  C   UNL     1       6.600   3.722  15.077  0.00  0.00    +0.000 A 
ATOM     19  C   UNL     1       5.688   4.553  14.429  0.00  0.00    +0.000 A 
ATOM     20 CL   UNL     1       5.083   4.108  12.881  0.00  0.00    +0.000 Cl
ATOM     21  C   UNL     1       5.261   5.735  15.028  0.00  0.00    +0.000 A 
ATOM     22  C   UNL     1       5.753   6.096  16.284  0.00  0.00    +0.000 A 
ENDBRANCH  15  16
ENDBRANCH  14  15
ENDBRANCH   9  14
ENDBRANCH   4   7
BRANCH   1  24
ATOM     23  N   UNL     1      -0.639  10.723  20.620  0.00  0.00    +0.000 N 
ATOM     24  C   UNL     1       0.412  10.670  19.728  0.00  0.00    +0.000 C 
ATOM     25  O   UNL     1       0.780  11.593  19.013  0.00  0.00    +0.000 OA
ATOM     26  H   UNL     1      -0.857   9.883  21.135  0.00  0.00    +0.000 HD
BRANCH  23  28
ATOM     27  C   UNL     1      -0.948  12.984  21.710  0.00  0.00    +0.000 C 
ATOM     28  C   UNL     1      -1.535  11.859  20.855  0.00  0.00    +0.000 C 
BRANCH  28  29
ATOM     29  C   UNL     1      -2.042  12.452  19.522  0.00  0.00    +0.000 C 
BRANCH  29  30
ATOM     30  C   UNL     1      -3.387  11.884  19.053  0.00  0.00    +0.000 C 
BRANCH  30  31
ATOM     31  C   UNL     1      -3.264  11.178  17.723  0.00  0.00    +0.000 A 
ATOM     32  C   UNL     1      -2.217  10.269  17.500  0.00  0.00    +0.000 A 
ATOM     33  C   UNL     1      -2.083   9.632  16.266  0.00  0.00    +0.000 A 
ATOM     34  C   UNL     1      -2.989   9.896  15.241  0.00  0.00    +0.000 A 
ATOM     35  C   UNL     1      -4.031  10.799  15.449  0.00  0.00    +0.000 A 
ATOM     36  C   UNL     1      -4.167  11.438  16.684  0.00  0.00    +0.000 A 
ENDBRANCH  30  31
ENDBRANCH  29  30
ENDBRANCH  28  29
ENDBRANCH  23  28
ENDBRANCH   1  24
TORSDOF 9
ENDMDL
MODEL 2
REMARK VINA RESULT:      -8.7      3.149      9.140
REMARK  Name = 
REMARK  10 active torsions:
REMARK  status: ('A' for Active; 'I' for Inactive)
REMARK    1  A    between atoms: C_1  and  C_2
REMARK    2  A    between atoms: C_2  and  C_3
REMARK    3  A    between atoms: C_2  and  N_11
REMARK    4  A    between atoms: C_3  and  C_4
REMARK    5  A    between atoms: C_4  and  C_5
REMARK    6  A    between atoms: C_12  and  C_14
REMARK    7  A    between atoms: C_17  and  N_18
REMARK    8  A    between atoms: C_20  and  O_21
REMARK    9  A    between atoms: O_21  and  C_22
REMARK   10  A    between atoms: C_22  and  C_23
REMARK                            x       y       z     vdW  Elec       q    Type
REMARK                         _______ _______ _______ _____ _____    ______ ____
ROOT
ATOM      1  C   UNL     1       3.133   7.192  18.499  0.00  0.00    +0.000 A 
ATOM      2  C   UNL     1       2.432   7.196  19.716  0.00  0.00    +0.000 A 
ATOM      3  C   UNL     1       1.513   8.205  19.997  0.00  0.00    +0.000 A 
ATOM      4  C   UNL     1       1.311   9.225  19.072  0.00  0.00    +0.000 A 
ATOM      5  C   UNL     1       2.031   9.252  17.872  0.00  0.00    +0.000 A 
ATOM      6  C   UNL     1       2.946   8.236  17.586  0.00  0.00    +0.000 A 
ENDROOT
BRANCH   4   7
ATOM      7  N   UNL     1       0.392  10.249  19.360  0.00  0.00    +0.000 N 
ATOM      8  N   UNL     1       0.723  10.999  20.466  0.00  0.00    +0.000 NA
ATOM      9  C   UNL     1      -0.149  11.865  20.862  0.00  0.00    +0.000 A 
ATOM     10  C   UNL     1      -1.430  12.130  20.204  0.00  0.00    +0.000 A 
ATOM     11  C   UNL     1      -1.732  11.385  19.139  0.00  0.00    +0.000 A 
ATOM     12  C   UNL     1      -0.801  10.342  18.659  0.00  0.00    +0.000 A 
ATOM     13  O   UNL     1      -1.139   9.661  17.693  0.00  0.00    +0.000 OA
BRANCH   9  14
ATOM     14  O   UNL     1       0.142  12.587  21.965  0.00  0.00    +0.000 OA
BRANCH  14  15
ATOM     15  C   UNL     1       0.278  14.014  21.885  0.00  0.00    +0.000 C 
BRANCH  15  16
ATOM     16  C   UNL     1       1.280  14.433  20.840  0.00  0.00    +0.000 A 
ATOM     17  C   UNL     1       2.626  14.071  21.013  0.00  0.00    +0.000 A 
ATOM     18  C   UNL     1       3.576  14.396  20.046  0.00  0.00    +0.000 A 
ATOM     19  C   UNL     1       3.184  15.075  18.894  0.00  0.00    +0.000 A 
ATOM     20 CL   UNL     1       4.359  15.477  17.703  0.00  0.00    +0.000 Cl
ATOM     21  C   UNL     1       1.850  15.425  18.701  0.00  0.00    +0.000 A 
ATOM     22  C   UNL     1       0.898  15.099  19.669  0.00  0.00    +0.000 A 
ENDBRANCH  15  16
ENDBRANCH  14  15
ENDBRANCH   9  14
ENDBRANCH   4   7
BRANCH   1  24
ATOM     23  N   UNL     1       4.069   5.542  16.960  0.00  0.00    +0.000 N 
ATOM     24  C   UNL     1       4.051   6.044  18.245  0.00  0.00    +0.000 C 
ATOM     25  O   UNL     1       4.690   5.597  19.188  0.00  0.00    +0.000 OA
ATOM     26  H   UNL     1       3.477   5.988  16.276  0.00  0.00    +0.000 HD
BRANCH  23  28
ATOM     27  C   UNL     1       6.333   4.473  16.596  0.00  0.00    +0.000 C 
ATOM     28  C   UNL     1       4.809   4.368  16.487  0.00  0.00    +0.000 C 
BRANCH  28  29
ATOM     29  C   UNL     1       4.340   3.087  17.209  0.00  0.00    +0.000 C 
BRANCH  29  30
ATOM     30  C   UNL     1       2.816   2.958  17.333  0.00  0.00    +0.000 C 
BRANCH  30  31
ATOM     31  C   UNL     1       2.361   3.059  18.769  0.00  0.00    +0.000 A 
ATOM     32  C   UNL     1       1.189   3.762  19.091  0.00  0.00    +0.000 A 
ATOM     33  C   UNL     1       0.775   3.881  20.418  0.00  0.00    +0.000 A 
ATOM     34  C   UNL     1       1.527   3.302  21.439  0.00  0.00    +0.000 A 
ATOM     35  C   UNL     1       2.694   2.605  21.133  0.00  0.00    +0.000 A 
ATOM     36  C   UNL     1       3.110   2.484  19.804  0.00  0.00    +0.000 A 
ENDBRANCH  30  31
ENDBRANCH  29  30
ENDBRANCH  28  29
ENDBRANCH  23  28
ENDBRANCH   1  24
TORSDOF 9
ENDMDL
MODEL 3
REMARK VINA RESULT:      -8.7      3.911     10.411
REMARK  Name = 
REMARK  10 active torsions:
REMARK  status: ('A' for Active; 'I' for Inactive)
REMARK    1  A    between atoms: C_1  and  C_2
REMARK    2  A    between atoms: C_2  and  C_3
REMARK    3  A    between atoms: C_2  and  N_11
REMARK    4  A    between atoms: C_3  and  C_4
REMARK    5  A    between atoms: C_4  and  C_5
REMARK    6  A    between atoms: C_12  and  C_14
REMARK    7  A    between atoms: C_17  and  N_18
REMARK    8  A    between atoms: C_20  and  O_21
REMARK    9  A    between atoms: O_21  and  C_22
REMARK   10  A    between atoms: C_22  and  C_23
REMARK                            x       y       z     vdW  Elec       q    Type
REMARK                         _______ _______ _______ _____ _____    ______ ____
ROOT
ATOM      1  C   UNL     1       3.029   7.344  18.537  0.00  0.00    +0.000 A 
ATOM      2  C   UNL     1       2.288   7.361  19.729  0.00  0.00    +0.000 A 
ATOM      3  C   UNL     1       1.319   8.339  19.943  0.00  0.00    +0.000 A 
ATOM      4  C   UNL     1       1.105   9.316  18.974  0.00  0.00    +0.000 A 
ATOM      5  C   UNL     1       1.864   9.332  17.798  0.00  0.00    +0.000 A 
ATOM      6  C   UNL     1       2.829   8.347  17.579  0.00  0.00    +0.000 A 
ENDROOT
BRANCH   4   7
ATOM      7  N   UNL     1       0.135  10.308  19.195  0.00  0.00    +0.000 N 
ATOM      8  N   UNL     1       0.332  11.034  20.348  0.00  0.00    +0.000 NA
ATOM      9  C   UNL     1      -0.598  11.868  20.676  0.00  0.00    +0.000 A 
ATOM     10  C   UNL     1      -1.813  12.120  19.899  0.00  0.00    +0.000 A 
ATOM     11  C   UNL     1      -1.986  11.399  18.790  0.00  0.00    +0.000 A 
ATOM     12  C   UNL     1      -0.984  10.394  18.379  0.00  0.00    +0.000 A 
ATOM     13  O   UNL     1      -1.205   9.732  17.366  0.00  0.00    +0.000 OA
BRANCH   9  14
ATOM     14  O   UNL     1      -0.439  12.564  21.821  0.00  0.00    +0.000 OA
BRANCH  14  15
ATOM     15  C   UNL     1      -1.164  12.196  23.004  0.00  0.00    +0.000 C 
BRANCH  15  16
ATOM     16  C   UNL     1      -2.379  13.061  23.219  0.00  0.00    +0.000 A 
ATOM     17  C   UNL     1      -3.622  12.440  23.424  0.00  0.00    +0.000 A 
ATOM     18  C   UNL     1      -4.761  13.202  23.674  0.00  0.00    +0.000 A 
ATOM     19  C   UNL     1      -4.665  14.590  23.732  0.00  0.00    +0.000 A 
ATOM     20 CL   UNL     1      -6.073  15.529  24.039  0.00  0.00    +0.000 Cl
ATOM     21  C   UNL     1      -3.436  15.220  23.548  0.00  0.00    +0.000 A 
ATOM     22  C   UNL     1      -2.293  14.457  23.298  0.00  0.00    +0.000 A 
ENDBRANCH  15  16
ENDBRANCH  14  15
ENDBRANCH   9  14
ENDBRANCH   4   7
BRANCH   1  24
ATOM     23  N   UNL     1       4.177   5.766  17.067  0.00  0.00    +0.000 N 
ATOM     24  C   UNL     1       4.003   6.230  18.354  0.00  0.00    +0.000 C 
ATOM     25  O   UNL     1       4.547   5.771  19.350  0.00  0.00    +0.000 OA
ATOM     26  H   UNL     1       3.650   6.218  16.334  0.00  0.00    +0.000 HD
BRANCH  23  28
ATOM     27  C   UNL     1       6.479   4.719  17.025  0.00  0.00    +0.000 C 
ATOM     28  C   UNL     1       4.998   4.627  16.647  0.00  0.00    +0.000 C 
BRANCH  28  29
ATOM     29  C   UNL     1       4.423   3.299  17.184  0.00  0.00    +0.000 C 
BRANCH  29  30
ATOM     30  C   UNL     1       2.892   3.270  17.278  0.00  0.00    +0.000 C 
BRANCH  30  31
ATOM     31  C   UNL     1       2.421   3.221  18.712  0.00  0.00    +0.000 A 
ATOM     32  C   UNL     1       1.207   3.824  19.078  0.00  0.00    +0.000 A 
ATOM     33  C   UNL     1       0.777   3.803  20.405  0.00  0.00    +0.000 A 
ATOM     34  C   UNL     1       1.553   3.183  21.382  0.00  0.00    +0.000 A 
ATOM     35  C   UNL     1       2.762   2.582  21.032  0.00  0.00    +0.000 A 
ATOM     36  C   UNL     1       3.194   2.602  19.703  0.00  0.00    +0.000 A 
ENDBRANCH  30  31
ENDBRANCH  29  30
ENDBRANCH  28  29
ENDBRANCH  23  28
ENDBRANCH   1  24
TORSDOF 9
ENDMDL
MODEL 4
REMARK VINA RESULT:      -8.7      3.489      9.503
REMARK  Name = 
REMARK  10 active torsions:
REMARK  status: ('A' for Active; 'I' for Inactive)
REMARK    1  A    between atoms: C_1  and  C_2
REMARK    2  A    between atoms: C_2  and  C_3
REMARK    3  A    between atoms: C_2  and  N_11
REMARK    4  A    between atoms: C_3  and  C_4
REMARK    5  A    between atoms: C_4  and  C_5
REMARK    6  A    between atoms: C_12  and  C_14
REMARK    7  A    between atoms: C_17  and  N_18
REMARK    8  A    between atoms: C_20  and  O_21
REMARK    9  A    between atoms: O_21  and  C_22
REMARK   10  A    between atoms: C_22  and  C_23
REMARK                            x       y       z     vdW  Elec       q    Type
REMARK                         _______ _______ _______ _____ _____    ______ ____
ROOT
ATOM      1  C   UNL     1       2.533   7.335  18.988  0.00  0.00    +0.000 A 
ATOM      2  C   UNL     1       2.380   8.196  17.890  0.00  0.00    +0.000 A 
ATOM      3  C   UNL     1       1.654   9.379  18.017  0.00  0.00    +0.000 A 
ATOM      4  C   UNL     1       1.060   9.691  19.237  0.00  0.00    +0.000 A 
ATOM      5  C   UNL     1       1.173   8.822  20.328  0.00  0.00    +0.000 A 
ATOM      6  C   UNL     1       1.908   7.641  20.204  0.00  0.00    +0.000 A 
ENDROOT
BRANCH   4   7
ATOM      7  N   UNL     1       0.319  10.879  19.361  0.00  0.00    +0.000 N 
ATOM      8  N   UNL     1       1.001  11.898  19.986  0.00  0.00    +0.000 NA
ATOM      9  C   UNL     1       0.329  12.969  20.251  0.00  0.00    +0.000 A 
ATOM     10  C   UNL     1      -1.077  13.187  19.904  0.00  0.00    +0.000 A 
ATOM     11  C   UNL     1      -1.719  12.182  19.307  0.00  0.00    +0.000 A 
ATOM     12  C   UNL     1      -1.024  10.911  19.015  0.00  0.00    +0.000 A 
ATOM     13  O   UNL     1      -1.668  10.003  18.492  0.00  0.00    +0.000 OA
BRANCH   9  14
ATOM     14  O   UNL     1       0.971  13.967  20.895  0.00  0.00    +0.000 OA
BRANCH  14  15
ATOM     15  C   UNL     1       1.258  15.201  20.220  0.00  0.00    +0.000 C 
BRANCH  15  16
ATOM     16  C   UNL     1       2.610  15.185  19.554  0.00  0.00    +0.000 A 
ATOM     17  C   UNL     1       3.746  14.933  20.341  0.00  0.00    +0.000 A 
ATOM     18  C   UNL     1       5.009  14.861  19.758  0.00  0.00    +0.000 A 
ATOM     19  C   UNL     1       5.145  15.030  18.381  0.00  0.00    +0.000 A 
ATOM     20 CL   UNL     1       6.706  14.943  17.663  0.00  0.00    +0.000 Cl
ATOM     21  C   UNL     1       4.026  15.263  17.586  0.00  0.00    +0.000 A 
ATOM     22  C   UNL     1       2.759  15.335  18.169  0.00  0.00    +0.000 A 
ENDBRANCH  15  16
ENDBRANCH  14  15
ENDBRANCH   9  14
ENDBRANCH   4   7
BRANCH   1  24
ATOM     23  N   UNL     1       3.116   5.364  17.668  0.00  0.00    +0.000 N 
ATOM     24  C   UNL     1       3.376   6.122  18.791  0.00  0.00    +0.000 C 
ATOM     25  O   UNL     1       4.207   5.851  19.649  0.00  0.00    +0.000 OA
ATOM     26  H   UNL     1       2.388   5.685  17.048  0.00  0.00    +0.000 HD
BRANCH  23  28
ATOM     27  C   UNL     1       2.769   2.914  17.142  0.00  0.00    +0.000 C 
ATOM     28  C   UNL     1       3.739   4.088  17.306  0.00  0.00    +0.000 C 
BRANCH  28  29
ATOM     29  C   UNL     1       4.584   4.226  16.021  0.00  0.00    +0.000 C 
BRANCH  29  30
ATOM     30  C   UNL     1       6.082   3.966  16.224  0.00  0.00    +0.000 C 
BRANCH  30  31
ATOM     31  C   UNL     1       6.729   5.047  17.059  0.00  0.00    +0.000 A 
ATOM     32  C   UNL     1       6.674   6.388  16.644  0.00  0.00    +0.000 A 
ATOM     33  C   UNL     1       7.290   7.388  17.396  0.00  0.00    +0.000 A 
ATOM     34  C   UNL     1       7.969   7.062  18.569  0.00  0.00    +0.000 A 
ATOM     35  C   UNL     1       8.033   5.735  18.990  0.00  0.00    +0.000 A 
ATOM     36  C   UNL     1       7.417   4.731  18.238  0.00  0.00    +0.000 A 
ENDBRANCH  30  31
ENDBRANCH  29  30
ENDBRANCH  28  29
ENDBRANCH  23  28
ENDBRANCH   1  24
TORSDOF 9
ENDMDL
MODEL 5
REMARK VINA RESULT:      -8.6      3.944      9.331
REMARK  Name = 
REMARK  10 active torsions:
REMARK  status: ('A' for Active; 'I' for Inactive)
REMARK    1  A    between atoms: C_1  and  C_2
REMARK    2  A    between atoms: C_2  and  C_3
REMARK    3  A    between atoms: C_2  and  N_11
REMARK    4  A    between atoms: C_3  and  C_4
REMARK    5  A    between atoms: C_4  and  C_5
REMARK    6  A    between atoms: C_12  and  C_14
REMARK    7  A    between atoms: C_17  and  N_18
REMARK    8  A    between atoms: C_20  and  O_21
REMARK    9  A    between atoms: O_21  and  C_22
REMARK   10  A    between atoms: C_22  and  C_23
REMARK                            x       y       z     vdW  Elec       q    Type
REMARK                         _______ _______ _______ _____ _____    ______ ____
ROOT
ATOM      1  C   UNL     1       2.396   7.177  19.114  0.00  0.00    +0.000 A 
ATOM      2  C   UNL     1       2.377   7.854  17.884  0.00  0.00    +0.000 A 
ATOM      3  C   UNL     1       1.790   9.114  17.781  0.00  0.00    +0.000 A 
ATOM      4  C   UNL     1       1.201   9.689  18.904  0.00  0.00    +0.000 A 
ATOM      5  C   UNL     1       1.180   9.007  20.127  0.00  0.00    +0.000 A 
ATOM      6  C   UNL     1       1.776   7.749  20.232  0.00  0.00    +0.000 A 
ENDROOT
BRANCH   4   7
ATOM      7  N   UNL     1       0.599  10.955  18.798  0.00  0.00    +0.000 N 
ATOM      8  N   UNL     1       1.412  11.993  19.194  0.00  0.00    +0.000 NA
ATOM      9  C   UNL     1       0.871  13.165  19.248  0.00  0.00    +0.000 A 
ATOM     10  C   UNL     1      -0.513  13.470  18.885  0.00  0.00    +0.000 A 
ATOM     11  C   UNL     1      -1.284  12.446  18.511  0.00  0.00    +0.000 A 
ATOM     12  C   UNL     1      -0.744  11.071  18.472  0.00  0.00    +0.000 A 
ATOM     13  O   UNL     1      -1.503  10.158  18.151  0.00  0.00    +0.000 OA
BRANCH   9  14
ATOM     14  O   UNL     1       1.643  14.190  19.667  0.00  0.00    +0.000 OA
BRANCH  14  15
ATOM     15  C   UNL     1       2.353  15.001  18.719  0.00  0.00    +0.000 C 
BRANCH  15  16
ATOM     16  C   UNL     1       3.843  14.967  18.945  0.00  0.00    +0.000 A 
ATOM     17  C   UNL     1       4.692  14.890  17.829  0.00  0.00    +0.000 A 
ATOM     18  C   UNL     1       6.076  14.905  17.990  0.00  0.00    +0.000 A 
ATOM     19  C   UNL     1       6.621  15.009  19.268  0.00  0.00    +0.000 A 
ATOM     20 CL   UNL     1       8.330  15.025  19.466  0.00  0.00    +0.000 Cl
ATOM     21  C   UNL     1       5.792  15.104  20.383  0.00  0.00    +0.000 A 
ATOM     22  C   UNL     1       4.405  15.090  20.222  0.00  0.00    +0.000 A 
ENDBRANCH  15  16
ENDBRANCH  14  15
ENDBRANCH   9  14
ENDBRANCH   4   7
BRANCH   1  24
ATOM     23  N   UNL     1       2.885   5.012  18.094  0.00  0.00    +0.000 N 
ATOM     24  C   UNL     1       3.099   5.863  19.158  0.00  0.00    +0.000 C 
ATOM     25  O   UNL     1       3.777   5.605  20.144  0.00  0.00    +0.000 OA
ATOM     26  H   UNL     1       2.284   5.337  17.351  0.00  0.00    +0.000 HD
BRANCH  23  28
ATOM     27  C   UNL     1       2.342   2.616  17.490  0.00  0.00    +0.000 C 
ATOM     28  C   UNL     1       3.382   3.640  17.952  0.00  0.00    +0.000 C 
BRANCH  28  29
ATOM     29  C   UNL     1       4.599   3.585  17.003  0.00  0.00    +0.000 C 
BRANCH  29  30
ATOM     30  C   UNL     1       4.961   4.934  16.369  0.00  0.00    +0.000 C 
BRANCH  30  31
ATOM     31  C   UNL     1       6.068   5.629  17.127  0.00  0.00    +0.000 A 
ATOM     32  C   UNL     1       6.742   4.961  18.163  0.00  0.00    +0.000 A 
ATOM     33  C   UNL     1       7.749   5.605  18.883  0.00  0.00    +0.000 A 
ATOM     34  C   UNL     1       8.093   6.921  18.580  0.00  0.00    +0.000 A 
ATOM     35  C   UNL     1       7.430   7.595  17.556  0.00  0.00    +0.000 A 
ATOM     36  C   UNL     1       6.421   6.952  16.833  0.00  0.00    +0.000 A 
ENDBRANCH  30  31
ENDBRANCH  29  30
ENDBRANCH  28  29
ENDBRANCH  23  28
ENDBRANCH   1  24
TORSDOF 9
ENDMDL
MODEL 6
REMARK VINA RESULT:      -8.6      3.560      9.203
REMARK  Name = 
REMARK  10 active torsions:
REMARK  status: ('A' for Active; 'I' for Inactive)
REMARK    1  A    between atoms: C_1  and  C_2
REMARK    2  A    between atoms: C_2  and  C_3
REMARK    3  A    between atoms: C_2  and  N_11
REMARK    4  A    between atoms: C_3  and  C_4
REMARK    5  A    between atoms: C_4  and  C_5
REMARK    6  A    between atoms: C_12  and  C_14
REMARK    7  A    between atoms: C_17  and  N_18
REMARK    8  A    between atoms: C_20  and  O_21
REMARK    9  A    between atoms: O_21  and  C_22
REMARK   10  A    between atoms: C_22  and  C_23
REMARK                            x       y       z     vdW  Elec       q    Type
REMARK                         _______ _______ _______ _____ _____    ______ ____
ROOT
ATOM      1  C   UNL     1       2.488   7.535  18.956  0.00  0.00    +0.000 A 
ATOM      2  C   UNL     1       2.329   8.393  17.855  0.00  0.00    +0.000 A 
ATOM      3  C   UNL     1       1.573   9.558  17.973  0.00  0.00    +0.000 A 
ATOM      4  C   UNL     1       0.956   9.856  19.186  0.00  0.00    +0.000 A 
ATOM      5  C   UNL     1       1.077   8.989  20.279  0.00  0.00    +0.000 A 
ATOM      6  C   UNL     1       1.841   7.826  20.164  0.00  0.00    +0.000 A 
ENDROOT
BRANCH   4   7
ATOM      7  N   UNL     1       0.185  11.025  19.301  0.00  0.00    +0.000 N 
ATOM      8  N   UNL     1       0.842  12.066  19.916  0.00  0.00    +0.000 NA
ATOM      9  C   UNL     1       0.143  13.122  20.173  0.00  0.00    +0.000 A 
ATOM     10  C   UNL     1      -1.268  13.302  19.825  0.00  0.00    +0.000 A 
ATOM     11  C   UNL     1      -1.884  12.275  19.236  0.00  0.00    +0.000 A 
ATOM     12  C   UNL     1      -1.158  11.020  18.954  0.00  0.00    +0.000 A 
ATOM     13  O   UNL     1      -1.779  10.092  18.439  0.00  0.00    +0.000 OA
BRANCH   9  14
ATOM     14  O   UNL     1       0.760  14.141  20.808  0.00  0.00    +0.000 OA
BRANCH  14  15
ATOM     15  C   UNL     1       1.090  15.346  20.100  0.00  0.00    +0.000 C 
BRANCH  15  16
ATOM     16  C   UNL     1       2.462  15.282  19.479  0.00  0.00    +0.000 A 
ATOM     17  C   UNL     1       3.569  15.050  20.311  0.00  0.00    +0.000 A 
ATOM     18  C   UNL     1       4.849  14.936  19.772  0.00  0.00    +0.000 A 
ATOM     19  C   UNL     1       5.030  15.043  18.395  0.00  0.00    +0.000 A 
ATOM     20 CL   UNL     1       6.611  14.904  17.731  0.00  0.00    +0.000 Cl
ATOM     21  C   UNL     1       3.940  15.256  17.555  0.00  0.00    +0.000 A 
ATOM     22  C   UNL     1       2.656  15.369  18.094  0.00  0.00    +0.000 A 
ENDBRANCH  15  16
ENDBRANCH  14  15
ENDBRANCH   9  14
ENDBRANCH   4   7
BRANCH   1  24
ATOM     23  N   UNL     1       3.682   6.007  17.470  0.00  0.00    +0.000 N 
ATOM     24  C   UNL     1       3.363   6.342  18.770  0.00  0.00    +0.000 C 
ATOM     25  O   UNL     1       3.704   5.716  19.766  0.00  0.00    +0.000 OA
ATOM     26  H   UNL     1       3.319   6.594  16.735  0.00  0.00    +0.000 HD
BRANCH  23  28
ATOM     27  C   UNL     1       5.639   4.465  17.906  0.00  0.00    +0.000 C 
ATOM     28  C   UNL     1       4.441   4.834  17.027  0.00  0.00    +0.000 C 
BRANCH  28  29
ATOM     29  C   UNL     1       3.523   3.600  16.883  0.00  0.00    +0.000 C 
BRANCH  29  30
ATOM     30  C   UNL     1       3.781   2.502  17.922  0.00  0.00    +0.000 C 
BRANCH  30  31
ATOM     31  C   UNL     1       2.900   2.665  19.139  0.00  0.00    +0.000 A 
ATOM     32  C   UNL     1       3.424   2.448  20.424  0.00  0.00    +0.000 A 
ATOM     33  C   UNL     1       2.611   2.573  21.550  0.00  0.00    +0.000 A 
ATOM     34  C   UNL     1       1.267   2.914  21.408  0.00  0.00    +0.000 A 
ATOM     35  C   UNL     1       0.734   3.128  20.138  0.00  0.00    +0.000 A 
ATOM     36  C   UNL     1       1.547   3.004  19.008  0.00  0.00    +0.000 A 
ENDBRANCH  30  31
ENDBRANCH  29  30
ENDBRANCH  28  29
ENDBRANCH  23  28
ENDBRANCH   1  24
TORSDOF 9
ENDMDL
MODEL 7
REMARK VINA RESULT:      -8.5      1.342      1.726
REMARK  Name = 
REMARK  10 active torsions:
REMARK  status: ('A' for Active; 'I' for Inactive)
REMARK    1  A    between atoms: C_1  and  C_2
REMARK    2  A    between atoms: C_2  and  C_3
REMARK    3  A    between atoms: C_2  and  N_11
REMARK    4  A    between atoms: C_3  and  C_4
REMARK    5  A    between atoms: C_4  and  C_5
REMARK    6  A    between atoms: C_12  and  C_14
REMARK    7  A    between atoms: C_17  and  N_18
REMARK    8  A    between atoms: C_20  and  O_21
REMARK    9  A    between atoms: O_21  and  C_22
REMARK   10  A    between atoms: C_22  and  C_23
REMARK                            x       y       z     vdW  Elec       q    Type
REMARK                         _______ _______ _______ _____ _____    ______ ____
ROOT
ATOM      1  C   UNL     1       1.208   9.158  20.103  0.00  0.00    +0.000 A 
ATOM      2  C   UNL     1       1.110   8.268  21.186  0.00  0.00    +0.000 A 
ATOM      3  C   UNL     1       1.643   6.984  21.094  0.00  0.00    +0.000 A 
ATOM      4  C   UNL     1       2.255   6.579  19.910  0.00  0.00    +0.000 A 
ATOM      5  C   UNL     1       2.324   7.444  18.811  0.00  0.00    +0.000 A 
ATOM      6  C   UNL     1       1.798   8.734  18.906  0.00  0.00    +0.000 A 
ENDROOT
BRANCH   4   7
ATOM      7  N   UNL     1       2.783   5.280  19.814  0.00  0.00    +0.000 N 
ATOM      8  N   UNL     1       4.115   5.244  19.471  0.00  0.00    +0.000 NA
ATOM      9  C   UNL     1       4.622   4.080  19.234  0.00  0.00    +0.000 A 
ATOM     10  C   UNL     1       3.901   2.811  19.342  0.00  0.00    +0.000 A 
ATOM     11  C   UNL     1       2.609   2.872  19.668  0.00  0.00    +0.000 A 
ATOM     12  C   UNL     1       1.952   4.174  19.907  0.00  0.00    +0.000 A 
ATOM     13  O   UNL     1       0.751   4.178  20.173  0.00  0.00    +0.000 OA
BRANCH   9  14
ATOM     14  O   UNL     1       5.920   4.028  18.863  0.00  0.00    +0.000 OA
BRANCH  14  15
ATOM     15  C   UNL     1       6.479   5.051  18.025  0.00  0.00    +0.000 C 
BRANCH  15  16
ATOM     16  C   UNL     1       6.357   4.716  16.561  0.00  0.00    +0.000 A 
ATOM     17  C   UNL     1       7.402   5.082  15.697  0.00  0.00    +0.000 A 
ATOM     18  C   UNL     1       7.352   4.749  14.344  0.00  0.00    +0.000 A 
ATOM     19  C   UNL     1       6.260   4.038  13.849  0.00  0.00    +0.000 A 
ATOM     20 CL   UNL     1       6.199   3.631  12.178  0.00  0.00    +0.000 Cl
ATOM     21  C   UNL     1       5.225   3.654  14.696  0.00  0.00    +0.000 A 
ATOM     22  C   UNL     1       5.275   3.986  16.052  0.00  0.00    +0.000 A 
ENDBRANCH  15  16
ENDBRANCH  14  15
ENDBRANCH   9  14
ENDBRANCH   4   7
BRANCH   1  24
ATOM     23  N   UNL     1       1.183  11.521  19.484  0.00  0.00    +0.000 N 
ATOM     24  C   UNL     1       0.670  10.534  20.301  0.00  0.00    +0.000 C 
ATOM     25  O   UNL     1      -0.149  10.711  21.194  0.00  0.00    +0.000 OA
ATOM     26  H   UNL     1       1.872  11.248  18.800  0.00  0.00    +0.000 HD
BRANCH  23  28
ATOM     27  C   UNL     1       2.078  13.877  19.271  0.00  0.00    +0.000 C 
ATOM     28  C   UNL     1       0.888  12.955  19.548  0.00  0.00    +0.000 C 
BRANCH  28  29
ATOM     29  C   UNL     1      -0.270  13.327  18.596  0.00  0.00    +0.000 C 
BRANCH  29  30
ATOM     30  C   UNL     1      -1.664  12.996  19.145  0.00  0.00    +0.000 C 
BRANCH  30  31
ATOM     31  C   UNL     1      -2.306  11.857  18.388  0.00  0.00    +0.000 A 
ATOM     32  C   UNL     1      -3.690  11.639  18.480  0.00  0.00    +0.000 A 
ATOM     33  C   UNL     1      -4.287  10.575  17.804  0.00  0.00    +0.000 A 
ATOM     34  C   UNL     1      -3.510   9.714  17.030  0.00  0.00    +0.000 A 
ATOM     35  C   UNL     1      -2.134   9.918  16.933  0.00  0.00    +0.000 A 
ATOM     36  C   UNL     1      -1.535  10.984  17.610  0.00  0.00    +0.000 A 
ENDBRANCH  30  31
ENDBRANCH  29  30
ENDBRANCH  28  29
ENDBRANCH  23  28
ENDBRANCH   1  24
TORSDOF 9
ENDMDL
MODEL 8
REMARK VINA RESULT:      -8.5      4.100     10.771
REMARK  Name = 
REMARK  10 active torsions:
REMARK  status: ('A' for Active; 'I' for Inactive)
REMARK    1  A    between atoms: C_1  and  C_2
REMARK    2  A    between atoms: C_2  and  C_3
REMARK    3  A    between atoms: C_2  and  N_11
REMARK    4  A    between atoms: C_3  and  C_4
REMARK    5  A    between atoms: C_4  and  C_5
REMARK    6  A    between atoms: C_12  and  C_14
REMARK    7  A    between atoms: C_17  and  N_18
REMARK    8  A    between atoms: C_20  and  O_21
REMARK    9  A    between atoms: O_21  and  C_22
REMARK   10  A    between atoms: C_22  and  C_23
REMARK                            x       y       z     vdW  Elec       q    Type
REMARK                         _______ _______ _______ _____ _____    ______ ____
ROOT
ATOM      1  C   UNL     1       2.220   6.808  19.576  0.00  0.00    +0.000 A 
ATOM      2  C   UNL     1       1.703   7.381  20.749  0.00  0.00    +0.000 A 
ATOM      3  C   UNL     1       1.205   8.682  20.739  0.00  0.00    +0.000 A 
ATOM      4  C   UNL     1       1.246   9.423  19.560  0.00  0.00    +0.000 A 
ATOM      5  C   UNL     1       1.795   8.876  18.393  0.00  0.00    +0.000 A 
ATOM      6  C   UNL     1       2.285   7.568  18.401  0.00  0.00    +0.000 A 
ENDROOT
BRANCH   4   7
ATOM      7  N   UNL     1       0.755  10.739  19.552  0.00  0.00    +0.000 N 
ATOM      8  N   UNL     1      -0.402  10.906  20.279  0.00  0.00    +0.000 NA
ATOM      9  C   UNL     1      -0.976  12.060  20.200  0.00  0.00    +0.000 A 
ATOM     10  C   UNL     1      -0.469  13.200  19.434  0.00  0.00    +0.000 A 
ATOM     11  C   UNL     1       0.649  13.012  18.731  0.00  0.00    +0.000 A 
ATOM     12  C   UNL     1       1.333  11.702  18.739  0.00  0.00    +0.000 A 
ATOM     13  O   UNL     1       2.343  11.570  18.049  0.00  0.00    +0.000 OA
BRANCH   9  14
ATOM     14  O   UNL     1      -2.130  12.232  20.879  0.00  0.00    +0.000 OA
BRANCH  14  15
ATOM     15  C   UNL     1      -2.115  12.433  22.300  0.00  0.00    +0.000 C 
BRANCH  15  16
ATOM     16  C   UNL     1      -3.494  12.689  22.853  0.00  0.00    +0.000 A 
ATOM     17  C   UNL     1      -4.473  13.224  22.000  0.00  0.00    +0.000 A 
ATOM     18  C   UNL     1      -5.773  13.431  22.457  0.00  0.00    +0.000 A 
ATOM     19  C   UNL     1      -6.106  13.094  23.768  0.00  0.00    +0.000 A 
ATOM     20 CL   UNL     1      -7.711  13.352  24.331  0.00  0.00    +0.000 Cl
ATOM     21  C   UNL     1      -5.150  12.546  24.620  0.00  0.00    +0.000 A 
ATOM     22  C   UNL     1      -3.847  12.338  24.162  0.00  0.00    +0.000 A 
ENDBRANCH  15  16
ENDBRANCH  14  15
ENDBRANCH   9  14
ENDBRANCH   4   7
BRANCH   1  24
ATOM     23  N   UNL     1       2.945   4.763  18.453  0.00  0.00    +0.000 N 
ATOM     24  C   UNL     1       2.674   5.390  19.652  0.00  0.00    +0.000 C 
ATOM     25  O   UNL     1       2.735   4.862  20.755  0.00  0.00    +0.000 OA
ATOM     26  H   UNL     1       2.834   5.304  17.609  0.00  0.00    +0.000 HD
BRANCH  23  28
ATOM     27  C   UNL     1       2.160   2.437  17.843  0.00  0.00    +0.000 C 
ATOM     28  C   UNL     1       3.311   3.357  18.260  0.00  0.00    +0.000 C 
BRANCH  28  29
ATOM     29  C   UNL     1       4.463   3.217  17.241  0.00  0.00    +0.000 C 
BRANCH  29  30
ATOM     30  C   UNL     1       4.761   4.498  16.451  0.00  0.00    +0.000 C 
BRANCH  30  31
ATOM     31  C   UNL     1       5.856   5.312  17.100  0.00  0.00    +0.000 A 
ATOM     32  C   UNL     1       6.718   4.719  18.036  0.00  0.00    +0.000 A 
ATOM     33  C   UNL     1       7.716   5.471  18.656  0.00  0.00    +0.000 A 
ATOM     34  C   UNL     1       7.863   6.823  18.352  0.00  0.00    +0.000 A 
ATOM     35  C   UNL     1       7.011   7.425  17.427  0.00  0.00    +0.000 A 
ATOM     36  C   UNL     1       6.011   6.673  16.804  0.00  0.00    +0.000 A 
ENDBRANCH  30  31
ENDBRANCH  29  30
ENDBRANCH  28  29
ENDBRANCH  23  28
ENDBRANCH   1  24
TORSDOF 9
ENDMDL
MODEL 9
REMARK VINA RESULT:      -8.4      3.267     10.293
REMARK  Name = 
REMARK  10 active torsions:
REMARK  status: ('A' for Active; 'I' for Inactive)
REMARK    1  A    between atoms: C_1  and  C_2
REMARK    2  A    between atoms: C_2  and  C_3
REMARK    3  A    between atoms: C_2  and  N_11
REMARK    4  A    between atoms: C_3  and  C_4
REMARK    5  A    between atoms: C_4  and  C_5
REMARK    6  A    between atoms: C_12  and  C_14
REMARK    7  A    between atoms: C_17  and  N_18
REMARK    8  A    between atoms: C_20  and  O_21
REMARK    9  A    between atoms: O_21  and  C_22
REMARK   10  A    between atoms: C_22  and  C_23
REMARK                            x       y       z     vdW  Elec       q    Type
REMARK                         _______ _______ _______ _____ _____    ______ ____
ROOT
ATOM      1  C   UNL     1       2.514   6.664  19.316  0.00  0.00    +0.000 A 
ATOM      2  C   UNL     1       1.878   6.832  20.557  0.00  0.00    +0.000 A 
ATOM      3  C   UNL     1       1.145   7.986  20.822  0.00  0.00    +0.000 A 
ATOM      4  C   UNL     1       1.066   8.987  19.857  0.00  0.00    +0.000 A 
ATOM      5  C   UNL     1       1.728   8.847  18.631  0.00  0.00    +0.000 A 
ATOM      6  C   UNL     1       2.455   7.686  18.360  0.00  0.00    +0.000 A 
ENDROOT
BRANCH   4   7
ATOM      7  N   UNL     1       0.336  10.156  20.129  0.00  0.00    +0.000 N 
ATOM      8  N   UNL     1      -0.394  10.619  19.059  0.00  0.00    +0.000 NA
ATOM      9  C   UNL     1      -0.977  11.762  19.205  0.00  0.00    +0.000 A 
ATOM     10  C   UNL     1      -0.950  12.570  20.426  0.00  0.00    +0.000 A 
ATOM     11  C   UNL     1      -0.229  12.105  21.447  0.00  0.00    +0.000 A 
ATOM     12  C   UNL     1       0.503  10.825  21.333  0.00  0.00    +0.000 A 
ATOM     13  O   UNL     1       1.179  10.455  22.291  0.00  0.00    +0.000 OA
BRANCH   9  14
ATOM     14  O   UNL     1      -1.671  12.250  18.154  0.00  0.00    +0.000 OA
BRANCH  14  15
ATOM     15  C   UNL     1      -2.692  11.459  17.527  0.00  0.00    +0.000 C 
BRANCH  15  16
ATOM     16  C   UNL     1      -3.993  11.507  18.285  0.00  0.00    +0.000 A 
ATOM     17  C   UNL     1      -5.016  10.613  17.926  0.00  0.00    +0.000 A 
ATOM     18  C   UNL     1      -6.217  10.590  18.633  0.00  0.00    +0.000 A 
ATOM     19  C   UNL     1      -6.400  11.454  19.710  0.00  0.00    +0.000 A 
ATOM     20 CL   UNL     1      -7.885  11.427  20.579  0.00  0.00    +0.000 Cl
ATOM     21  C   UNL     1      -5.390  12.335  20.088  0.00  0.00    +0.000 A 
ATOM     22  C   UNL     1      -4.185  12.357  19.381  0.00  0.00    +0.000 A 
ENDBRANCH  15  16
ENDBRANCH  14  15
ENDBRANCH   9  14
ENDBRANCH   4   7
BRANCH   1  24
ATOM     23  N   UNL     1       3.635   5.120  17.790  0.00  0.00    +0.000 N 
ATOM     24  C   UNL     1       3.225   5.374  19.083  0.00  0.00    +0.000 C 
ATOM     25  O   UNL     1       3.361   4.611  20.031  0.00  0.00    +0.000 OA
ATOM     26  H   UNL     1       3.443   5.823  17.094  0.00  0.00    +0.000 HD
BRANCH  23  28
ATOM     27  C   UNL     1       3.349   2.665  17.251  0.00  0.00    +0.000 C 
ATOM     28  C   UNL     1       4.264   3.892  17.294  0.00  0.00    +0.000 C 
BRANCH  28  29
ATOM     29  C   UNL     1       4.881   4.110  15.896  0.00  0.00    +0.000 C 
BRANCH  29  30
ATOM     30  C   UNL     1       6.415   4.126  15.883  0.00  0.00    +0.000 C 
BRANCH  30  31
ATOM     31  C   UNL     1       6.972   5.118  16.876  0.00  0.00    +0.000 A 
ATOM     32  C   UNL     1       6.928   6.494  16.601  0.00  0.00    +0.000 A 
ATOM     33  C   UNL     1       7.462   7.415  17.503  0.00  0.00    +0.000 A 
ATOM     34  C   UNL     1       8.049   6.973  18.687  0.00  0.00    +0.000 A 
ATOM     35  C   UNL     1       8.103   5.609  18.971  0.00  0.00    +0.000 A 
ATOM     36  C   UNL     1       7.568   4.686  18.069  0.00  0.00    +0.000 A 
ENDBRANCH  30  31
ENDBRANCH  29  30
ENDBRANCH  28  29
ENDBRANCH  23  28
ENDBRANCH   1  24
TORSDOF 9
ENDMDL
