MODEL 1
REMARK VINA RESULT:      -7.2      0.000      0.000
REMARK  Name = 
REMARK  9 active torsions:
REMARK  status: ('A' for Active; 'I' for Inactive)
REMARK    1  A    between atoms: C_1  and  O_2
REMARK    2  A    between atoms: O_2  and  C_3
REMARK    3  A    between atoms: C_5  and  C_6
REMARK    4  A    between atoms: C_9  and  C_10
REMARK    5  A    between atoms: N_17  and  C_18
REMARK    6  A    between atoms: C_22  and  O_23
REMARK    7  A    between atoms: O_23  and  C_24
REMARK    8  A    between atoms: C_25  and  O_26
REMARK    9  A    between atoms: O_26  and  C_27
REMARK                            x       y       z     vdW  Elec       q    Type
REMARK                         _______ _______ _______ _____ _____    ______ ____
ROOT
ATOM      1  C   UNL     1       1.437   9.032  18.051  0.00  0.00    +0.000 C 
ATOM      2  C   UNL     1       2.137  10.373  17.902  0.00  0.00    +0.000 C 
ATOM      3  N   UNL     1       1.789  11.144  19.109  0.00  0.00    +0.000 NA
ATOM      4  C   UNL     1       0.831  10.460  19.643  0.00  0.00    +0.000 C 
ATOM      5  O   UNL     1       0.488   9.260  19.096  0.00  0.00    +0.000 OA
ENDROOT
BRANCH   4   6
ATOM      6  C   UNL     1       0.023  10.802  20.829  0.00  0.00    +0.000 A 
ATOM      7  C   UNL     1       0.199  10.018  21.992  0.00  0.00    +0.000 A 
ATOM      8  C   UNL     1      -0.563  10.221  23.137  0.00  0.00    +0.000 A 
ATOM      9  C   UNL     1      -1.551  11.197  23.149  0.00  0.00    +0.000 A 
ATOM     10  C   UNL     1      -1.755  12.008  22.014  0.00  0.00    +0.000 A 
ATOM     11  C   UNL     1      -2.697  13.035  21.746  0.00  0.00    +0.000 A 
ATOM     12  C   UNL     1      -2.437  13.510  20.486  0.00  0.00    +0.000 A 
ATOM     13  N   UNL     1      -1.350  12.831  19.988  0.00  0.00    +0.000 N 
ATOM     14  C   UNL     1      -0.723  13.218  18.743  0.00  0.00    +0.000 C 
ATOM     15  C   UNL     1      -0.945  11.839  20.870  0.00  0.00    +0.000 A 
ENDBRANCH   4   6
BRANCH   1  18
ATOM     16  C   UNL     1       2.854   5.923  19.789  0.00  0.00    +0.000 A 
ATOM     17  C   UNL     1       2.093   7.075  19.529  0.00  0.00    +0.000 A 
ATOM     18  C   UNL     1       2.349   7.884  18.422  0.00  0.00    +0.000 A 
ATOM     19  C   UNL     1       3.465   7.578  17.639  0.00  0.00    +0.000 A 
ATOM     20  C   UNL     1       4.313   6.497  17.948  0.00  0.00    +0.000 A 
ATOM     21  C   UNL     1       4.015   5.648  19.037  0.00  0.00    +0.000 A 
BRANCH  16  23
ATOM     22  C   UNL     1       1.212   4.384  20.499  0.00  0.00    +0.000 C 
ATOM     23  O   UNL     1       2.442   5.061  20.777  0.00  0.00    +0.000 OA
ENDBRANCH  16  23
BRANCH  20  24
ATOM     24  O   UNL     1       5.352   6.418  17.052  0.00  0.00    +0.000 OA
ATOM     25  C   UNL     1       5.196   5.662  15.861  0.00  0.00    +0.000 C 
ENDBRANCH  20  24
BRANCH  21  26
ATOM     26  O   UNL     1       4.866   4.595  19.223  0.00  0.00    +0.000 OA
ATOM     27  C   UNL     1       4.507   3.278  18.847  0.00  0.00    +0.000 C 
ENDBRANCH  21  26
ENDBRANCH   1  18
TORSDOF 5
ENDMDL
MODEL 2
REMARK VINA RESULT:      -7.2      0.138      2.368
REMARK  Name = 
REMARK  9 active torsions:
REMARK  status: ('A' for Active; 'I' for Inactive)
REMARK    1  A    between atoms: C_1  and  O_2
REMARK    2  A    between atoms: O_2  and  C_3
REMARK    3  A    between atoms: C_5  and  C_6
REMARK    4  A    between atoms: C_9  and  C_10
REMARK    5  A    between atoms: N_17  and  C_18
REMARK    6  A    between atoms: C_22  and  O_23
REMARK    7  A    between atoms: O_23  and  C_24
REMARK    8  A    between atoms: C_25  and  O_26
REMARK    9  A    between atoms: O_26  and  C_27
REMARK                            x       y       z     vdW  Elec       q    Type
REMARK                         _______ _______ _______ _____ _____    ______ ____
ROOT
ATOM      1  C   UNL     1       1.421   9.120  17.956  0.00  0.00    +0.000 C 
ATOM      2  C   UNL     1       2.165  10.444  17.887  0.00  0.00    +0.000 C 
ATOM      3  N   UNL     1       1.838  11.154  19.135  0.00  0.00    +0.000 NA
ATOM      4  C   UNL     1       0.856  10.473  19.627  0.00  0.00    +0.000 C 
ATOM      5  O   UNL     1       0.475   9.319  19.011  0.00  0.00    +0.000 OA
ENDROOT
BRANCH   4   6
ATOM      6  C   UNL     1       0.056  10.772  20.830  0.00  0.00    +0.000 A 
ATOM      7  C   UNL     1       0.259   9.965  21.972  0.00  0.00    +0.000 A 
ATOM      8  C   UNL     1      -0.492  10.127  23.129  0.00  0.00    +0.000 A 
ATOM      9  C   UNL     1      -1.499  11.083  23.176  0.00  0.00    +0.000 A 
ATOM     10  C   UNL     1      -1.731  11.916  22.062  0.00  0.00    +0.000 A 
ATOM     11  C   UNL     1      -2.696  12.931  21.828  0.00  0.00    +0.000 A 
ATOM     12  C   UNL     1      -2.459  13.439  20.577  0.00  0.00    +0.000 A 
ATOM     13  N   UNL     1      -1.365  12.794  20.051  0.00  0.00    +0.000 N 
ATOM     14  C   UNL     1      -0.759  13.221  18.809  0.00  0.00    +0.000 C 
ATOM     15  C   UNL     1      -0.932  11.789  20.905  0.00  0.00    +0.000 A 
ENDBRANCH   4   6
BRANCH   1  18
ATOM     16  C   UNL     1       4.304   6.596  17.854  0.00  0.00    +0.000 A 
ATOM     17  C   UNL     1       3.412   7.618  17.487  0.00  0.00    +0.000 A 
ATOM     18  C   UNL     1       2.293   7.923  18.260  0.00  0.00    +0.000 A 
ATOM     19  C   UNL     1       2.018   7.101  19.355  0.00  0.00    +0.000 A 
ATOM     20  C   UNL     1       2.830   5.997  19.676  0.00  0.00    +0.000 A 
ATOM     21  C   UNL     1       3.995   5.729  18.922  0.00  0.00    +0.000 A 
BRANCH  16  23
ATOM     22  C   UNL     1       5.371   5.785  15.913  0.00  0.00    +0.000 C 
ATOM     23  O   UNL     1       5.486   6.464  17.167  0.00  0.00    +0.000 OA
ENDBRANCH  16  23
BRANCH  20  24
ATOM     24  O   UNL     1       2.340   5.329  20.773  0.00  0.00    +0.000 OA
ATOM     25  C   UNL     1       1.312   4.365  20.606  0.00  0.00    +0.000 C 
ENDBRANCH  20  24
BRANCH  21  26
ATOM     26  O   UNL     1       4.748   4.668  19.344  0.00  0.00    +0.000 OA
ATOM     27  C   UNL     1       4.518   3.358  18.860  0.00  0.00    +0.000 C 
ENDBRANCH  21  26
ENDBRANCH   1  18
TORSDOF 5
ENDMDL
MODEL 3
REMARK VINA RESULT:      -7.1      2.124      3.803
REMARK  Name = 
REMARK  9 active torsions:
REMARK  status: ('A' for Active; 'I' for Inactive)
REMARK    1  A    between atoms: C_1  and  O_2
REMARK    2  A    between atoms: O_2  and  C_3
REMARK    3  A    between atoms: C_5  and  C_6
REMARK    4  A    between atoms: C_9  and  C_10
REMARK    5  A    between atoms: N_17  and  C_18
REMARK    6  A    between atoms: C_22  and  O_23
REMARK    7  A    between atoms: O_23  and  C_24
REMARK    8  A    between atoms: C_25  and  O_26
REMARK    9  A    between atoms: O_26  and  C_27
REMARK                            x       y       z     vdW  Elec       q    Type
REMARK                         _______ _______ _______ _____ _____    ______ ____
ROOT
ATOM      1  C   UNL     1       1.960   8.107  20.567  0.00  0.00    +0.000 C 
ATOM      2  C   UNL     1       0.987   8.128  21.734  0.00  0.00    +0.000 C 
ATOM      3  N   UNL     1      -0.206   8.844  21.249  0.00  0.00    +0.000 NA
ATOM      4  C   UNL     1       0.187   9.376  20.139  0.00  0.00    +0.000 C 
ATOM      5  O   UNL     1       1.431   9.086  19.668  0.00  0.00    +0.000 OA
ENDROOT
BRANCH   4   6
ATOM      6  C   UNL     1      -0.563  10.291  19.256  0.00  0.00    +0.000 A 
ATOM      7  C   UNL     1      -1.583   9.736  18.450  0.00  0.00    +0.000 A 
ATOM      8  C   UNL     1      -2.298  10.504  17.539  0.00  0.00    +0.000 A 
ATOM      9  C   UNL     1      -1.997  11.850  17.378  0.00  0.00    +0.000 A 
ATOM     10  C   UNL     1      -0.993  12.447  18.168  0.00  0.00    +0.000 A 
ATOM     11  C   UNL     1      -0.467  13.765  18.187  0.00  0.00    +0.000 A 
ATOM     12  C   UNL     1       0.487  13.811  19.170  0.00  0.00    +0.000 A 
ATOM     13  N   UNL     1       0.541  12.576  19.774  0.00  0.00    +0.000 N 
ATOM     14  C   UNL     1       1.333  12.350  20.962  0.00  0.00    +0.000 C 
ATOM     15  C   UNL     1      -0.303  11.681  19.132  0.00  0.00    +0.000 A 
ENDBRANCH   4   6
BRANCH   1  18
ATOM     16  C   UNL     1       3.030   5.362  18.114  0.00  0.00    +0.000 A 
ATOM     17  C   UNL     1       2.800   6.626  18.684  0.00  0.00    +0.000 A 
ATOM     18  C   UNL     1       2.076   6.771  19.867  0.00  0.00    +0.000 A 
ATOM     19  C   UNL     1       1.483   5.629  20.409  0.00  0.00    +0.000 A 
ATOM     20  C   UNL     1       1.600   4.369  19.792  0.00  0.00    +0.000 A 
ATOM     21  C   UNL     1       2.383   4.219  18.625  0.00  0.00    +0.000 A 
BRANCH  16  23
ATOM     22  C   UNL     1       4.704   6.423  16.833  0.00  0.00    +0.000 C 
ATOM     23  O   UNL     1       3.906   5.256  17.061  0.00  0.00    +0.000 OA
ENDBRANCH  16  23
BRANCH  20  24
ATOM     24  O   UNL     1       0.909   3.411  20.496  0.00  0.00    +0.000 OA
ATOM     25  C   UNL     1       1.533   2.759  21.591  0.00  0.00    +0.000 C 
ENDBRANCH  20  24
BRANCH  21  26
ATOM     26  O   UNL     1       2.480   2.948  18.132  0.00  0.00    +0.000 OA
ATOM     27  C   UNL     1       3.539   2.087  18.509  0.00  0.00    +0.000 C 
ENDBRANCH  21  26
ENDBRANCH   1  18
TORSDOF 5
ENDMDL
MODEL 4
REMARK VINA RESULT:      -6.9      2.091      3.002
REMARK  Name = 
REMARK  9 active torsions:
REMARK  status: ('A' for Active; 'I' for Inactive)
REMARK    1  A    between atoms: C_1  and  O_2
REMARK    2  A    between atoms: O_2  and  C_3
REMARK    3  A    between atoms: C_5  and  C_6
REMARK    4  A    between atoms: C_9  and  C_10
REMARK    5  A    between atoms: N_17  and  C_18
REMARK    6  A    between atoms: C_22  and  O_23
REMARK    7  A    between atoms: O_23  and  C_24
REMARK    8  A    between atoms: C_25  and  O_26
REMARK    9  A    between atoms: O_26  and  C_27
REMARK                            x       y       z     vdW  Elec       q    Type
REMARK                         _______ _______ _______ _____ _____    ______ ____
ROOT
ATOM      1  C   UNL     1       1.884   8.243  20.815  0.00  0.00    +0.000 C 
ATOM      2  C   UNL     1       0.842   8.268  21.920  0.00  0.00    +0.000 C 
ATOM      3  N   UNL     1      -0.333   8.949  21.349  0.00  0.00    +0.000 NA
ATOM      4  C   UNL     1       0.116   9.467  20.254  0.00  0.00    +0.000 C 
ATOM      5  O   UNL     1       1.392   9.192  19.865  0.00  0.00    +0.000 OA
ENDROOT
BRANCH   4   6
ATOM      6  C   UNL     1      -0.595  10.347  19.307  0.00  0.00    +0.000 A 
ATOM      7  C   UNL     1      -1.547   9.754  18.447  0.00  0.00    +0.000 A 
ATOM      8  C   UNL     1      -2.220  10.489  17.478  0.00  0.00    +0.000 A 
ATOM      9  C   UNL     1      -1.941  11.839  17.312  0.00  0.00    +0.000 A 
ATOM     10  C   UNL     1      -1.004  12.474  18.154  0.00  0.00    +0.000 A 
ATOM     11  C   UNL     1      -0.513  13.805  18.183  0.00  0.00    +0.000 A 
ATOM     12  C   UNL     1       0.374  13.890  19.225  0.00  0.00    +0.000 A 
ATOM     13  N   UNL     1       0.418  12.668  19.853  0.00  0.00    +0.000 N 
ATOM     14  C   UNL     1       1.136  12.481  21.095  0.00  0.00    +0.000 C 
ATOM     15  C   UNL     1      -0.361  11.741  19.174  0.00  0.00    +0.000 A 
ENDBRANCH   4   6
BRANCH   1  18
ATOM     16  C   UNL     1       1.556   4.511  20.002  0.00  0.00    +0.000 A 
ATOM     17  C   UNL     1       1.511   5.735  20.691  0.00  0.00    +0.000 A 
ATOM     18  C   UNL     1       2.068   6.896  20.153  0.00  0.00    +0.000 A 
ATOM     19  C   UNL     1       2.778   6.779  18.956  0.00  0.00    +0.000 A 
ATOM     20  C   UNL     1       2.938   5.541  18.307  0.00  0.00    +0.000 A 
ATOM     21  C   UNL     1       2.323   4.380  18.827  0.00  0.00    +0.000 A 
BRANCH  16  23
ATOM     22  C   UNL     1       1.480   2.709  21.524  0.00  0.00    +0.000 C 
ATOM     23  O   UNL     1       0.830   3.449  20.484  0.00  0.00    +0.000 OA
ENDBRANCH  16  23
BRANCH  20  24
ATOM     24  O   UNL     1       3.697   5.679  17.168  0.00  0.00    +0.000 OA
ATOM     25  C   UNL     1       4.646   6.729  17.081  0.00  0.00    +0.000 C 
ENDBRANCH  20  24
BRANCH  21  26
ATOM     26  O   UNL     1       2.491   3.237  18.096  0.00  0.00    +0.000 OA
ATOM     27  C   UNL     1       3.620   2.402  18.277  0.00  0.00    +0.000 C 
ENDBRANCH  21  26
ENDBRANCH   1  18
TORSDOF 5
ENDMDL
MODEL 5
REMARK VINA RESULT:      -6.6      3.221      5.830
REMARK  Name = 
REMARK  9 active torsions:
REMARK  status: ('A' for Active; 'I' for Inactive)
REMARK    1  A    between atoms: C_1  and  O_2
REMARK    2  A    between atoms: O_2  and  C_3
REMARK    3  A    between atoms: C_5  and  C_6
REMARK    4  A    between atoms: C_9  and  C_10
REMARK    5  A    between atoms: N_17  and  C_18
REMARK    6  A    between atoms: C_22  and  O_23
REMARK    7  A    between atoms: O_23  and  C_24
REMARK    8  A    between atoms: C_25  and  O_26
REMARK    9  A    between atoms: O_26  and  C_27
REMARK                            x       y       z     vdW  Elec       q    Type
REMARK                         _______ _______ _______ _____ _____    ______ ____
ROOT
ATOM      1  C   UNL     1       4.336   3.721  18.225  0.00  0.00    +0.000 C 
ATOM      2  C   UNL     1       3.005   3.245  17.667  0.00  0.00    +0.000 C 
ATOM      3  N   UNL     1       2.045   4.329  17.936  0.00  0.00    +0.000 NA
ATOM      4  C   UNL     1       2.675   5.097  18.762  0.00  0.00    +0.000 C 
ATOM      5  O   UNL     1       3.975   4.824  19.062  0.00  0.00    +0.000 OA
ENDROOT
BRANCH   4   6
ATOM      6  C   UNL     1       2.168   6.299  19.452  0.00  0.00    +0.000 A 
ATOM      7  C   UNL     1       1.582   6.127  20.726  0.00  0.00    +0.000 A 
ATOM      8  C   UNL     1       1.018   7.188  21.425  0.00  0.00    +0.000 A 
ATOM      9  C   UNL     1       0.990   8.456  20.859  0.00  0.00    +0.000 A 
ATOM     10  C   UNL     1       1.571   8.675  19.592  0.00  0.00    +0.000 A 
ATOM     11  C   UNL     1       1.652   9.836  18.780  0.00  0.00    +0.000 A 
ATOM     12  C   UNL     1       2.346   9.496  17.649  0.00  0.00    +0.000 A 
ATOM     13  N   UNL     1       2.720   8.177  17.754  0.00  0.00    +0.000 N 
ATOM     14  C   UNL     1       3.611   7.564  16.794  0.00  0.00    +0.000 C 
ATOM     15  C   UNL     1       2.193   7.610  18.906  0.00  0.00    +0.000 A 
ENDBRANCH   4   6
BRANCH   1  18
ATOM     16  C   UNL     1       6.293   3.991  14.940  0.00  0.00    +0.000 A 
ATOM     17  C   UNL     1       5.474   3.493  15.968  0.00  0.00    +0.000 A 
ATOM     18  C   UNL     1       5.333   4.168  17.180  0.00  0.00    +0.000 A 
ATOM     19  C   UNL     1       6.125   5.300  17.388  0.00  0.00    +0.000 A 
ATOM     20  C   UNL     1       7.041   5.752  16.419  0.00  0.00    +0.000 A 
ATOM     21  C   UNL     1       7.137   5.097  15.171  0.00  0.00    +0.000 A 
BRANCH  16  23
ATOM     22  C   UNL     1       5.052   3.659  12.960  0.00  0.00    +0.000 C 
ATOM     23  O   UNL     1       6.247   3.394  13.703  0.00  0.00    +0.000 OA
ENDBRANCH  16  23
BRANCH  20  24
ATOM     24  O   UNL     1       7.721   6.861  16.865  0.00  0.00    +0.000 OA
ATOM     25  C   UNL     1       7.904   7.057  18.259  0.00  0.00    +0.000 C 
ENDBRANCH  20  24
BRANCH  21  26
ATOM     26  O   UNL     1       8.014   5.643  14.276  0.00  0.00    +0.000 OA
ATOM     27  C   UNL     1       7.864   5.450  12.882  0.00  0.00    +0.000 C 
ENDBRANCH  21  26
ENDBRANCH   1  18
TORSDOF 5
ENDMDL
MODEL 6
REMARK VINA RESULT:      -6.6      1.889      3.633
REMARK  Name = 
REMARK  9 active torsions:
REMARK  status: ('A' for Active; 'I' for Inactive)
REMARK    1  A    between atoms: C_1  and  O_2
REMARK    2  A    between atoms: O_2  and  C_3
REMARK    3  A    between atoms: C_5  and  C_6
REMARK    4  A    between atoms: C_9  and  C_10
REMARK    5  A    between atoms: N_17  and  C_18
REMARK    6  A    between atoms: C_22  and  O_23
REMARK    7  A    between atoms: O_23  and  C_24
REMARK    8  A    between atoms: C_25  and  O_26
REMARK    9  A    between atoms: O_26  and  C_27
REMARK                            x       y       z     vdW  Elec       q    Type
REMARK                         _______ _______ _______ _____ _____    ______ ____
ROOT
ATOM      1  C   UNL     1       2.144   8.123  20.371  0.00  0.00    +0.000 C 
ATOM      2  C   UNL     1       1.415   8.157  21.705  0.00  0.00    +0.000 C 
ATOM      3  N   UNL     1       0.116   8.797  21.436  0.00  0.00    +0.000 NA
ATOM      4  C   UNL     1       0.259   9.294  20.251  0.00  0.00    +0.000 C 
ATOM      5  O   UNL     1       1.402   9.035  19.557  0.00  0.00    +0.000 OA
ENDROOT
BRANCH   4   6
ATOM      6  C   UNL     1      -0.693  10.132  19.497  0.00  0.00    +0.000 A 
ATOM      7  C   UNL     1      -0.950   9.787  18.151  0.00  0.00    +0.000 A 
ATOM      8  C   UNL     1      -1.779  10.553  17.342  0.00  0.00    +0.000 A 
ATOM      9  C   UNL     1      -2.358  11.713  17.840  0.00  0.00    +0.000 A 
ATOM     10  C   UNL     1      -2.136  12.091  19.181  0.00  0.00    +0.000 A 
ATOM     11  C   UNL     1      -2.566  13.220  19.926  0.00  0.00    +0.000 A 
ATOM     12  C   UNL     1      -2.078  13.079  21.199  0.00  0.00    +0.000 A 
ATOM     13  N   UNL     1      -1.393  11.889  21.268  0.00  0.00    +0.000 N 
ATOM     14  C   UNL     1      -0.901  11.372  22.525  0.00  0.00    +0.000 C 
ATOM     15  C   UNL     1      -1.338  11.284  20.020  0.00  0.00    +0.000 A 
ENDBRANCH   4   6
BRANCH   1  18
ATOM     16  C   UNL     1       3.055   5.257  17.993  0.00  0.00    +0.000 A 
ATOM     17  C   UNL     1       2.889   6.547  18.526  0.00  0.00    +0.000 A 
ATOM     18  C   UNL     1       2.190   6.762  19.714  0.00  0.00    +0.000 A 
ATOM     19  C   UNL     1       1.557   5.664  20.301  0.00  0.00    +0.000 A 
ATOM     20  C   UNL     1       1.608   4.382  19.723  0.00  0.00    +0.000 A 
ATOM     21  C   UNL     1       2.366   4.161  18.550  0.00  0.00    +0.000 A 
BRANCH  16  23
ATOM     22  C   UNL     1       5.265   5.454  17.193  0.00  0.00    +0.000 C 
ATOM     23  O   UNL     1       3.909   5.079  16.932  0.00  0.00    +0.000 OA
ENDBRANCH  16  23
BRANCH  20  24
ATOM     24  O   UNL     1       0.887   3.478  20.467  0.00  0.00    +0.000 OA
ATOM     25  C   UNL     1       1.515   2.796  21.541  0.00  0.00    +0.000 C 
ENDBRANCH  20  24
BRANCH  21  26
ATOM     26  O   UNL     1       2.400   2.871  18.097  0.00  0.00    +0.000 OA
ATOM     27  C   UNL     1       3.464   1.999  18.428  0.00  0.00    +0.000 C 
ENDBRANCH  21  26
ENDBRANCH   1  18
TORSDOF 5
ENDMDL
MODEL 7
REMARK VINA RESULT:      -6.5      1.869      2.783
REMARK  Name = 
REMARK  9 active torsions:
REMARK  status: ('A' for Active; 'I' for Inactive)
REMARK    1  A    between atoms: C_1  and  O_2
REMARK    2  A    between atoms: O_2  and  C_3
REMARK    3  A    between atoms: C_5  and  C_6
REMARK    4  A    between atoms: C_9  and  C_10
REMARK    5  A    between atoms: N_17  and  C_18
REMARK    6  A    between atoms: C_22  and  O_23
REMARK    7  A    between atoms: O_23  and  C_24
REMARK    8  A    between atoms: C_25  and  O_26
REMARK    9  A    between atoms: O_26  and  C_27
REMARK                            x       y       z     vdW  Elec       q    Type
REMARK                         _______ _______ _______ _____ _____    ______ ____
ROOT
ATOM      1  C   UNL     1       2.014   8.232  20.652  0.00  0.00    +0.000 C 
ATOM      2  C   UNL     1       1.176   8.209  21.920  0.00  0.00    +0.000 C 
ATOM      3  N   UNL     1      -0.118   8.813  21.557  0.00  0.00    +0.000 NA
ATOM      4  C   UNL     1       0.105   9.342  20.400  0.00  0.00    +0.000 C 
ATOM      5  O   UNL     1       1.310   9.139  19.798  0.00  0.00    +0.000 OA
ENDROOT
BRANCH   4   6
ATOM      6  C   UNL     1      -0.809  10.167  19.587  0.00  0.00    +0.000 A 
ATOM      7  C   UNL     1      -1.026   9.780  18.245  0.00  0.00    +0.000 A 
ATOM      8  C   UNL     1      -1.818  10.529  17.383  0.00  0.00    +0.000 A 
ATOM      9  C   UNL     1      -2.397  11.712  17.823  0.00  0.00    +0.000 A 
ATOM     10  C   UNL     1      -2.213  12.132  19.157  0.00  0.00    +0.000 A 
ATOM     11  C   UNL     1      -2.652  13.292  19.849  0.00  0.00    +0.000 A 
ATOM     12  C   UNL     1      -2.208  13.188  21.142  0.00  0.00    +0.000 A 
ATOM     13  N   UNL     1      -1.542  11.992  21.273  0.00  0.00    +0.000 N 
ATOM     14  C   UNL     1      -1.099  11.511  22.563  0.00  0.00    +0.000 C 
ATOM     15  C   UNL     1      -1.455  11.344  20.049  0.00  0.00    +0.000 A 
ENDBRANCH   4   6
BRANCH   1  18
ATOM     16  C   UNL     1       1.570   4.527  19.773  0.00  0.00    +0.000 A 
ATOM     17  C   UNL     1       1.555   5.741  20.480  0.00  0.00    +0.000 A 
ATOM     18  C   UNL     1       2.162   6.889  19.972  0.00  0.00    +0.000 A 
ATOM     19  C   UNL     1       2.890   6.767  18.786  0.00  0.00    +0.000 A 
ATOM     20  C   UNL     1       3.019   5.534  18.119  0.00  0.00    +0.000 A 
ATOM     21  C   UNL     1       2.354   4.388  18.610  0.00  0.00    +0.000 A 
BRANCH  16  23
ATOM     22  C   UNL     1       1.381   2.736  21.298  0.00  0.00    +0.000 C 
ATOM     23  O   UNL     1       0.799   3.484  20.224  0.00  0.00    +0.000 OA
ENDBRANCH  16  23
BRANCH  20  24
ATOM     24  O   UNL     1       3.802   5.663  16.997  0.00  0.00    +0.000 OA
ATOM     25  C   UNL     1       5.202   5.846  17.136  0.00  0.00    +0.000 C 
ENDBRANCH  20  24
BRANCH  21  26
ATOM     26  O   UNL     1       2.495   3.251  17.863  0.00  0.00    +0.000 OA
ATOM     27  C   UNL     1       3.480   2.282  18.171  0.00  0.00    +0.000 C 
ENDBRANCH  21  26
ENDBRANCH   1  18
TORSDOF 5
ENDMDL
MODEL 8
REMARK VINA RESULT:      -6.5      2.550      7.821
REMARK  Name = 
REMARK  9 active torsions:
REMARK  status: ('A' for Active; 'I' for Inactive)
REMARK    1  A    between atoms: C_1  and  O_2
REMARK    2  A    between atoms: O_2  and  C_3
REMARK    3  A    between atoms: C_5  and  C_6
REMARK    4  A    between atoms: C_9  and  C_10
REMARK    5  A    between atoms: N_17  and  C_18
REMARK    6  A    between atoms: C_22  and  O_23
REMARK    7  A    between atoms: O_23  and  C_24
REMARK    8  A    between atoms: C_25  and  O_26
REMARK    9  A    between atoms: O_26  and  C_27
REMARK                            x       y       z     vdW  Elec       q    Type
REMARK                         _______ _______ _______ _____ _____    ______ ____
ROOT
ATOM      1  C   UNL     1       2.415   8.560  19.009  0.00  0.00    +0.000 C 
ATOM      2  C   UNL     1       2.488   8.058  17.576  0.00  0.00    +0.000 C 
ATOM      3  N   UNL     1       2.225   6.610  17.644  0.00  0.00    +0.000 NA
ATOM      4  C   UNL     1       2.311   6.343  18.906  0.00  0.00    +0.000 C 
ATOM      5  O   UNL     1       2.483   7.364  19.790  0.00  0.00    +0.000 OA
ENDROOT
BRANCH   4   6
ATOM      6  C   UNL     1       2.230   5.023  19.562  0.00  0.00    +0.000 A 
ATOM      7  C   UNL     1       1.045   4.710  20.265  0.00  0.00    +0.000 A 
ATOM      8  C   UNL     1       0.901   3.520  20.968  0.00  0.00    +0.000 A 
ATOM      9  C   UNL     1       1.952   2.613  21.022  0.00  0.00    +0.000 A 
ATOM     10  C   UNL     1       3.150   2.882  20.329  0.00  0.00    +0.000 A 
ATOM     11  C   UNL     1       4.370   2.162  20.241  0.00  0.00    +0.000 A 
ATOM     12  C   UNL     1       5.202   2.867  19.412  0.00  0.00    +0.000 A 
ATOM     13  N   UNL     1       4.523   3.976  18.963  0.00  0.00    +0.000 N 
ATOM     14  C   UNL     1       5.072   4.835  17.937  0.00  0.00    +0.000 C 
ATOM     15  C   UNL     1       3.277   4.064  19.568  0.00  0.00    +0.000 A 
ENDBRANCH   4   6
BRANCH   1  18
ATOM     16  C   UNL     1      -0.341  10.351  20.982  0.00  0.00    +0.000 A 
ATOM     17  C   UNL     1       0.746   9.518  20.663  0.00  0.00    +0.000 A 
ATOM     18  C   UNL     1       1.155   9.326  19.344  0.00  0.00    +0.000 A 
ATOM     19  C   UNL     1       0.377   9.897  18.334  0.00  0.00    +0.000 A 
ATOM     20  C   UNL     1      -0.784  10.638  18.622  0.00  0.00    +0.000 A 
ATOM     21  C   UNL     1      -1.161  10.876  19.963  0.00  0.00    +0.000 A 
BRANCH  16  23
ATOM     22  C   UNL     1      -0.233   9.619  23.222  0.00  0.00    +0.000 C 
ATOM     23  O   UNL     1      -0.582  10.656  22.300  0.00  0.00    +0.000 OA
ENDBRANCH  16  23
BRANCH  20  24
ATOM     24  O   UNL     1      -1.390  11.070  17.466  0.00  0.00    +0.000 OA
ATOM     25  C   UNL     1      -2.311  10.222  16.798  0.00  0.00    +0.000 C 
ENDBRANCH  20  24
BRANCH  21  26
ATOM     26  O   UNL     1      -2.272  11.653  20.142  0.00  0.00    +0.000 OA
ATOM     27  C   UNL     1      -2.179  13.059  20.271  0.00  0.00    +0.000 C 
ENDBRANCH  21  26
ENDBRANCH   1  18
TORSDOF 5
ENDMDL
MODEL 9
REMARK VINA RESULT:      -6.4      2.344      3.912
REMARK  Name = 
REMARK  9 active torsions:
REMARK  status: ('A' for Active; 'I' for Inactive)
REMARK    1  A    between atoms: C_1  and  O_2
REMARK    2  A    between atoms: O_2  and  C_3
REMARK    3  A    between atoms: C_5  and  C_6
REMARK    4  A    between atoms: C_9  and  C_10
REMARK    5  A    between atoms: N_17  and  C_18
REMARK    6  A    between atoms: C_22  and  O_23
REMARK    7  A    between atoms: O_23  and  C_24
REMARK    8  A    between atoms: C_25  and  O_26
REMARK    9  A    between atoms: O_26  and  C_27
REMARK                            x       y       z     vdW  Elec       q    Type
REMARK                         _______ _______ _______ _____ _____    ______ ____
ROOT
ATOM      1  C   UNL     1       1.537   9.955  19.093  0.00  0.00    +0.000 C 
ATOM      2  C   UNL     1       0.877  10.213  20.438  0.00  0.00    +0.000 C 
ATOM      3  N   UNL     1      -0.573  10.227  20.178  0.00  0.00    +0.000 NA
ATOM      4  C   UNL     1      -0.652  10.282  18.889  0.00  0.00    +0.000 C 
ATOM      5  O   UNL     1       0.489  10.201  18.150  0.00  0.00    +0.000 OA
ENDROOT
BRANCH   4   6
ATOM      6  C   UNL     1      -1.865  10.414  18.059  0.00  0.00    +0.000 A 
ATOM      7  C   UNL     1      -1.902   9.709  16.834  0.00  0.00    +0.000 A 
ATOM      8  C   UNL     1      -2.972   9.821  15.955  0.00  0.00    +0.000 A 
ATOM      9  C   UNL     1      -4.031  10.669  16.253  0.00  0.00    +0.000 A 
ATOM     10  C   UNL     1      -4.039  11.385  17.468  0.00  0.00    +0.000 A 
ATOM     11  C   UNL     1      -4.957  12.327  18.002  0.00  0.00    +0.000 A 
ATOM     12  C   UNL     1      -4.489  12.700  19.235  0.00  0.00    +0.000 A 
ATOM     13  N   UNL     1      -3.335  11.997  19.488  0.00  0.00    +0.000 N 
ATOM     14  C   UNL     1      -2.690  12.043  20.781  0.00  0.00    +0.000 C 
ATOM     15  C   UNL     1      -2.979  11.229  18.387  0.00  0.00    +0.000 A 
ENDBRANCH   4   6
BRANCH   1  18
ATOM     16  C   UNL     1       3.486   6.951  17.725  0.00  0.00    +0.000 A 
ATOM     17  C   UNL     1       2.865   8.208  17.817  0.00  0.00    +0.000 A 
ATOM     18  C   UNL     1       2.076   8.554  18.914  0.00  0.00    +0.000 A 
ATOM     19  C   UNL     1       1.824   7.566  19.869  0.00  0.00    +0.000 A 
ATOM     20  C   UNL     1       2.338   6.261  19.739  0.00  0.00    +0.000 A 
ATOM     21  C   UNL     1       3.184   5.935  18.655  0.00  0.00    +0.000 A 
BRANCH  16  23
ATOM     22  C   UNL     1       5.749   7.071  17.069  0.00  0.00    +0.000 C 
ATOM     23  O   UNL     1       4.402   6.732  16.725  0.00  0.00    +0.000 OA
ENDBRANCH  16  23
BRANCH  20  24
ATOM     24  O   UNL     1       1.931   5.467  20.784  0.00  0.00    +0.000 OA
ATOM     25  C   UNL     1       1.089   4.353  20.532  0.00  0.00    +0.000 C 
ENDBRANCH  20  24
BRANCH  21  26
ATOM     26  O   UNL     1       3.677   4.660  18.646  0.00  0.00    +0.000 OA
ATOM     27  C   UNL     1       4.899   4.335  19.282  0.00  0.00    +0.000 C 
ENDBRANCH  21  26
ENDBRANCH   1  18
TORSDOF 5
ENDMDL
