MODEL 1
REMARK VINA RESULT:      -7.2      0.000      0.000
REMARK  Name = 
REMARK  2 active torsions:
REMARK  status: ('A' for Active; 'I' for Inactive)
REMARK    1  A    between atoms: C_1  and  C_2
REMARK    2  A    between atoms: N_9  and  C_10
REMARK                            x       y       z     vdW  Elec       q    Type
REMARK                         _______ _______ _______ _____ _____    ______ ____
ROOT
ATOM      1  C   UNL     1       6.403   3.590  13.345  0.00  0.00    +0.000 C 
ATOM      2  C   UNL     1       5.898   4.309  14.553  0.00  0.00    +0.000 A 
ATOM      3  C   UNL     1       5.627   5.662  14.530  0.00  0.00    +0.000 A 
ATOM      4  C   UNL     1       5.146   6.272  15.689  0.00  0.00    +0.000 A 
ATOM      5  C   UNL     1       4.930   5.540  16.852  0.00  0.00    +0.000 A 
ATOM      6  N   UNL     1       4.489   6.133  18.023  0.00  0.00    +0.000 N 
ATOM      7  C   UNL     1       3.659   7.343  18.043  0.00  0.00    +0.000 C 
ATOM      8  C   UNL     1       2.188   7.048  18.368  0.00  0.00    +0.000 C 
ATOM      9  N   UNL     1       1.999   6.599  19.736  0.00  0.00    +0.000 N 
ATOM     10  C   UNL     1       1.791   7.508  20.836  0.00  0.00    +0.000 C 
ATOM     11  C   UNL     1       2.184   5.263  20.008  0.00  0.00    +0.000 A 
ATOM     12  N   UNL     1       1.136   4.608  20.559  0.00  0.00    +0.000 NA
ATOM     13  C   UNL     1       1.235   3.274  20.722  0.00  0.00    +0.000 A 
ATOM     14  C   UNL     1       2.358   2.540  20.396  0.00  0.00    +0.000 A 
ATOM     15  C   UNL     1       3.452   3.225  19.883  0.00  0.00    +0.000 A 
ATOM     16  C   UNL     1       3.379   4.612  19.681  0.00  0.00    +0.000 A 
ATOM     17  C   UNL     1       4.611   5.382  19.273  0.00  0.00    +0.000 C 
ATOM     18  N   UNL     1       5.225   4.223  16.822  0.00  0.00    +0.000 NA
ATOM     19  N   UNL     1       5.703   3.598  15.675  0.00  0.00    +0.000 NA
ENDROOT
TORSDOF 0
ENDMDL
MODEL 2
REMARK VINA RESULT:      -6.5      1.935      5.758
REMARK  Name = 
REMARK  2 active torsions:
REMARK  status: ('A' for Active; 'I' for Inactive)
REMARK    1  A    between atoms: C_1  and  C_2
REMARK    2  A    between atoms: N_9  and  C_10
REMARK                            x       y       z     vdW  Elec       q    Type
REMARK                         _______ _______ _______ _____ _____    ______ ____
ROOT
ATOM      1  C   UNL     1       0.327   1.698  19.104  0.00  0.00    +0.000 C 
ATOM      2  C   UNL     1       1.360   2.766  18.946  0.00  0.00    +0.000 A 
ATOM      3  C   UNL     1       1.944   3.375  20.037  0.00  0.00    +0.000 A 
ATOM      4  C   UNL     1       2.912   4.357  19.822  0.00  0.00    +0.000 A 
ATOM      5  C   UNL     1       3.297   4.720  18.536  0.00  0.00    +0.000 A 
ATOM      6  N   UNL     1       4.227   5.718  18.299  0.00  0.00    +0.000 N 
ATOM      7  C   UNL     1       5.299   6.051  19.245  0.00  0.00    +0.000 C 
ATOM      8  C   UNL     1       6.669   5.524  18.797  0.00  0.00    +0.000 C 
ATOM      9  N   UNL     1       7.168   6.202  17.613  0.00  0.00    +0.000 N 
ATOM     10  C   UNL     1       7.944   7.416  17.676  0.00  0.00    +0.000 C 
ATOM     11  C   UNL     1       6.746   5.748  16.385  0.00  0.00    +0.000 A 
ATOM     12  N   UNL     1       7.712   5.364  15.519  0.00  0.00    +0.000 NA
ATOM     13  C   UNL     1       7.334   4.797  14.356  0.00  0.00    +0.000 A 
ATOM     14  C   UNL     1       6.018   4.620  13.979  0.00  0.00    +0.000 A 
ATOM     15  C   UNL     1       5.030   5.067  14.846  0.00  0.00    +0.000 A 
ATOM     16  C   UNL     1       5.385   5.645  16.075  0.00  0.00    +0.000 A 
ATOM     17  C   UNL     1       4.327   6.273  16.949  0.00  0.00    +0.000 C 
ATOM     18  N   UNL     1       2.683   4.101  17.505  0.00  0.00    +0.000 NA
ATOM     19  N   UNL     1       1.718   3.119  17.700  0.00  0.00    +0.000 NA
ENDROOT
TORSDOF 0
ENDMDL
MODEL 3
REMARK VINA RESULT:      -6.2      1.454      3.132
REMARK  Name = 
REMARK  2 active torsions:
REMARK  status: ('A' for Active; 'I' for Inactive)
REMARK    1  A    between atoms: C_1  and  C_2
REMARK    2  A    between atoms: N_9  and  C_10
REMARK                            x       y       z     vdW  Elec       q    Type
REMARK                         _______ _______ _______ _____ _____    ______ ____
ROOT
ATOM      1  C   UNL     1       7.725   5.509  13.979  0.00  0.00    +0.000 C 
ATOM      2  C   UNL     1       6.652   5.033  14.903  0.00  0.00    +0.000 A 
ATOM      3  C   UNL     1       6.696   3.780  15.480  0.00  0.00    +0.000 A 
ATOM      4  C   UNL     1       5.669   3.401  16.344  0.00  0.00    +0.000 A 
ATOM      5  C   UNL     1       4.618   4.263  16.637  0.00  0.00    +0.000 A 
ATOM      6  N   UNL     1       3.569   3.892  17.462  0.00  0.00    +0.000 N 
ATOM      7  C   UNL     1       3.711   2.909  18.541  0.00  0.00    +0.000 C 
ATOM      8  C   UNL     1       3.762   3.557  19.931  0.00  0.00    +0.000 C 
ATOM      9  N   UNL     1       2.495   4.157  20.313  0.00  0.00    +0.000 N 
ATOM     10  C   UNL     1       1.450   3.420  20.978  0.00  0.00    +0.000 C 
ATOM     11  C   UNL     1       2.231   5.435  19.879  0.00  0.00    +0.000 A 
ATOM     12  N   UNL     1       1.972   6.356  20.834  0.00  0.00    +0.000 NA
ATOM     13  C   UNL     1       1.833   7.643  20.457  0.00  0.00    +0.000 A 
ATOM     14  C   UNL     1       1.902   8.071  19.146  0.00  0.00    +0.000 A 
ATOM     15  C   UNL     1       2.112   7.114  18.163  0.00  0.00    +0.000 A 
ATOM     16  C   UNL     1       2.281   5.767  18.520  0.00  0.00    +0.000 A 
ATOM     17  C   UNL     1       2.352   4.705  17.450  0.00  0.00    +0.000 C 
ATOM     18  N   UNL     1       4.619   5.471  16.034  0.00  0.00    +0.000 NA
ATOM     19  N   UNL     1       5.635   5.867  15.172  0.00  0.00    +0.000 NA
ENDROOT
TORSDOF 0
ENDMDL
MODEL 4
REMARK VINA RESULT:      -6.2      2.202      4.142
REMARK  Name = 
REMARK  2 active torsions:
REMARK  status: ('A' for Active; 'I' for Inactive)
REMARK    1  A    between atoms: C_1  and  C_2
REMARK    2  A    between atoms: N_9  and  C_10
REMARK                            x       y       z     vdW  Elec       q    Type
REMARK                         _______ _______ _______ _____ _____    ______ ____
ROOT
ATOM      1  C   UNL     1       7.658   3.955  11.124  0.00  0.00    +0.000 C 
ATOM      2  C   UNL     1       6.875   4.200  12.372  0.00  0.00    +0.000 A 
ATOM      3  C   UNL     1       5.712   3.508  12.645  0.00  0.00    +0.000 A 
ATOM      4  C   UNL     1       5.034   3.774  13.834  0.00  0.00    +0.000 A 
ATOM      5  C   UNL     1       5.514   4.710  14.744  0.00  0.00    +0.000 A 
ATOM      6  N   UNL     1       4.837   5.017  15.913  0.00  0.00    +0.000 N 
ATOM      7  C   UNL     1       3.968   4.059  16.606  0.00  0.00    +0.000 C 
ATOM      8  C   UNL     1       4.618   3.475  17.868  0.00  0.00    +0.000 C 
ATOM      9  N   UNL     1       4.782   4.462  18.920  0.00  0.00    +0.000 N 
ATOM     10  C   UNL     1       3.757   4.746  19.893  0.00  0.00    +0.000 C 
ATOM     11  C   UNL     1       5.900   5.263  18.882  0.00  0.00    +0.000 A 
ATOM     12  N   UNL     1       6.702   5.232  19.971  0.00  0.00    +0.000 NA
ATOM     13  C   UNL     1       7.869   5.905  19.921  0.00  0.00    +0.000 A 
ATOM     14  C   UNL     1       8.277   6.657  18.837  0.00  0.00    +0.000 A 
ATOM     15  C   UNL     1       7.425   6.732  17.744  0.00  0.00    +0.000 A 
ATOM     16  C   UNL     1       6.210   6.029  17.752  0.00  0.00    +0.000 A 
ATOM     17  C   UNL     1       5.212   6.231  16.638  0.00  0.00    +0.000 C 
ATOM     18  N   UNL     1       6.649   5.366  14.420  0.00  0.00    +0.000 NA
ATOM     19  N   UNL     1       7.340   5.113  13.240  0.00  0.00    +0.000 NA
ENDROOT
TORSDOF 0
ENDMDL
MODEL 5
REMARK VINA RESULT:      -6.1      2.383      5.969
REMARK  Name = 
REMARK  2 active torsions:
REMARK  status: ('A' for Active; 'I' for Inactive)
REMARK    1  A    between atoms: C_1  and  C_2
REMARK    2  A    between atoms: N_9  and  C_10
REMARK                            x       y       z     vdW  Elec       q    Type
REMARK                         _______ _______ _______ _____ _____    ______ ____
ROOT
ATOM      1  C   UNL     1       1.055   2.953  21.028  0.00  0.00    +0.000 C 
ATOM      2  C   UNL     1       2.074   3.098  19.945  0.00  0.00    +0.000 A 
ATOM      3  C   UNL     1       1.775   2.821  18.627  0.00  0.00    +0.000 A 
ATOM      4  C   UNL     1       2.769   2.989  17.662  0.00  0.00    +0.000 A 
ATOM      5  C   UNL     1       4.040   3.436  18.007  0.00  0.00    +0.000 A 
ATOM      6  N   UNL     1       5.052   3.573  17.071  0.00  0.00    +0.000 N 
ATOM      7  C   UNL     1       4.796   3.865  15.656  0.00  0.00    +0.000 C 
ATOM      8  C   UNL     1       5.101   5.323  15.287  0.00  0.00    +0.000 C 
ATOM      9  N   UNL     1       6.520   5.628  15.347  0.00  0.00    +0.000 N 
ATOM     10  C   UNL     1       7.410   5.430  14.230  0.00  0.00    +0.000 C 
ATOM     11  C   UNL     1       7.055   5.969  16.567  0.00  0.00    +0.000 A 
ATOM     12  N   UNL     1       7.672   7.171  16.641  0.00  0.00    +0.000 NA
ATOM     13  C   UNL     1       8.096   7.595  17.849  0.00  0.00    +0.000 A 
ATOM     14  C   UNL     1       7.973   6.857  19.009  0.00  0.00    +0.000 A 
ATOM     15  C   UNL     1       7.390   5.600  18.918  0.00  0.00    +0.000 A 
ATOM     16  C   UNL     1       6.918   5.134  17.682  0.00  0.00    +0.000 A 
ATOM     17  C   UNL     1       6.428   3.712  17.547  0.00  0.00    +0.000 C 
ATOM     18  N   UNL     1       4.281   3.678  19.313  0.00  0.00    +0.000 NA
ATOM     19  N   UNL     1       3.303   3.519  20.288  0.00  0.00    +0.000 NA
ENDROOT
TORSDOF 0
ENDMDL
MODEL 6
REMARK VINA RESULT:      -5.9      8.222     11.109
REMARK  Name = 
REMARK  2 active torsions:
REMARK  status: ('A' for Active; 'I' for Inactive)
REMARK    1  A    between atoms: C_1  and  C_2
REMARK    2  A    between atoms: N_9  and  C_10
REMARK                            x       y       z     vdW  Elec       q    Type
REMARK                         _______ _______ _______ _____ _____    ______ ____
ROOT
ATOM      1  C   UNL     1      -2.283   9.995  17.744  0.00  0.00    +0.000 C 
ATOM      2  C   UNL     1      -1.264  10.991  18.193  0.00  0.00    +0.000 A 
ATOM      3  C   UNL     1       0.019  10.613  18.530  0.00  0.00    +0.000 A 
ATOM      4  C   UNL     1       0.927  11.594  18.929  0.00  0.00    +0.000 A 
ATOM      5  C   UNL     1       0.563  12.935  18.982  0.00  0.00    +0.000 A 
ATOM      6  N   UNL     1       1.437  13.919  19.411  0.00  0.00    +0.000 N 
ATOM      7  C   UNL     1       2.893  13.812  19.268  0.00  0.00    +0.000 C 
ATOM      8  C   UNL     1       3.443  14.686  18.133  0.00  0.00    +0.000 C 
ATOM      9  N   UNL     1       3.330  16.106  18.416  0.00  0.00    +0.000 N 
ATOM     10  C   UNL     1       4.343  16.844  19.129  0.00  0.00    +0.000 C 
ATOM     11  C   UNL     1       2.136  16.727  18.131  0.00  0.00    +0.000 A 
ATOM     12  N   UNL     1       2.191  17.779  17.282  0.00  0.00    +0.000 NA
ATOM     13  C   UNL     1       1.029  18.333  16.880  0.00  0.00    +0.000 A 
ATOM     14  C   UNL     1      -0.213  17.914  17.314  0.00  0.00    +0.000 A 
ATOM     15  C   UNL     1      -0.261  16.870  18.228  0.00  0.00    +0.000 A 
ATOM     16  C   UNL     1       0.927  16.256  18.655  0.00  0.00    +0.000 A 
ATOM     17  C   UNL     1       0.892  15.231  19.762  0.00  0.00    +0.000 C 
ATOM     18  N   UNL     1      -0.709  13.247  18.654  0.00  0.00    +0.000 NA
ATOM     19  N   UNL     1      -1.627  12.283  18.252  0.00  0.00    +0.000 NA
ENDROOT
TORSDOF 0
ENDMDL
MODEL 7
REMARK VINA RESULT:      -5.9      8.208     10.983
REMARK  Name = 
REMARK  2 active torsions:
REMARK  status: ('A' for Active; 'I' for Inactive)
REMARK    1  A    between atoms: C_1  and  C_2
REMARK    2  A    between atoms: N_9  and  C_10
REMARK                            x       y       z     vdW  Elec       q    Type
REMARK                         _______ _______ _______ _____ _____    ______ ____
ROOT
ATOM      1  C   UNL     1       0.320   9.706  17.992  0.00  0.00    +0.000 C 
ATOM      2  C   UNL     1      -0.924  10.448  18.355  0.00  0.00    +0.000 A 
ATOM      3  C   UNL     1      -2.041  10.428  17.546  0.00  0.00    +0.000 A 
ATOM      4  C   UNL     1      -3.177  11.132  17.948  0.00  0.00    +0.000 A 
ATOM      5  C   UNL     1      -3.200  11.839  19.145  0.00  0.00    +0.000 A 
ATOM      6  N   UNL     1      -4.303  12.575  19.545  0.00  0.00    +0.000 N 
ATOM      7  C   UNL     1      -5.674  12.238  19.147  0.00  0.00    +0.000 C 
ATOM      8  C   UNL     1      -6.476  11.583  20.280  0.00  0.00    +0.000 C 
ATOM      9  N   UNL     1      -6.756  12.502  21.370  0.00  0.00    +0.000 N 
ATOM     10  C   UNL     1      -7.917  13.358  21.391  0.00  0.00    +0.000 C 
ATOM     11  C   UNL     1      -5.791  12.670  22.335  0.00  0.00    +0.000 A 
ATOM     12  N   UNL     1      -6.159  12.403  23.609  0.00  0.00    +0.000 NA
ATOM     13  C   UNL     1      -5.210  12.434  24.566  0.00  0.00    +0.000 A 
ATOM     14  C   UNL     1      -3.889  12.759  24.327  0.00  0.00    +0.000 A 
ATOM     15  C   UNL     1      -3.528  13.087  23.028  0.00  0.00    +0.000 A 
ATOM     16  C   UNL     1      -4.485  13.046  22.002  0.00  0.00    +0.000 A 
ATOM     17  C   UNL     1      -4.137  13.551  20.623  0.00  0.00    +0.000 C 
ATOM     18  N   UNL     1      -2.075  11.835  19.892  0.00  0.00    +0.000 NA
ATOM     19  N   UNL     1      -0.935  11.137  19.508  0.00  0.00    +0.000 NA
ENDROOT
TORSDOF 0
ENDMDL
MODEL 8
REMARK VINA RESULT:      -5.9      7.309      8.773
REMARK  Name = 
REMARK  2 active torsions:
REMARK  status: ('A' for Active; 'I' for Inactive)
REMARK    1  A    between atoms: C_1  and  C_2
REMARK    2  A    between atoms: N_9  and  C_10
REMARK                            x       y       z     vdW  Elec       q    Type
REMARK                         _______ _______ _______ _____ _____    ______ ____
ROOT
ATOM      1  C   UNL     1      -3.375   9.383  14.954  0.00  0.00    +0.000 C 
ATOM      2  C   UNL     1      -3.004  10.193  16.154  0.00  0.00    +0.000 A 
ATOM      3  C   UNL     1      -3.789  11.239  16.593  0.00  0.00    +0.000 A 
ATOM      4  C   UNL     1      -3.393  11.947  17.728  0.00  0.00    +0.000 A 
ATOM      5  C   UNL     1      -2.236  11.610  18.421  0.00  0.00    +0.000 A 
ATOM      6  N   UNL     1      -1.805  12.324  19.527  0.00  0.00    +0.000 N 
ATOM      7  C   UNL     1      -2.722  13.039  20.422  0.00  0.00    +0.000 C 
ATOM      8  C   UNL     1      -2.943  12.308  21.752  0.00  0.00    +0.000 C 
ATOM      9  N   UNL     1      -1.753  12.290  22.585  0.00  0.00    +0.000 N 
ATOM     10  C   UNL     1      -1.434  13.345  23.514  0.00  0.00    +0.000 C 
ATOM     11  C   UNL     1      -0.821  11.305  22.356  0.00  0.00    +0.000 A 
ATOM     12  N   UNL     1      -0.518  10.505  23.404  0.00  0.00    +0.000 NA
ATOM     13  C   UNL     1       0.294   9.451  23.186  0.00  0.00    +0.000 A 
ATOM     14  C   UNL     1       0.867   9.162  21.964  0.00  0.00    +0.000 A 
ATOM     15  C   UNL     1       0.598  10.018  20.904  0.00  0.00    +0.000 A 
ATOM     16  C   UNL     1      -0.259  11.114  21.088  0.00  0.00    +0.000 A 
ATOM     17  C   UNL     1      -0.429  12.132  19.988  0.00  0.00    +0.000 C 
ATOM     18  N   UNL     1      -1.499  10.586  17.939  0.00  0.00    +0.000 NA
ATOM     19  N   UNL     1      -1.879   9.868  16.811  0.00  0.00    +0.000 NA
ENDROOT
TORSDOF 0
ENDMDL
MODEL 9
REMARK VINA RESULT:      -5.9      3.667      6.340
REMARK  Name = 
REMARK  2 active torsions:
REMARK  status: ('A' for Active; 'I' for Inactive)
REMARK    1  A    between atoms: C_1  and  C_2
REMARK    2  A    between atoms: N_9  and  C_10
REMARK                            x       y       z     vdW  Elec       q    Type
REMARK                         _______ _______ _______ _____ _____    ______ ____
ROOT
ATOM      1  C   UNL     1       5.069   5.823  17.059  0.00  0.00    +0.000 C 
ATOM      2  C   UNL     1       3.991   6.503  17.837  0.00  0.00    +0.000 A 
ATOM      3  C   UNL     1       3.394   5.901  18.926  0.00  0.00    +0.000 A 
ATOM      4  C   UNL     1       2.401   6.595  19.618  0.00  0.00    +0.000 A 
ATOM      5  C   UNL     1       2.016   7.875  19.235  0.00  0.00    +0.000 A 
ATOM      6  N   UNL     1       1.007   8.566  19.885  0.00  0.00    +0.000 N 
ATOM      7  C   UNL     1       0.680   8.358  21.300  0.00  0.00    +0.000 C 
ATOM      8  C   UNL     1       1.189   9.493  22.199  0.00  0.00    +0.000 C 
ATOM      9  N   UNL     1       0.490  10.745  21.968  0.00  0.00    +0.000 N 
ATOM     10  C   UNL     1      -0.729  11.097  22.653  0.00  0.00    +0.000 C 
ATOM     11  C   UNL     1       0.928  11.548  20.941  0.00  0.00    +0.000 A 
ATOM     12  N   UNL     1       1.292  12.808  21.272  0.00  0.00    +0.000 NA
ATOM     13  C   UNL     1       1.845  13.583  20.317  0.00  0.00    +0.000 A 
ATOM     14  C   UNL     1       2.026  13.179  19.010  0.00  0.00    +0.000 A 
ATOM     15  C   UNL     1       1.600  11.905  18.661  0.00  0.00    +0.000 A 
ATOM     16  C   UNL     1       1.038  11.062  19.633  0.00  0.00    +0.000 A 
ATOM     17  C   UNL     1       0.431   9.741  19.228  0.00  0.00    +0.000 C 
ATOM     18  N   UNL     1       2.624   8.411  18.155  0.00  0.00    +0.000 NA
ATOM     19  N   UNL     1       3.617   7.735  17.454  0.00  0.00    +0.000 NA
ENDROOT
TORSDOF 0
ENDMDL
