MODEL 1
REMARK VINA RESULT:      -8.9      0.000      0.000
REMARK  Name = 
REMARK  8 active torsions:
REMARK  status: ('A' for Active; 'I' for Inactive)
REMARK    1  A    between atoms: C_2  and  O_3
REMARK    2  A    between atoms: C_2  and  C_4
REMARK    3  A    between atoms: C_4  and  C_5
REMARK    4  A    between atoms: N_7  and  C_8
REMARK    5  A    between atoms: C_8  and  C_9
REMARK    6  A    between atoms: C_13  and  O_14
REMARK    7  A    between atoms: O_14  and  C_15
REMARK    8  A    between atoms: C_15  and  C_16
REMARK                            x       y       z     vdW  Elec       q    Type
REMARK                         _______ _______ _______ _____ _____    ______ ____
ROOT
ATOM      1  C   UNL     1       5.506   6.052  18.205  0.00  0.00    +0.000 A 
ATOM      2  N   UNL     1       4.560   6.907  17.918  0.00  0.00    +0.000 NA
ATOM      3  N   UNL     1       3.241   6.554  18.147  0.00  0.00    +0.000 N 
ATOM      4  C   UNL     1       2.911   5.163  18.196  0.00  0.00    +0.000 A 
ATOM      5  C   UNL     1       1.641   4.649  17.888  0.00  0.00    +0.000 A 
ATOM      6  C   UNL     1       1.364   3.276  17.947  0.00  0.00    +0.000 A 
ATOM      7  C   UNL     1       2.345   2.373  18.337  0.00  0.00    +0.000 A 
ATOM      8  C   UNL     1       3.613   2.838  18.654  0.00  0.00    +0.000 A 
ATOM      9  C   UNL     1       3.871   4.210  18.574  0.00  0.00    +0.000 A 
ATOM     10  C   UNL     1       5.247   4.694  18.802  0.00  0.00    +0.000 A 
ATOM     11  O   UNL     1       6.097   4.025  19.349  0.00  0.00    +0.000 OA
ENDROOT
BRANCH   1  12
ATOM     12  C   UNL     1       6.839   6.301  17.580  0.00  0.00    +0.000 C 
ATOM     13  C   UNL     1       8.041   6.791  18.407  0.00  0.00    +0.000 C 
ATOM     14  C   UNL     1       7.333   7.748  17.504  0.00  0.00    +0.000 C 
BRANCH  12  16
ATOM     15  O   UNL     1       7.860   4.415  16.506  0.00  0.00    +0.000 OA
ATOM     16  C   UNL     1       7.135   5.401  16.402  0.00  0.00    +0.000 C 
BRANCH  16  17
ATOM     17  O   UNL     1       6.568   5.765  15.234  0.00  0.00    +0.000 OA
ATOM     18  H   UNL     1       6.909   5.245  14.472  0.00  0.00    +0.000 HD
ENDBRANCH  16  17
ENDBRANCH  12  16
ENDBRANCH   1  12
BRANCH   3  19
ATOM     19  C   UNL     1       2.178   7.464  17.581  0.00  0.00    +0.000 C 
BRANCH  19  20
ATOM     20  C   UNL     1       1.828   8.806  18.187  0.00  0.00    +0.000 A 
ATOM     21  C   UNL     1       1.226   9.022  19.413  0.00  0.00    +0.000 A 
ATOM     22  N   UNL     1       0.829  10.326  19.348  0.00  0.00    +0.000 N 
ATOM     23  C   UNL     1      -0.297  10.926  19.893  0.00  0.00    +0.000 A 
ATOM     24  C   UNL     1      -0.547  12.219  19.596  0.00  0.00    +0.000 A 
ATOM     25  C   UNL     1       0.556  12.992  18.999  0.00  0.00    +0.000 A 
ATOM     26 CL   UNL     1       0.547  14.715  19.179  0.00  0.00    +0.000 Cl
ATOM     27  C   UNL     1       1.624  12.376  18.441  0.00  0.00    +0.000 A 
ATOM     28  C   UNL     1       1.661  10.950  18.431  0.00  0.00    +0.000 A 
ATOM     29  N   UNL     1       2.232  10.034  17.663  0.00  0.00    +0.000 NA
BRANCH  24  30
ATOM     30  O   UNL     1      -1.744  12.889  19.758  0.00  0.00    +0.000 OA
BRANCH  30  31
ATOM     31  C   UNL     1      -2.932  12.136  19.507  0.00  0.00    +0.000 C 
BRANCH  31  32
ATOM     32  C   UNL     1      -2.991  11.693  18.076  0.00  0.00    +0.000 C 
ATOM     33  C   UNL     1      -3.297  10.273  17.663  0.00  0.00    +0.000 C 
ATOM     34  C   UNL     1      -4.342  11.339  17.494  0.00  0.00    +0.000 C 
ENDBRANCH  31  32
ENDBRANCH  30  31
ENDBRANCH  24  30
ENDBRANCH  19  20
ENDBRANCH   3  19
TORSDOF 8
ENDMDL
MODEL 2
REMARK VINA RESULT:      -8.7      1.331      1.823
REMARK  Name = 
REMARK  8 active torsions:
REMARK  status: ('A' for Active; 'I' for Inactive)
REMARK    1  A    between atoms: C_2  and  O_3
REMARK    2  A    between atoms: C_2  and  C_4
REMARK    3  A    between atoms: C_4  and  C_5
REMARK    4  A    between atoms: N_7  and  C_8
REMARK    5  A    between atoms: C_8  and  C_9
REMARK    6  A    between atoms: C_13  and  O_14
REMARK    7  A    between atoms: O_14  and  C_15
REMARK    8  A    between atoms: C_15  and  C_16
REMARK                            x       y       z     vdW  Elec       q    Type
REMARK                         _______ _______ _______ _____ _____    ______ ____
ROOT
ATOM      1  C   UNL     1       5.485   6.128  18.125  0.00  0.00    +0.000 A 
ATOM      2  N   UNL     1       4.530   6.992  17.900  0.00  0.00    +0.000 NA
ATOM      3  N   UNL     1       3.219   6.627  18.154  0.00  0.00    +0.000 N 
ATOM      4  C   UNL     1       2.892   5.234  18.157  0.00  0.00    +0.000 A 
ATOM      5  C   UNL     1       1.615   4.730  17.865  0.00  0.00    +0.000 A 
ATOM      6  C   UNL     1       1.341   3.355  17.877  0.00  0.00    +0.000 A 
ATOM      7  C   UNL     1       2.334   2.439  18.202  0.00  0.00    +0.000 A 
ATOM      8  C   UNL     1       3.611   2.895  18.501  0.00  0.00    +0.000 A 
ATOM      9  C   UNL     1       3.864   4.270  18.468  0.00  0.00    +0.000 A 
ATOM     10  C   UNL     1       5.246   4.747  18.675  0.00  0.00    +0.000 A 
ATOM     11  O   UNL     1       6.112   4.059  19.170  0.00  0.00    +0.000 OA
ENDROOT
BRANCH   1  12
ATOM     12  C   UNL     1       6.799   6.406  17.473  0.00  0.00    +0.000 C 
ATOM     13  C   UNL     1       8.006   6.925  18.273  0.00  0.00    +0.000 C 
ATOM     14  C   UNL     1       7.258   7.863  17.382  0.00  0.00    +0.000 C 
BRANCH  12  16
ATOM     15  O   UNL     1       6.646   5.748  15.171  0.00  0.00    +0.000 OA
ATOM     16  C   UNL     1       7.091   5.509  16.291  0.00  0.00    +0.000 C 
BRANCH  16  17
ATOM     17  O   UNL     1       7.848   4.425  16.554  0.00  0.00    +0.000 OA
ATOM     18  H   UNL     1       8.567   4.300  15.897  0.00  0.00    +0.000 HD
ENDBRANCH  16  17
ENDBRANCH  12  16
ENDBRANCH   1  12
BRANCH   3  19
ATOM     19  C   UNL     1       2.138   7.556  17.655  0.00  0.00    +0.000 C 
BRANCH  19  20
ATOM     20  C   UNL     1       1.821   8.882  18.310  0.00  0.00    +0.000 A 
ATOM     21  C   UNL     1       1.404   9.077  19.614  0.00  0.00    +0.000 A 
ATOM     22  N   UNL     1       0.938  10.359  19.613  0.00  0.00    +0.000 N 
ATOM     23  C   UNL     1      -0.119  10.907  20.327  0.00  0.00    +0.000 A 
ATOM     24  C   UNL     1      -0.474  12.185  20.073  0.00  0.00    +0.000 A 
ATOM     25  C   UNL     1       0.484  13.007  19.314  0.00  0.00    +0.000 A 
ATOM     26 CL   UNL     1       0.418  14.728  19.496  0.00  0.00    +0.000 Cl
ATOM     27  C   UNL     1       1.483  12.440  18.598  0.00  0.00    +0.000 A 
ATOM     28  C   UNL     1       1.588  11.017  18.580  0.00  0.00    +0.000 A 
ATOM     29  N   UNL     1       2.077  10.126  17.732  0.00  0.00    +0.000 NA
BRANCH  24  30
ATOM     30  O   UNL     1      -1.663  12.796  20.418  0.00  0.00    +0.000 OA
BRANCH  30  31
ATOM     31  C   UNL     1      -1.818  13.155  21.793  0.00  0.00    +0.000 C 
BRANCH  31  32
ATOM     32  C   UNL     1      -2.866  12.308  22.451  0.00  0.00    +0.000 C 
ATOM     33  C   UNL     1      -3.486  12.649  23.785  0.00  0.00    +0.000 C 
ATOM     34  C   UNL     1      -4.277  12.848  22.524  0.00  0.00    +0.000 C 
ENDBRANCH  31  32
ENDBRANCH  30  31
ENDBRANCH  24  30
ENDBRANCH  19  20
ENDBRANCH   3  19
TORSDOF 8
ENDMDL
MODEL 3
REMARK VINA RESULT:      -8.6      2.343      4.317
REMARK  Name = 
REMARK  8 active torsions:
REMARK  status: ('A' for Active; 'I' for Inactive)
REMARK    1  A    between atoms: C_2  and  O_3
REMARK    2  A    between atoms: C_2  and  C_4
REMARK    3  A    between atoms: C_4  and  C_5
REMARK    4  A    between atoms: N_7  and  C_8
REMARK    5  A    between atoms: C_8  and  C_9
REMARK    6  A    between atoms: C_13  and  O_14
REMARK    7  A    between atoms: O_14  and  C_15
REMARK    8  A    between atoms: C_15  and  C_16
REMARK                            x       y       z     vdW  Elec       q    Type
REMARK                         _______ _______ _______ _____ _____    ______ ____
ROOT
ATOM      1  C   UNL     1       2.689   4.400  18.368  0.00  0.00    +0.000 A 
ATOM      2  N   UNL     1       2.399   5.668  18.233  0.00  0.00    +0.000 NA
ATOM      3  N   UNL     1       3.292   6.496  17.574  0.00  0.00    +0.000 N 
ATOM      4  C   UNL     1       4.665   6.100  17.515  0.00  0.00    +0.000 A 
ATOM      5  C   UNL     1       5.734   7.002  17.386  0.00  0.00    +0.000 A 
ATOM      6  C   UNL     1       7.066   6.568  17.334  0.00  0.00    +0.000 A 
ATOM      7  C   UNL     1       7.372   5.214  17.389  0.00  0.00    +0.000 A 
ATOM      8  C   UNL     1       6.345   4.288  17.513  0.00  0.00    +0.000 A 
ATOM      9  C   UNL     1       5.025   4.745  17.577  0.00  0.00    +0.000 A 
ATOM     10  C   UNL     1       3.942   3.770  17.820  0.00  0.00    +0.000 A 
ATOM     11  O   UNL     1       4.085   2.577  17.664  0.00  0.00    +0.000 OA
ENDROOT
BRANCH   1  12
ATOM     12  C   UNL     1       1.923   3.650  19.407  0.00  0.00    +0.000 C 
ATOM     13  C   UNL     1       1.305   4.359  20.625  0.00  0.00    +0.000 C 
ATOM     14  C   UNL     1       2.538   3.535  20.803  0.00  0.00    +0.000 C 
BRANCH  12  16
ATOM     15  O   UNL     1       0.056   2.529  18.401  0.00  0.00    +0.000 OA
ATOM     16  C   UNL     1       1.190   2.443  18.867  0.00  0.00    +0.000 C 
BRANCH  16  17
ATOM     17  O   UNL     1       1.853   1.272  18.951  0.00  0.00    +0.000 OA
ATOM     18  H   UNL     1       1.408   0.551  18.453  0.00  0.00    +0.000 HD
ENDBRANCH  16  17
ENDBRANCH  12  16
ENDBRANCH   1  12
BRANCH   3  19
ATOM     19  C   UNL     1       3.037   7.982  17.654  0.00  0.00    +0.000 C 
BRANCH  19  20
ATOM     20  C   UNL     1       1.972   8.592  18.539  0.00  0.00    +0.000 A 
ATOM     21  C   UNL     1       0.916   9.384  18.128  0.00  0.00    +0.000 A 
ATOM     22  N   UNL     1       0.464   9.941  19.289  0.00  0.00    +0.000 N 
ATOM     23  C   UNL     1      -0.071  11.204  19.504  0.00  0.00    +0.000 A 
ATOM     24  C   UNL     1      -0.343  11.582  20.771  0.00  0.00    +0.000 A 
ATOM     25  C   UNL     1      -0.373  10.521  21.793  0.00  0.00    +0.000 A 
ATOM     26 CL   UNL     1      -1.299  10.789  23.231  0.00  0.00    +0.000 Cl
ATOM     27  C   UNL     1       0.191   9.312  21.567  0.00  0.00    +0.000 A 
ATOM     28  C   UNL     1       0.830   9.081  20.312  0.00  0.00    +0.000 A 
ATOM     29  N   UNL     1       1.805   8.289  19.892  0.00  0.00    +0.000 NA
BRANCH  24  30
ATOM     30  O   UNL     1      -0.560  12.869  21.221  0.00  0.00    +0.000 OA
BRANCH  30  31
ATOM     31  C   UNL     1      -1.605  13.600  20.576  0.00  0.00    +0.000 C 
BRANCH  31  32
ATOM     32  C   UNL     1      -2.934  13.292  21.197  0.00  0.00    +0.000 C 
ATOM     33  C   UNL     1      -4.171  14.124  20.957  0.00  0.00    +0.000 C 
ATOM     34  C   UNL     1      -4.039  12.779  20.301  0.00  0.00    +0.000 C 
ENDBRANCH  31  32
ENDBRANCH  30  31
ENDBRANCH  24  30
ENDBRANCH  19  20
ENDBRANCH   3  19
TORSDOF 8
ENDMDL
MODEL 4
REMARK VINA RESULT:      -8.6      1.082      1.412
REMARK  Name = 
REMARK  8 active torsions:
REMARK  status: ('A' for Active; 'I' for Inactive)
REMARK    1  A    between atoms: C_2  and  O_3
REMARK    2  A    between atoms: C_2  and  C_4
REMARK    3  A    between atoms: C_4  and  C_5
REMARK    4  A    between atoms: N_7  and  C_8
REMARK    5  A    between atoms: C_8  and  C_9
REMARK    6  A    between atoms: C_13  and  O_14
REMARK    7  A    between atoms: O_14  and  C_15
REMARK    8  A    between atoms: C_15  and  C_16
REMARK                            x       y       z     vdW  Elec       q    Type
REMARK                         _______ _______ _______ _____ _____    ______ ____
ROOT
ATOM      1  C   UNL     1       5.454   5.576  18.446  0.00  0.00    +0.000 A 
ATOM      2  N   UNL     1       4.606   6.498  18.071  0.00  0.00    +0.000 NA
ATOM      3  N   UNL     1       3.252   6.287  18.268  0.00  0.00    +0.000 N 
ATOM      4  C   UNL     1       2.786   4.939  18.385  0.00  0.00    +0.000 A 
ATOM      5  C   UNL     1       1.484   4.530  18.057  0.00  0.00    +0.000 A 
ATOM      6  C   UNL     1       1.072   3.196  18.186  0.00  0.00    +0.000 A 
ATOM      7  C   UNL     1       1.946   2.230  18.668  0.00  0.00    +0.000 A 
ATOM      8  C   UNL     1       3.242   2.592  19.008  0.00  0.00    +0.000 A 
ATOM      9  C   UNL     1       3.635   3.925  18.857  0.00  0.00    +0.000 A 
ATOM     10  C   UNL     1       5.043   4.289  19.112  0.00  0.00    +0.000 A 
ATOM     11  O   UNL     1       5.804   3.577  19.731  0.00  0.00    +0.000 OA
ENDROOT
BRANCH   1  12
ATOM     12  C   UNL     1       6.825   5.658  17.863  0.00  0.00    +0.000 C 
ATOM     13  C   UNL     1       7.052   5.857  16.354  0.00  0.00    +0.000 C 
ATOM     14  C   UNL     1       7.287   4.511  16.959  0.00  0.00    +0.000 C 
BRANCH  12  16
ATOM     15  O   UNL     1       8.292   7.395  18.627  0.00  0.00    +0.000 OA
ATOM     16  C   UNL     1       7.847   6.262  18.798  0.00  0.00    +0.000 C 
BRANCH  16  17
ATOM     17  O   UNL     1       8.250   5.471  19.813  0.00  0.00    +0.000 OA
ATOM     18  H   UNL     1       7.955   4.540  19.704  0.00  0.00    +0.000 HD
ENDBRANCH  16  17
ENDBRANCH  12  16
ENDBRANCH   1  12
BRANCH   3  19
ATOM     19  C   UNL     1       2.302   7.256  17.606  0.00  0.00    +0.000 C 
BRANCH  19  20
ATOM     20  C   UNL     1       1.943   8.599  18.203  0.00  0.00    +0.000 A 
ATOM     21  C   UNL     1       1.368   8.822  19.441  0.00  0.00    +0.000 A 
ATOM     22  N   UNL     1       0.944  10.117  19.368  0.00  0.00    +0.000 N 
ATOM     23  C   UNL     1      -0.179  10.703  19.935  0.00  0.00    +0.000 A 
ATOM     24  C   UNL     1      -0.461  11.987  19.626  0.00  0.00    +0.000 A 
ATOM     25  C   UNL     1       0.610  12.772  18.990  0.00  0.00    +0.000 A 
ATOM     26 CL   UNL     1       0.572  14.496  19.147  0.00  0.00    +0.000 Cl
ATOM     27  C   UNL     1       1.676  12.169  18.413  0.00  0.00    +0.000 A 
ATOM     28  C   UNL     1       1.740  10.743  18.422  0.00  0.00    +0.000 A 
ATOM     29  N   UNL     1       2.308   9.828  17.651  0.00  0.00    +0.000 NA
BRANCH  24  30
ATOM     30  O   UNL     1      -1.666  12.636  19.810  0.00  0.00    +0.000 OA
BRANCH  30  31
ATOM     31  C   UNL     1      -2.831  11.961  19.330  0.00  0.00    +0.000 C 
BRANCH  31  32
ATOM     32  C   UNL     1      -2.670  11.578  17.890  0.00  0.00    +0.000 C 
ATOM     33  C   UNL     1      -2.864  10.169  17.383  0.00  0.00    +0.000 C 
ATOM     34  C   UNL     1      -3.910  11.211  17.106  0.00  0.00    +0.000 C 
ENDBRANCH  31  32
ENDBRANCH  30  31
ENDBRANCH  24  30
ENDBRANCH  19  20
ENDBRANCH   3  19
TORSDOF 8
ENDMDL
MODEL 5
REMARK VINA RESULT:      -8.6      2.083      2.863
REMARK  Name = 
REMARK  8 active torsions:
REMARK  status: ('A' for Active; 'I' for Inactive)
REMARK    1  A    between atoms: C_2  and  O_3
REMARK    2  A    between atoms: C_2  and  C_4
REMARK    3  A    between atoms: C_4  and  C_5
REMARK    4  A    between atoms: N_7  and  C_8
REMARK    5  A    between atoms: C_8  and  C_9
REMARK    6  A    between atoms: C_13  and  O_14
REMARK    7  A    between atoms: O_14  and  C_15
REMARK    8  A    between atoms: C_15  and  C_16
REMARK                            x       y       z     vdW  Elec       q    Type
REMARK                         _______ _______ _______ _____ _____    ______ ____
ROOT
ATOM      1  C   UNL     1       5.689   6.111  18.275  0.00  0.00    +0.000 A 
ATOM      2  N   UNL     1       4.811   7.030  17.966  0.00  0.00    +0.000 NA
ATOM      3  N   UNL     1       3.464   6.753  18.124  0.00  0.00    +0.000 N 
ATOM      4  C   UNL     1       3.049   5.384  18.119  0.00  0.00    +0.000 A 
ATOM      5  C   UNL     1       1.767   4.957  17.737  0.00  0.00    +0.000 A 
ATOM      6  C   UNL     1       1.404   3.603  17.745  0.00  0.00    +0.000 A 
ATOM      7  C   UNL     1       2.309   2.631  18.156  0.00  0.00    +0.000 A 
ATOM      8  C   UNL     1       3.586   3.010  18.545  0.00  0.00    +0.000 A 
ATOM      9  C   UNL     1       3.929   4.365  18.515  0.00  0.00    +0.000 A 
ATOM     10  C   UNL     1       5.320   4.758  18.822  0.00  0.00    +0.000 A 
ATOM     11  O   UNL     1       6.100   4.024  19.389  0.00  0.00    +0.000 OA
ENDROOT
BRANCH   1  12
ATOM     12  C   UNL     1       7.063   6.293  17.721  0.00  0.00    +0.000 C 
ATOM     13  C   UNL     1       8.223   6.813  18.589  0.00  0.00    +0.000 C 
ATOM     14  C   UNL     1       7.594   7.722  17.583  0.00  0.00    +0.000 C 
BRANCH  12  16
ATOM     15  O   UNL     1       7.273   5.594  15.436  0.00  0.00    +0.000 OA
ATOM     16  C   UNL     1       7.410   5.312  16.624  0.00  0.00    +0.000 C 
BRANCH  16  17
ATOM     17  O   UNL     1       7.856   4.109  17.037  0.00  0.00    +0.000 OA
ATOM     18  H   UNL     1       8.492   3.706  16.405  0.00  0.00    +0.000 HD
ENDBRANCH  16  17
ENDBRANCH  12  16
ENDBRANCH   1  12
BRANCH   3  19
ATOM     19  C   UNL     1       2.486   7.740  17.532  0.00  0.00    +0.000 C 
BRANCH  19  20
ATOM     20  C   UNL     1       1.735   8.758  18.363  0.00  0.00    +0.000 A 
ATOM     21  C   UNL     1       1.411  10.048  17.987  0.00  0.00    +0.000 A 
ATOM     22  N   UNL     1       1.057  10.645  19.162  0.00  0.00    +0.000 N 
ATOM     23  C   UNL     1       1.250  11.957  19.570  0.00  0.00    +0.000 A 
ATOM     24  C   UNL     1       0.919  12.294  20.836  0.00  0.00    +0.000 A 
ATOM     25  C   UNL     1       0.072  11.346  21.579  0.00  0.00    +0.000 A 
ATOM     26 CL   UNL     1      -0.889  11.950  22.887  0.00  0.00    +0.000 Cl
ATOM     27  C   UNL     1      -0.067  10.061  21.175  0.00  0.00    +0.000 A 
ATOM     28  C   UNL     1       0.636   9.632  20.010  0.00  0.00    +0.000 A 
ATOM     29  N   UNL     1       1.102   8.472  19.574  0.00  0.00    +0.000 NA
BRANCH  24  30
ATOM     30  O   UNL     1       1.323  13.420  21.524  0.00  0.00    +0.000 OA
BRANCH  30  31
ATOM     31  C   UNL     1       1.877  14.480  20.740  0.00  0.00    +0.000 C 
BRANCH  31  32
ATOM     32  C   UNL     1       0.900  15.609  20.604  0.00  0.00    +0.000 C 
ATOM     33  C   UNL     1       1.087  16.750  19.633  0.00  0.00    +0.000 C 
ATOM     34  C   UNL     1       0.068  15.685  19.343  0.00  0.00    +0.000 C 
ENDBRANCH  31  32
ENDBRANCH  30  31
ENDBRANCH  24  30
ENDBRANCH  19  20
ENDBRANCH   3  19
TORSDOF 8
ENDMDL
MODEL 6
REMARK VINA RESULT:      -8.5      2.090      2.789
REMARK  Name = 
REMARK  8 active torsions:
REMARK  status: ('A' for Active; 'I' for Inactive)
REMARK    1  A    between atoms: C_2  and  O_3
REMARK    2  A    between atoms: C_2  and  C_4
REMARK    3  A    between atoms: C_4  and  C_5
REMARK    4  A    between atoms: N_7  and  C_8
REMARK    5  A    between atoms: C_8  and  C_9
REMARK    6  A    between atoms: C_13  and  O_14
REMARK    7  A    between atoms: O_14  and  C_15
REMARK    8  A    between atoms: C_15  and  C_16
REMARK                            x       y       z     vdW  Elec       q    Type
REMARK                         _______ _______ _______ _____ _____    ______ ____
ROOT
ATOM      1  C   UNL     1       4.984   5.490  17.780  0.00  0.00    +0.000 A 
ATOM      2  N   UNL     1       4.104   6.433  17.568  0.00  0.00    +0.000 NA
ATOM      3  N   UNL     1       3.044   6.574  18.447  0.00  0.00    +0.000 N 
ATOM      4  C   UNL     1       2.652   5.438  19.224  0.00  0.00    +0.000 A 
ATOM      5  C   UNL     1       1.354   5.241  19.722  0.00  0.00    +0.000 A 
ATOM      6  C   UNL     1       1.016   4.110  20.478  0.00  0.00    +0.000 A 
ATOM      7  C   UNL     1       1.972   3.148  20.779  0.00  0.00    +0.000 A 
ATOM      8  C   UNL     1       3.269   3.306  20.310  0.00  0.00    +0.000 A 
ATOM      9  C   UNL     1       3.580   4.435  19.546  0.00  0.00    +0.000 A 
ATOM     10  C   UNL     1       4.928   4.548  18.954  0.00  0.00    +0.000 A 
ATOM     11  O   UNL     1       5.870   3.887  19.334  0.00  0.00    +0.000 OA
ENDROOT
BRANCH   1  12
ATOM     12  C   UNL     1       5.852   5.119  16.623  0.00  0.00    +0.000 C 
ATOM     13  C   UNL     1       5.322   5.130  15.179  0.00  0.00    +0.000 C 
ATOM     14  C   UNL     1       5.528   3.824  15.874  0.00  0.00    +0.000 C 
BRANCH  12  16
ATOM     15  O   UNL     1       7.741   6.597  16.636  0.00  0.00    +0.000 OA
ATOM     16  C   UNL     1       7.310   5.461  16.825  0.00  0.00    +0.000 C 
BRANCH  16  17
ATOM     17  O   UNL     1       8.103   4.438  17.202  0.00  0.00    +0.000 OA
ATOM     18  H   UNL     1       7.660   3.566  17.113  0.00  0.00    +0.000 HD
ENDBRANCH  16  17
ENDBRANCH  12  16
ENDBRANCH   1  12
BRANCH   3  19
ATOM     19  C   UNL     1       1.929   7.506  18.035  0.00  0.00    +0.000 C 
BRANCH  19  20
ATOM     20  C   UNL     1       1.548   8.739  18.825  0.00  0.00    +0.000 A 
ATOM     21  C   UNL     1       1.252   8.793  20.174  0.00  0.00    +0.000 A 
ATOM     22  N   UNL     1       0.660  10.013  20.324  0.00  0.00    +0.000 N 
ATOM     23  C   UNL     1      -0.366  10.389  21.178  0.00  0.00    +0.000 A 
ATOM     24  C   UNL     1      -0.875  11.634  21.066  0.00  0.00    +0.000 A 
ATOM     25  C   UNL     1      -0.091  12.609  20.289  0.00  0.00    +0.000 A 
ATOM     26 CL   UNL     1      -0.313  14.295  20.617  0.00  0.00    +0.000 Cl
ATOM     27  C   UNL     1       0.881  12.209  19.435  0.00  0.00    +0.000 A 
ATOM     28  C   UNL     1       1.128  10.811  19.291  0.00  0.00    +0.000 A 
ATOM     29  N   UNL     1       1.614  10.042  18.328  0.00  0.00    +0.000 NA
BRANCH  24  30
ATOM     30  O   UNL     1      -2.078  12.085  21.574  0.00  0.00    +0.000 OA
BRANCH  30  31
ATOM     31  C   UNL     1      -2.132  12.299  22.986  0.00  0.00    +0.000 C 
BRANCH  31  32
ATOM     32  C   UNL     1      -3.414  12.971  23.375  0.00  0.00    +0.000 C 
ATOM     33  C   UNL     1      -4.260  12.524  24.543  0.00  0.00    +0.000 C 
ATOM     34  C   UNL     1      -3.438  13.776  24.655  0.00  0.00    +0.000 C 
ENDBRANCH  31  32
ENDBRANCH  30  31
ENDBRANCH  24  30
ENDBRANCH  19  20
ENDBRANCH   3  19
TORSDOF 8
ENDMDL
MODEL 7
REMARK VINA RESULT:      -8.5      1.743      2.786
REMARK  Name = 
REMARK  8 active torsions:
REMARK  status: ('A' for Active; 'I' for Inactive)
REMARK    1  A    between atoms: C_2  and  O_3
REMARK    2  A    between atoms: C_2  and  C_4
REMARK    3  A    between atoms: C_4  and  C_5
REMARK    4  A    between atoms: N_7  and  C_8
REMARK    5  A    between atoms: C_8  and  C_9
REMARK    6  A    between atoms: C_13  and  O_14
REMARK    7  A    between atoms: O_14  and  C_15
REMARK    8  A    between atoms: C_15  and  C_16
REMARK                            x       y       z     vdW  Elec       q    Type
REMARK                         _______ _______ _______ _____ _____    ______ ____
ROOT
ATOM      1  C   UNL     1       5.559   6.176  18.245  0.00  0.00    +0.000 A 
ATOM      2  N   UNL     1       4.672   7.080  17.919  0.00  0.00    +0.000 NA
ATOM      3  N   UNL     1       3.330   6.811  18.127  0.00  0.00    +0.000 N 
ATOM      4  C   UNL     1       2.916   5.443  18.198  0.00  0.00    +0.000 A 
ATOM      5  C   UNL     1       1.624   4.999  17.873  0.00  0.00    +0.000 A 
ATOM      6  C   UNL     1       1.264   3.647  17.954  0.00  0.00    +0.000 A 
ATOM      7  C   UNL     1       2.180   2.696  18.385  0.00  0.00    +0.000 A 
ATOM      8  C   UNL     1       3.467   3.092  18.720  0.00  0.00    +0.000 A 
ATOM      9  C   UNL     1       3.808   4.444  18.617  0.00  0.00    +0.000 A 
ATOM     10  C   UNL     1       5.206   4.850  18.865  0.00  0.00    +0.000 A 
ATOM     11  O   UNL     1       6.003   4.144  19.445  0.00  0.00    +0.000 OA
ENDROOT
BRANCH   1  12
ATOM     12  C   UNL     1       6.917   6.332  17.645  0.00  0.00    +0.000 C 
ATOM     13  C   UNL     1       8.137   6.725  18.496  0.00  0.00    +0.000 C 
ATOM     14  C   UNL     1       7.517   7.739  17.591  0.00  0.00    +0.000 C 
BRANCH  12  16
ATOM     15  O   UNL     1       7.913   4.450  16.541  0.00  0.00    +0.000 OA
ATOM     16  C   UNL     1       7.166   5.422  16.464  0.00  0.00    +0.000 C 
BRANCH  16  17
ATOM     17  O   UNL     1       6.533   5.761  15.323  0.00  0.00    +0.000 OA
ATOM     18  H   UNL     1       6.538   6.731  15.163  0.00  0.00    +0.000 HD
ENDBRANCH  16  17
ENDBRANCH  12  16
ENDBRANCH   1  12
BRANCH   3  19
ATOM     19  C   UNL     1       2.335   7.770  17.517  0.00  0.00    +0.000 C 
BRANCH  19  20
ATOM     20  C   UNL     1       1.511   8.739  18.337  0.00  0.00    +0.000 A 
ATOM     21  C   UNL     1       0.587   9.646  17.854  0.00  0.00    +0.000 A 
ATOM     22  N   UNL     1       0.382  10.487  18.909  0.00  0.00    +0.000 N 
ATOM     23  C   UNL     1       0.125  11.851  18.905  0.00  0.00    +0.000 A 
ATOM     24  C   UNL     1       0.075  12.502  20.087  0.00  0.00    +0.000 A 
ATOM     25  C   UNL     1      -0.042  11.675  21.300  0.00  0.00    +0.000 A 
ATOM     26 CL   UNL     1      -0.732  12.387  22.719  0.00  0.00    +0.000 Cl
ATOM     27  C   UNL     1       0.252  10.353  21.281  0.00  0.00    +0.000 A 
ATOM     28  C   UNL     1       0.691   9.770  20.055  0.00  0.00    +0.000 A 
ATOM     29  N   UNL     1       1.443   8.729  19.732  0.00  0.00    +0.000 NA
BRANCH  24  30
ATOM     30  O   UNL     1       0.159  13.866  20.284  0.00  0.00    +0.000 OA
BRANCH  30  31
ATOM     31  C   UNL     1       0.549  14.648  19.153  0.00  0.00    +0.000 C 
BRANCH  31  32
ATOM     32  C   UNL     1       1.990  15.049  19.254  0.00  0.00    +0.000 C 
ATOM     33  C   UNL     1       2.898  15.178  18.054  0.00  0.00    +0.000 C 
ATOM     34  C   UNL     1       2.389  16.414  18.738  0.00  0.00    +0.000 C 
ENDBRANCH  31  32
ENDBRANCH  30  31
ENDBRANCH  24  30
ENDBRANCH  19  20
ENDBRANCH   3  19
TORSDOF 8
ENDMDL
MODEL 8
REMARK VINA RESULT:      -8.4      1.535      2.090
REMARK  Name = 
REMARK  8 active torsions:
REMARK  status: ('A' for Active; 'I' for Inactive)
REMARK    1  A    between atoms: C_2  and  O_3
REMARK    2  A    between atoms: C_2  and  C_4
REMARK    3  A    between atoms: C_4  and  C_5
REMARK    4  A    between atoms: N_7  and  C_8
REMARK    5  A    between atoms: C_8  and  C_9
REMARK    6  A    between atoms: C_13  and  O_14
REMARK    7  A    between atoms: O_14  and  C_15
REMARK    8  A    between atoms: C_15  and  C_16
REMARK                            x       y       z     vdW  Elec       q    Type
REMARK                         _______ _______ _______ _____ _____    ______ ____
ROOT
ATOM      1  C   UNL     1       4.947   5.486  17.716  0.00  0.00    +0.000 A 
ATOM      2  N   UNL     1       4.041   6.404  17.498  0.00  0.00    +0.000 NA
ATOM      3  N   UNL     1       2.994   6.541  18.393  0.00  0.00    +0.000 N 
ATOM      4  C   UNL     1       2.643   5.415  19.203  0.00  0.00    +0.000 A 
ATOM      5  C   UNL     1       1.359   5.200  19.728  0.00  0.00    +0.000 A 
ATOM      6  C   UNL     1       1.060   4.079  20.515  0.00  0.00    +0.000 A 
ATOM      7  C   UNL     1       2.044   3.146  20.821  0.00  0.00    +0.000 A 
ATOM      8  C   UNL     1       3.328   3.323  20.326  0.00  0.00    +0.000 A 
ATOM      9  C   UNL     1       3.599   4.441  19.530  0.00  0.00    +0.000 A 
ATOM     10  C   UNL     1       4.934   4.571  18.911  0.00  0.00    +0.000 A 
ATOM     11  O   UNL     1       5.897   3.941  19.289  0.00  0.00    +0.000 OA
ENDROOT
BRANCH   1  12
ATOM     12  C   UNL     1       5.803   5.109  16.552  0.00  0.00    +0.000 C 
ATOM     13  C   UNL     1       5.256   5.104  15.114  0.00  0.00    +0.000 C 
ATOM     14  C   UNL     1       5.476   3.806  15.819  0.00  0.00    +0.000 C 
BRANCH  12  16
ATOM     15  O   UNL     1       7.679   6.603  16.563  0.00  0.00    +0.000 OA
ATOM     16  C   UNL     1       7.262   5.460  16.733  0.00  0.00    +0.000 C 
BRANCH  16  17
ATOM     17  O   UNL     1       8.071   4.436  17.072  0.00  0.00    +0.000 OA
ATOM     18  H   UNL     1       8.289   3.859  16.306  0.00  0.00    +0.000 HD
ENDBRANCH  16  17
ENDBRANCH  12  16
ENDBRANCH   1  12
BRANCH   3  19
ATOM     19  C   UNL     1       1.851   7.437  17.981  0.00  0.00    +0.000 C 
BRANCH  19  20
ATOM     20  C   UNL     1       1.725   8.877  18.430  0.00  0.00    +0.000 A 
ATOM     21  C   UNL     1       1.201   9.322  19.629  0.00  0.00    +0.000 A 
ATOM     22  N   UNL     1       1.002  10.655  19.416  0.00  0.00    +0.000 N 
ATOM     23  C   UNL     1      -0.004  11.478  19.902  0.00  0.00    +0.000 A 
ATOM     24  C   UNL     1      -0.066  12.752  19.458  0.00  0.00    +0.000 A 
ATOM     25  C   UNL     1       1.121  13.274  18.759  0.00  0.00    +0.000 A 
ATOM     26 CL   UNL     1       1.376  14.987  18.735  0.00  0.00    +0.000 Cl
ATOM     27  C   UNL     1       2.067  12.443  18.263  0.00  0.00    +0.000 A 
ATOM     28  C   UNL     1       1.889  11.035  18.421  0.00  0.00    +0.000 A 
ATOM     29  N   UNL     1       2.292   9.962  17.758  0.00  0.00    +0.000 NA
BRANCH  24  30
ATOM     30  O   UNL     1      -1.143  13.610  19.556  0.00  0.00    +0.000 OA
BRANCH  30  31
ATOM     31  C   UNL     1      -1.564  13.953  20.878  0.00  0.00    +0.000 C 
BRANCH  31  32
ATOM     32  C   UNL     1      -3.055  13.863  21.003  0.00  0.00    +0.000 C 
ATOM     33  C   UNL     1      -3.872  12.763  20.369  0.00  0.00    +0.000 C 
ATOM     34  C   UNL     1      -3.634  12.753  21.852  0.00  0.00    +0.000 C 
ENDBRANCH  31  32
ENDBRANCH  30  31
ENDBRANCH  24  30
ENDBRANCH  19  20
ENDBRANCH   3  19
TORSDOF 8
ENDMDL
MODEL 9
REMARK VINA RESULT:      -8.4      2.413      4.326
REMARK  Name = 
REMARK  8 active torsions:
REMARK  status: ('A' for Active; 'I' for Inactive)
REMARK    1  A    between atoms: C_2  and  O_3
REMARK    2  A    between atoms: C_2  and  C_4
REMARK    3  A    between atoms: C_4  and  C_5
REMARK    4  A    between atoms: N_7  and  C_8
REMARK    5  A    between atoms: C_8  and  C_9
REMARK    6  A    between atoms: C_13  and  O_14
REMARK    7  A    between atoms: O_14  and  C_15
REMARK    8  A    between atoms: C_15  and  C_16
REMARK                            x       y       z     vdW  Elec       q    Type
REMARK                         _______ _______ _______ _____ _____    ______ ____
ROOT
ATOM      1  C   UNL     1       2.516   4.038  18.511  0.00  0.00    +0.000 A 
ATOM      2  N   UNL     1       2.419   5.337  18.633  0.00  0.00    +0.000 NA
ATOM      3  N   UNL     1       3.146   6.148  17.779  0.00  0.00    +0.000 N 
ATOM      4  C   UNL     1       4.319   5.606  17.164  0.00  0.00    +0.000 A 
ATOM      5  C   UNL     1       5.409   6.383  16.739  0.00  0.00    +0.000 A 
ATOM      6  C   UNL     1       6.540   5.807  16.143  0.00  0.00    +0.000 A 
ATOM      7  C   UNL     1       6.607   4.435  15.933  0.00  0.00    +0.000 A 
ATOM      8  C   UNL     1       5.550   3.631  16.335  0.00  0.00    +0.000 A 
ATOM      9  C   UNL     1       4.439   4.226  16.940  0.00  0.00    +0.000 A 
ATOM     10  C   UNL     1       3.364   3.361  17.468  0.00  0.00    +0.000 A 
ATOM     11  O   UNL     1       3.235   2.201  17.143  0.00  0.00    +0.000 OA
ENDROOT
BRANCH   1  12
ATOM     12  C   UNL     1       2.054   3.226  19.676  0.00  0.00    +0.000 C 
ATOM     13  C   UNL     1       0.824   2.306  19.583  0.00  0.00    +0.000 C 
ATOM     14  C   UNL     1       0.718   3.600  20.322  0.00  0.00    +0.000 C 
BRANCH  12  16
ATOM     15  O   UNL     1       4.296   2.526  20.166  0.00  0.00    +0.000 OA
ATOM     16  C   UNL     1       3.174   2.789  20.593  0.00  0.00    +0.000 C 
BRANCH  16  17
ATOM     17  O   UNL     1       2.853   2.689  21.898  0.00  0.00    +0.000 OA
ATOM     18  H   UNL     1       3.093   1.815  22.279  0.00  0.00    +0.000 HD
ENDBRANCH  16  17
ENDBRANCH  12  16
ENDBRANCH   1  12
BRANCH   3  19
ATOM     19  C   UNL     1       3.195   7.621  18.107  0.00  0.00    +0.000 C 
BRANCH  19  20
ATOM     20  C   UNL     1       2.114   8.330  18.894  0.00  0.00    +0.000 A 
ATOM     21  C   UNL     1       1.166   9.200  18.389  0.00  0.00    +0.000 A 
ATOM     22  N   UNL     1       0.666   9.809  19.503  0.00  0.00    +0.000 N 
ATOM     23  C   UNL     1       0.222  11.114  19.662  0.00  0.00    +0.000 A 
ATOM     24  C   UNL     1      -0.123  11.532  20.899  0.00  0.00    +0.000 A 
ATOM     25  C   UNL     1      -0.326  10.493  21.923  0.00  0.00    +0.000 A 
ATOM     26 CL   UNL     1      -1.344  10.857  23.275  0.00  0.00    +0.000 Cl
ATOM     27  C   UNL     1       0.152   9.238  21.754  0.00  0.00    +0.000 A 
ATOM     28  C   UNL     1       0.873   8.937  20.560  0.00  0.00    +0.000 A 
ATOM     29  N   UNL     1       1.811   8.062  20.230  0.00  0.00    +0.000 NA
BRANCH  24  30
ATOM     30  O   UNL     1      -0.269  12.840  21.319  0.00  0.00    +0.000 OA
BRANCH  30  31
ATOM     31  C   UNL     1      -1.271  13.612  20.654  0.00  0.00    +0.000 C 
BRANCH  31  32
ATOM     32  C   UNL     1      -2.636  13.283  21.180  0.00  0.00    +0.000 C 
ATOM     33  C   UNL     1      -3.876  14.053  20.799  0.00  0.00    +0.000 C 
ATOM     34  C   UNL     1      -3.644  12.685  20.224  0.00  0.00    +0.000 C 
ENDBRANCH  31  32
ENDBRANCH  30  31
ENDBRANCH  24  30
ENDBRANCH  19  20
ENDBRANCH   3  19
TORSDOF 8
ENDMDL
