MODEL 1
REMARK VINA RESULT:      -8.1      0.000      0.000
REMARK  Name = 
REMARK  3 active torsions:
REMARK  status: ('A' for Active; 'I' for Inactive)
REMARK    1  A    between atoms: C_2  and  C_20
REMARK    2  A    between atoms: N_3  and  C_4
REMARK    3  A    between atoms: N_13  and  C_14
REMARK                            x       y       z     vdW  Elec       q    Type
REMARK                         _______ _______ _______ _____ _____    ______ ____
ROOT
ATOM      1  C   UNL     1       2.334   7.644  18.536  0.00  0.00    +0.000 A 
ATOM      2  C   UNL     1       1.887   8.704  17.765  0.00  0.00    +0.000 A 
ATOM      3  C   UNL     1       1.177   9.756  18.339  0.00  0.00    +0.000 A 
ATOM      4  C   UNL     1       0.788   9.800  19.678  0.00  0.00    +0.000 A 
ATOM      5  C   UNL     1       1.217   8.697  20.454  0.00  0.00    +0.000 A 
ATOM      6  C   UNL     1       1.979   7.642  19.884  0.00  0.00    +0.000 A 
ATOM      7  C   UNL     1       0.974   8.639  21.939  0.00  0.00    +0.000 C 
ATOM      8  C   UNL     1      -0.081   9.635  22.361  0.00  0.00    +0.000 C 
ATOM      9  C   UNL     1       0.219  10.973  21.703  0.00  0.00    +0.000 C 
ATOM     10  N   UNL     1       0.113  10.918  20.225  0.00  0.00    +0.000 N 
ENDROOT
BRANCH  10  11
ATOM     11  C   UNL     1      -1.176  11.432  19.620  0.00  0.00    +0.000 C 
ATOM     12  C   UNL     1      -1.080  12.173  18.272  0.00  0.00    +0.000 C 
ATOM     13  C   UNL     1      -0.405  13.545  18.416  0.00  0.00    +0.000 C 
ATOM     14  N   UNL     1      -1.162  14.422  19.306  0.00  0.00    +0.000 NA
ATOM     15  C   UNL     1      -1.280  13.797  20.623  0.00  0.00    +0.000 C 
ATOM     16  C   UNL     1      -1.939  12.420  20.550  0.00  0.00    +0.000 C 
ATOM     17  H   UNL     1      -2.088  14.584  18.912  0.00  0.00    +0.000 HD
ENDBRANCH  10  11
BRANCH   1  20
ATOM     18  N   UNL     1       3.736   5.413  19.940  0.00  0.00    +0.000 NA
ATOM     19  C   UNL     1       4.072   5.881  18.772  0.00  0.00    +0.000 C 
ATOM     20  N   UNL     1       3.222   6.680  18.032  0.00  0.00    +0.000 N 
ATOM     21  H   UNL     1       2.781   5.722  20.144  0.00  0.00    +0.000 HD
ATOM     22  H   UNL     1       3.491   6.839  17.066  0.00  0.00    +0.000 HD
BRANCH  19  23
ATOM     23  C   UNL     1       5.380   5.452  18.294  0.00  0.00    +0.000 A 
ATOM     24  C   UNL     1       6.585   5.476  18.977  0.00  0.00    +0.000 A 
ATOM     25  C   UNL     1       7.663   4.965  18.203  0.00  0.00    +0.000 A 
ATOM     26  C   UNL     1       7.253   4.581  16.946  0.00  0.00    +0.000 A 
ATOM     27  S   UNL     1       5.576   4.830  16.711  0.00  0.00    +0.000 S 
ENDBRANCH  19  23
ENDBRANCH   1  20
TORSDOF 3
ENDMDL
MODEL 2
REMARK VINA RESULT:      -8.0      2.986      8.463
REMARK  Name = 
REMARK  3 active torsions:
REMARK  status: ('A' for Active; 'I' for Inactive)
REMARK    1  A    between atoms: C_2  and  C_20
REMARK    2  A    between atoms: N_3  and  C_4
REMARK    3  A    between atoms: N_13  and  C_14
REMARK                            x       y       z     vdW  Elec       q    Type
REMARK                         _______ _______ _______ _____ _____    ______ ____
ROOT
ATOM      1  C   UNL     1       1.036   9.508  19.326  0.00  0.00    +0.000 A 
ATOM      2  C   UNL     1       1.717   9.619  18.126  0.00  0.00    +0.000 A 
ATOM      3  C   UNL     1       2.512   8.577  17.656  0.00  0.00    +0.000 A 
ATOM      4  C   UNL     1       2.759   7.399  18.363  0.00  0.00    +0.000 A 
ATOM      5  C   UNL     1       2.088   7.306  19.605  0.00  0.00    +0.000 A 
ATOM      6  C   UNL     1       1.241   8.347  20.071  0.00  0.00    +0.000 A 
ATOM      7  C   UNL     1       2.161   6.058  20.446  0.00  0.00    +0.000 C 
ATOM      8  C   UNL     1       3.303   5.169  20.009  0.00  0.00    +0.000 C 
ATOM      9  C   UNL     1       3.278   5.051  18.494  0.00  0.00    +0.000 C 
ATOM     10  N   UNL     1       3.532   6.346  17.817  0.00  0.00    +0.000 N 
ENDROOT
BRANCH  10  11
ATOM     11  C   UNL     1       4.941   6.583  17.316  0.00  0.00    +0.000 C 
ATOM     12  C   UNL     1       5.247   6.199  15.855  0.00  0.00    +0.000 C 
ATOM     13  C   UNL     1       5.251   4.677  15.648  0.00  0.00    +0.000 C 
ATOM     14  N   UNL     1       6.278   4.030  16.460  0.00  0.00    +0.000 NA
ATOM     15  C   UNL     1       6.045   4.329  17.874  0.00  0.00    +0.000 C 
ATOM     16  C   UNL     1       6.022   5.832  18.147  0.00  0.00    +0.000 C 
ATOM     17  H   UNL     1       7.195   4.372  16.178  0.00  0.00    +0.000 HD
ENDBRANCH  10  11
BRANCH   1  20
ATOM     18  N   UNL     1       1.277  11.820  21.199  0.00  0.00    +0.000 NA
ATOM     19  C   UNL     1       0.151  11.291  20.816  0.00  0.00    +0.000 C 
ATOM     20  N   UNL     1       0.072  10.448  19.724  0.00  0.00    +0.000 N 
ATOM     21  H   UNL     1       2.009  11.517  20.549  0.00  0.00    +0.000 HD
ATOM     22  H   UNL     1      -0.864  10.239  19.392  0.00  0.00    +0.000 HD
BRANCH  19  23
ATOM     23  C   UNL     1      -1.013  11.702  21.592  0.00  0.00    +0.000 A 
ATOM     24  C   UNL     1      -1.350  11.328  22.882  0.00  0.00    +0.000 A 
ATOM     25  C   UNL     1      -2.555  11.935  23.330  0.00  0.00    +0.000 A 
ATOM     26  C   UNL     1      -3.112  12.741  22.363  0.00  0.00    +0.000 A 
ATOM     27  S   UNL     1      -2.177  12.768  20.930  0.00  0.00    +0.000 S 
ENDBRANCH  19  23
ENDBRANCH   1  20
TORSDOF 3
ENDMDL
MODEL 3
REMARK VINA RESULT:      -8.0      2.875      8.250
REMARK  Name = 
REMARK  3 active torsions:
REMARK  status: ('A' for Active; 'I' for Inactive)
REMARK    1  A    between atoms: C_2  and  C_20
REMARK    2  A    between atoms: N_3  and  C_4
REMARK    3  A    between atoms: N_13  and  C_14
REMARK                            x       y       z     vdW  Elec       q    Type
REMARK                         _______ _______ _______ _____ _____    ______ ____
ROOT
ATOM      1  C   UNL     1       1.281   8.753  19.838  0.00  0.00    +0.000 A 
ATOM      2  C   UNL     1       1.160   7.846  20.877  0.00  0.00    +0.000 A 
ATOM      3  C   UNL     1       1.860   6.642  20.860  0.00  0.00    +0.000 A 
ATOM      4  C   UNL     1       2.652   6.210  19.795  0.00  0.00    +0.000 A 
ATOM      5  C   UNL     1       2.742   7.126  18.720  0.00  0.00    +0.000 A 
ATOM      6  C   UNL     1       2.066   8.375  18.750  0.00  0.00    +0.000 A 
ATOM      7  C   UNL     1       3.640   6.863  17.539  0.00  0.00    +0.000 C 
ATOM      8  C   UNL     1       4.053   5.411  17.477  0.00  0.00    +0.000 C 
ATOM      9  C   UNL     1       4.492   4.969  18.864  0.00  0.00    +0.000 C 
ATOM     10  N   UNL     1       3.385   5.001  19.850  0.00  0.00    +0.000 N 
ENDROOT
BRANCH  10  11
ATOM     11  C   UNL     1       2.705   3.681  20.147  0.00  0.00    +0.000 C 
ATOM     12  C   UNL     1       3.437   2.395  19.714  0.00  0.00    +0.000 C 
ATOM     13  C   UNL     1       3.458   2.231  18.187  0.00  0.00    +0.000 C 
ATOM     14  N   UNL     1       2.107   2.131  17.641  0.00  0.00    +0.000 NA
ATOM     15  C   UNL     1       1.349   3.333  17.991  0.00  0.00    +0.000 C 
ATOM     16  C   UNL     1       1.294   3.558  19.501  0.00  0.00    +0.000 C 
ATOM     17  H   UNL     1       1.649   1.305  18.024  0.00  0.00    +0.000 HD
ENDBRANCH  10  11
BRANCH   1  20
ATOM     18  N   UNL     1      -0.374  10.277  17.875  0.00  0.00    +0.000 NA
ATOM     19  C   UNL     1       0.275  10.811  18.870  0.00  0.00    +0.000 C 
ATOM     20  N   UNL     1       0.756  10.053  19.920  0.00  0.00    +0.000 N 
ATOM     21  H   UNL     1      -0.457   9.272  18.051  0.00  0.00    +0.000 HD
ATOM     22  H   UNL     1       1.077  10.571  20.731  0.00  0.00    +0.000 HD
BRANCH  19  23
ATOM     23  C   UNL     1       0.399  12.262  18.812  0.00  0.00    +0.000 A 
ATOM     24  C   UNL     1      -0.607  13.194  18.623  0.00  0.00    +0.000 A 
ATOM     25  C   UNL     1      -0.123  14.532  18.635  0.00  0.00    +0.000 A 
ATOM     26  C   UNL     1       1.241  14.580  18.816  0.00  0.00    +0.000 A 
ATOM     27  S   UNL     1       1.925  13.020  18.978  0.00  0.00    +0.000 S 
ENDBRANCH  19  23
ENDBRANCH   1  20
TORSDOF 3
ENDMDL
MODEL 4
REMARK VINA RESULT:      -7.9      2.925      8.357
REMARK  Name = 
REMARK  3 active torsions:
REMARK  status: ('A' for Active; 'I' for Inactive)
REMARK    1  A    between atoms: C_2  and  C_20
REMARK    2  A    between atoms: N_3  and  C_4
REMARK    3  A    between atoms: N_13  and  C_14
REMARK                            x       y       z     vdW  Elec       q    Type
REMARK                         _______ _______ _______ _____ _____    ______ ____
ROOT
ATOM      1  C   UNL     1       1.457   8.839  19.536  0.00  0.00    +0.000 A 
ATOM      2  C   UNL     1       1.171   7.811  20.417  0.00  0.00    +0.000 A 
ATOM      3  C   UNL     1       1.798   6.573  20.299  0.00  0.00    +0.000 A 
ATOM      4  C   UNL     1       2.675   6.233  19.268  0.00  0.00    +0.000 A 
ATOM      5  C   UNL     1       2.935   7.277  18.349  0.00  0.00    +0.000 A 
ATOM      6  C   UNL     1       2.333   8.556  18.489  0.00  0.00    +0.000 A 
ATOM      7  C   UNL     1       3.939   7.113  17.238  0.00  0.00    +0.000 C 
ATOM      8  C   UNL     1       4.272   5.657  17.011  0.00  0.00    +0.000 C 
ATOM      9  C   UNL     1       4.531   5.000  18.358  0.00  0.00    +0.000 C 
ATOM     10  N   UNL     1       3.327   4.978  19.222  0.00  0.00    +0.000 N 
ENDROOT
BRANCH  10  11
ATOM     11  C   UNL     1       2.543   3.683  19.259  0.00  0.00    +0.000 C 
ATOM     12  C   UNL     1       1.477   3.531  20.361  0.00  0.00    +0.000 C 
ATOM     13  C   UNL     1       2.106   3.383  21.755  0.00  0.00    +0.000 C 
ATOM     14  N   UNL     1       2.947   2.192  21.838  0.00  0.00    +0.000 NA
ATOM     15  C   UNL     1       4.006   2.269  20.831  0.00  0.00    +0.000 C 
ATOM     16  C   UNL     1       3.445   2.424  19.418  0.00  0.00    +0.000 C 
ATOM     17  H   UNL     1       2.374   1.364  21.680  0.00  0.00    +0.000 HD
ENDBRANCH  10  11
BRANCH   1  20
ATOM     18  N   UNL     1      -0.460  10.485  17.944  0.00  0.00    +0.000 NA
ATOM     19  C   UNL     1       0.372  10.961  18.825  0.00  0.00    +0.000 C 
ATOM     20  N   UNL     1       1.003  10.150  19.750  0.00  0.00    +0.000 N 
ATOM     21  H   UNL     1      -0.547   9.476  18.101  0.00  0.00    +0.000 HD
ATOM     22  H   UNL     1       1.479  10.629  20.507  0.00  0.00    +0.000 HD
BRANCH  19  23
ATOM     23  C   UNL     1       0.537  12.409  18.791  0.00  0.00    +0.000 A 
ATOM     24  C   UNL     1      -0.448  13.374  18.671  0.00  0.00    +0.000 A 
ATOM     25  C   UNL     1       0.075  14.696  18.687  0.00  0.00    +0.000 A 
ATOM     26  C   UNL     1       1.447  14.701  18.803  0.00  0.00    +0.000 A 
ATOM     27  S   UNL     1       2.091  13.119  18.899  0.00  0.00    +0.000 S 
ENDBRANCH  19  23
ENDBRANCH   1  20
TORSDOF 3
ENDMDL
MODEL 5
REMARK VINA RESULT:      -7.9      2.013      2.361
REMARK  Name = 
REMARK  3 active torsions:
REMARK  status: ('A' for Active; 'I' for Inactive)
REMARK    1  A    between atoms: C_2  and  C_20
REMARK    2  A    between atoms: N_3  and  C_4
REMARK    3  A    between atoms: N_13  and  C_14
REMARK                            x       y       z     vdW  Elec       q    Type
REMARK                         _______ _______ _______ _____ _____    ______ ____
ROOT
ATOM      1  C   UNL     1       1.805   7.935  20.225  0.00  0.00    +0.000 A 
ATOM      2  C   UNL     1       1.628   8.881  19.230  0.00  0.00    +0.000 A 
ATOM      3  C   UNL     1       0.913  10.051  19.475  0.00  0.00    +0.000 A 
ATOM      4  C   UNL     1       0.258  10.333  20.675  0.00  0.00    +0.000 A 
ATOM      5  C   UNL     1       0.412   9.345  21.676  0.00  0.00    +0.000 A 
ATOM      6  C   UNL     1       1.176   8.170  21.447  0.00  0.00    +0.000 A 
ATOM      7  C   UNL     1      -0.140   9.540  23.064  0.00  0.00    +0.000 C 
ATOM      8  C   UNL     1      -1.164  10.651  23.094  0.00  0.00    +0.000 C 
ATOM      9  C   UNL     1      -0.611  11.846  22.333  0.00  0.00    +0.000 C 
ATOM     10  N   UNL     1      -0.411  11.561  20.892  0.00  0.00    +0.000 N 
ENDROOT
BRANCH  10  11
ATOM     11  C   UNL     1      -1.493  12.045  19.950  0.00  0.00    +0.000 C 
ATOM     12  C   UNL     1      -1.071  12.398  18.510  0.00  0.00    +0.000 C 
ATOM     13  C   UNL     1      -0.220  13.676  18.455  0.00  0.00    +0.000 C 
ATOM     14  N   UNL     1      -0.959  14.832  18.956  0.00  0.00    +0.000 NA
ATOM     15  C   UNL     1      -1.378  14.584  20.336  0.00  0.00    +0.000 C 
ATOM     16  C   UNL     1      -2.226  13.319  20.461  0.00  0.00    +0.000 C 
ATOM     17  H   UNL     1      -1.774  14.991  18.366  0.00  0.00    +0.000 HD
ENDBRANCH  10  11
BRANCH   1  20
ATOM     18  N   UNL     1       1.855   5.783  18.156  0.00  0.00    +0.000 NA
ATOM     19  C   UNL     1       2.478   5.727  19.298  0.00  0.00    +0.000 C 
ATOM     20  N   UNL     1       2.686   6.852  20.074  0.00  0.00    +0.000 N 
ATOM     21  H   UNL     1       1.608   6.761  17.975  0.00  0.00    +0.000 HD
ATOM     22  H   UNL     1       3.337   6.745  20.844  0.00  0.00    +0.000 HD
BRANCH  19  23
ATOM     23  C   UNL     1       2.978   4.407  19.658  0.00  0.00    +0.000 A 
ATOM     24  C   UNL     1       2.590   3.612  20.723  0.00  0.00    +0.000 A 
ATOM     25  C   UNL     1       3.285   2.371  20.762  0.00  0.00    +0.000 A 
ATOM     26  C   UNL     1       4.195   2.263  19.734  0.00  0.00    +0.000 A 
ATOM     27  S   UNL     1       4.200   3.648  18.729  0.00  0.00    +0.000 S 
ENDBRANCH  19  23
ENDBRANCH   1  20
TORSDOF 3
ENDMDL
MODEL 6
REMARK VINA RESULT:      -7.9      2.888      8.396
REMARK  Name = 
REMARK  3 active torsions:
REMARK  status: ('A' for Active; 'I' for Inactive)
REMARK    1  A    between atoms: C_2  and  C_20
REMARK    2  A    between atoms: N_3  and  C_4
REMARK    3  A    between atoms: N_13  and  C_14
REMARK                            x       y       z     vdW  Elec       q    Type
REMARK                         _______ _______ _______ _____ _____    ______ ____
ROOT
ATOM      1  C   UNL     1       1.292   9.322  19.192  0.00  0.00    +0.000 A 
ATOM      2  C   UNL     1       2.170   9.280  18.123  0.00  0.00    +0.000 A 
ATOM      3  C   UNL     1       2.894   8.125  17.837  0.00  0.00    +0.000 A 
ATOM      4  C   UNL     1       2.871   6.971  18.622  0.00  0.00    +0.000 A 
ATOM      5  C   UNL     1       1.999   7.033  19.735  0.00  0.00    +0.000 A 
ATOM      6  C   UNL     1       1.225   8.193  20.007  0.00  0.00    +0.000 A 
ATOM      7  C   UNL     1       1.774   5.838  20.624  0.00  0.00    +0.000 C 
ATOM      8  C   UNL     1       2.851   4.797  20.425  0.00  0.00    +0.000 C 
ATOM      9  C   UNL     1       3.062   4.591  18.933  0.00  0.00    +0.000 C 
ATOM     10  N   UNL     1       3.585   5.804  18.259  0.00  0.00    +0.000 N 
ENDROOT
BRANCH  10  11
ATOM     11  C   UNL     1       5.075   5.843  17.997  0.00  0.00    +0.000 C 
ATOM     12  C   UNL     1       5.570   6.759  16.860  0.00  0.00    +0.000 C 
ATOM     13  C   UNL     1       5.172   6.226  15.475  0.00  0.00    +0.000 C 
ATOM     14  N   UNL     1       5.758   4.912  15.220  0.00  0.00    +0.000 NA
ATOM     15  C   UNL     1       5.315   3.971  16.251  0.00  0.00    +0.000 C 
ATOM     16  C   UNL     1       5.676   4.448  17.657  0.00  0.00    +0.000 C 
ATOM     17  H   UNL     1       6.773   4.988  15.230  0.00  0.00    +0.000 HD
ENDBRANCH  10  11
BRANCH   1  20
ATOM     18  N   UNL     1       1.303  11.478  21.258  0.00  0.00    +0.000 NA
ATOM     19  C   UNL     1       0.276  11.161  20.523  0.00  0.00    +0.000 C 
ATOM     20  N   UNL     1       0.402  10.391  19.382  0.00  0.00    +0.000 N 
ATOM     21  H   UNL     1       2.142  11.086  20.819  0.00  0.00    +0.000 HD
ATOM     22  H   UNL     1      -0.413  10.356  18.779  0.00  0.00    +0.000 HD
BRANCH  19  23
ATOM     23  C   UNL     1      -0.992  11.725  20.968  0.00  0.00    +0.000 A 
ATOM     24  C   UNL     1      -2.002  12.265  20.190  0.00  0.00    +0.000 A 
ATOM     25  C   UNL     1      -3.109  12.712  20.962  0.00  0.00    +0.000 A 
ATOM     26  C   UNL     1      -2.905  12.515  22.309  0.00  0.00    +0.000 A 
ATOM     27  S   UNL     1      -1.390  11.788  22.632  0.00  0.00    +0.000 S 
ENDBRANCH  19  23
ENDBRANCH   1  20
TORSDOF 3
ENDMDL
MODEL 7
REMARK VINA RESULT:      -7.8      3.233      8.131
REMARK  Name = 
REMARK  3 active torsions:
REMARK  status: ('A' for Active; 'I' for Inactive)
REMARK    1  A    between atoms: C_2  and  C_20
REMARK    2  A    between atoms: N_3  and  C_4
REMARK    3  A    between atoms: N_13  and  C_14
REMARK                            x       y       z     vdW  Elec       q    Type
REMARK                         _______ _______ _______ _____ _____    ______ ____
ROOT
ATOM      1  C   UNL     1       1.380   9.093  19.109  0.00  0.00    +0.000 A 
ATOM      2  C   UNL     1       1.181   8.456  20.322  0.00  0.00    +0.000 A 
ATOM      3  C   UNL     1       1.794   7.237  20.599  0.00  0.00    +0.000 A 
ATOM      4  C   UNL     1       2.570   6.524  19.684  0.00  0.00    +0.000 A 
ATOM      5  C   UNL     1       2.741   7.162  18.433  0.00  0.00    +0.000 A 
ATOM      6  C   UNL     1       2.154   8.427  18.159  0.00  0.00    +0.000 A 
ATOM      7  C   UNL     1       3.636   6.581  17.370  0.00  0.00    +0.000 C 
ATOM      8  C   UNL     1       3.947   5.129  17.651  0.00  0.00    +0.000 C 
ATOM      9  C   UNL     1       4.334   4.986  19.114  0.00  0.00    +0.000 C 
ATOM     10  N   UNL     1       3.216   5.314  20.033  0.00  0.00    +0.000 N 
ENDROOT
BRANCH  10  11
ATOM     11  C   UNL     1       2.441   4.143  20.600  0.00  0.00    +0.000 C 
ATOM     12  C   UNL     1       3.127   2.763  20.575  0.00  0.00    +0.000 C 
ATOM     13  C   UNL     1       3.249   2.205  19.149  0.00  0.00    +0.000 C 
ATOM     14  N   UNL     1       1.937   2.017  18.534  0.00  0.00    +0.000 NA
ATOM     15  C   UNL     1       1.227   3.296  18.498  0.00  0.00    +0.000 C 
ATOM     16  C   UNL     1       1.076   3.909  19.890  0.00  0.00    +0.000 C 
ATOM     17  H   UNL     1       1.406   1.337  19.075  0.00  0.00    +0.000 HD
ENDBRANCH  10  11
BRANCH   1  20
ATOM     18  N   UNL     1       2.606  11.248  17.446  0.00  0.00    +0.000 NA
ATOM     19  C   UNL     1       1.705  11.444  18.366  0.00  0.00    +0.000 C 
ATOM     20  N   UNL     1       0.947  10.408  18.879  0.00  0.00    +0.000 N 
ATOM     21  H   UNL     1       2.600  10.254  17.200  0.00  0.00    +0.000 HD
ATOM     22  H   UNL     1       0.150  10.680  19.445  0.00  0.00    +0.000 HD
BRANCH  19  23
ATOM     23  C   UNL     1       1.527  12.835  18.763  0.00  0.00    +0.000 A 
ATOM     24  C   UNL     1       2.485  13.710  19.246  0.00  0.00    +0.000 A 
ATOM     25  C   UNL     1       1.957  15.002  19.521  0.00  0.00    +0.000 A 
ATOM     26  C   UNL     1       0.607  15.069  19.256  0.00  0.00    +0.000 A 
ATOM     27  S   UNL     1      -0.009  13.584  18.671  0.00  0.00    +0.000 S 
ENDBRANCH  19  23
ENDBRANCH   1  20
TORSDOF 3
ENDMDL
MODEL 8
REMARK VINA RESULT:      -7.8      3.047      8.352
REMARK  Name = 
REMARK  3 active torsions:
REMARK  status: ('A' for Active; 'I' for Inactive)
REMARK    1  A    between atoms: C_2  and  C_20
REMARK    2  A    between atoms: N_3  and  C_4
REMARK    3  A    between atoms: N_13  and  C_14
REMARK                            x       y       z     vdW  Elec       q    Type
REMARK                         _______ _______ _______ _____ _____    ______ ____
ROOT
ATOM      1  C   UNL     1       1.380   9.225  19.726  0.00  0.00    +0.000 A 
ATOM      2  C   UNL     1       1.853   9.210  18.426  0.00  0.00    +0.000 A 
ATOM      3  C   UNL     1       2.308   8.029  17.843  0.00  0.00    +0.000 A 
ATOM      4  C   UNL     1       2.408   6.811  18.517  0.00  0.00    +0.000 A 
ATOM      5  C   UNL     1       1.957   6.841  19.858  0.00  0.00    +0.000 A 
ATOM      6  C   UNL     1       1.451   8.032  20.444  0.00  0.00    +0.000 A 
ATOM      7  C   UNL     1       1.896   5.589  20.694  0.00  0.00    +0.000 C 
ATOM      8  C   UNL     1       2.724   4.482  20.083  0.00  0.00    +0.000 C 
ATOM      9  C   UNL     1       2.416   4.405  18.596  0.00  0.00    +0.000 C 
ATOM     10  N   UNL     1       2.828   5.627  17.865  0.00  0.00    +0.000 N 
ENDROOT
BRANCH  10  11
ATOM     11  C   UNL     1       4.148   5.561  17.126  0.00  0.00    +0.000 C 
ATOM     12  C   UNL     1       4.667   4.165  16.730  0.00  0.00    +0.000 C 
ATOM     13  C   UNL     1       5.121   3.351  17.951  0.00  0.00    +0.000 C 
ATOM     14  N   UNL     1       6.220   4.008  18.654  0.00  0.00    +0.000 NA
ATOM     15  C   UNL     1       5.796   5.341  19.086  0.00  0.00    +0.000 C 
ATOM     16  C   UNL     1       5.326   6.203  17.915  0.00  0.00    +0.000 C 
ATOM     17  H   UNL     1       7.022   4.082  18.030  0.00  0.00    +0.000 HD
ENDBRANCH  10  11
BRANCH   1  20
ATOM     18  N   UNL     1       0.994  10.021  22.578  0.00  0.00    +0.000 NA
ATOM     19  C   UNL     1       0.311  10.497  21.577  0.00  0.00    +0.000 C 
ATOM     20  N   UNL     1       0.728  10.344  20.268  0.00  0.00    +0.000 N 
ATOM     21  H   UNL     1       1.839   9.578  22.205  0.00  0.00    +0.000 HD
ATOM     22  H   UNL     1       0.238  10.904  19.578  0.00  0.00    +0.000 HD
BRANCH  19  23
ATOM     23  C   UNL     1      -0.885  11.242  21.951  0.00  0.00    +0.000 A 
ATOM     24  C   UNL     1      -1.523  11.264  23.179  0.00  0.00    +0.000 A 
ATOM     25  C   UNL     1      -2.661  12.117  23.189  0.00  0.00    +0.000 A 
ATOM     26  C   UNL     1      -2.867  12.709  21.963  0.00  0.00    +0.000 A 
ATOM     27  S   UNL     1      -1.687  12.241  20.815  0.00  0.00    +0.000 S 
ENDBRANCH  19  23
ENDBRANCH   1  20
TORSDOF 3
ENDMDL
MODEL 9
REMARK VINA RESULT:      -7.8      1.861      2.219
REMARK  Name = 
REMARK  3 active torsions:
REMARK  status: ('A' for Active; 'I' for Inactive)
REMARK    1  A    between atoms: C_2  and  C_20
REMARK    2  A    between atoms: N_3  and  C_4
REMARK    3  A    between atoms: N_13  and  C_14
REMARK                            x       y       z     vdW  Elec       q    Type
REMARK                         _______ _______ _______ _____ _____    ______ ____
ROOT
ATOM      1  C   UNL     1       1.713   7.908  20.212  0.00  0.00    +0.000 A 
ATOM      2  C   UNL     1       1.559   8.850  19.210  0.00  0.00    +0.000 A 
ATOM      3  C   UNL     1       0.886  10.046  19.450  0.00  0.00    +0.000 A 
ATOM      4  C   UNL     1       0.249  10.359  20.652  0.00  0.00    +0.000 A 
ATOM      5  C   UNL     1       0.379   9.376  21.661  0.00  0.00    +0.000 A 
ATOM      6  C   UNL     1       1.102   8.174  21.437  0.00  0.00    +0.000 A 
ATOM      7  C   UNL     1      -0.157   9.601  23.051  0.00  0.00    +0.000 C 
ATOM      8  C   UNL     1      -1.143  10.745  23.078  0.00  0.00    +0.000 C 
ATOM      9  C   UNL     1      -0.557  11.915  22.303  0.00  0.00    +0.000 C 
ATOM     10  N   UNL     1      -0.377  11.610  20.863  0.00  0.00    +0.000 N 
ENDROOT
BRANCH  10  11
ATOM     11  C   UNL     1      -1.450  12.122  19.925  0.00  0.00    +0.000 C 
ATOM     12  C   UNL     1      -1.006  12.560  18.515  0.00  0.00    +0.000 C 
ATOM     13  C   UNL     1      -0.182  13.855  18.546  0.00  0.00    +0.000 C 
ATOM     14  N   UNL     1      -0.956  14.968  19.091  0.00  0.00    +0.000 NA
ATOM     15  C   UNL     1      -1.398  14.639  20.446  0.00  0.00    +0.000 C 
ATOM     16  C   UNL     1      -2.221  13.352  20.486  0.00  0.00    +0.000 C 
ATOM     17  H   UNL     1      -1.762  15.142  18.493  0.00  0.00    +0.000 HD
ENDBRANCH  10  11
BRANCH   1  20
ATOM     18  N   UNL     1       3.300   7.012  17.847  0.00  0.00    +0.000 NA
ATOM     19  C   UNL     1       3.009   6.262  18.871  0.00  0.00    +0.000 C 
ATOM     20  N   UNL     1       2.557   6.796  20.064  0.00  0.00    +0.000 N 
ATOM     21  H   UNL     1       3.157   7.990  18.117  0.00  0.00    +0.000 HD
ATOM     22  H   UNL     1       2.538   6.160  20.855  0.00  0.00    +0.000 HD
BRANCH  19  23
ATOM     23  C   UNL     1       3.250   4.838  18.675  0.00  0.00    +0.000 A 
ATOM     24  C   UNL     1       3.726   4.205  17.540  0.00  0.00    +0.000 A 
ATOM     25  C   UNL     1       3.851   2.799  17.709  0.00  0.00    +0.000 A 
ATOM     26  C   UNL     1       3.450   2.397  18.964  0.00  0.00    +0.000 A 
ATOM     27  S   UNL     1       2.937   3.715  19.928  0.00  0.00    +0.000 S 
ENDBRANCH  19  23
ENDBRANCH   1  20
TORSDOF 3
ENDMDL
