MODEL 1
REMARK VINA RESULT:      -7.9      0.000      0.000
REMARK  Name = 
REMARK  7 active torsions:
REMARK  status: ('A' for Active; 'I' for Inactive)
REMARK    1  A    between atoms: C_2  and  C_3
REMARK    2  A    between atoms: C_3  and  O_4
REMARK    3  A    between atoms: O_4  and  C_5
REMARK    4  A    between atoms: C_5  and  C_7
REMARK    5  A    between atoms: C_8  and  C_9
REMARK    6  A    between atoms: N_16  and  C_17
REMARK    7  A    between atoms: C_17  and  C_18
REMARK                            x       y       z     vdW  Elec       q    Type
REMARK                         _______ _______ _______ _____ _____    ______ ____
ROOT
ATOM      1  O   UNL     1       6.273   6.615  18.045  0.00  0.00    +0.000 OA
ENDROOT
BRANCH   1   2
ATOM      2  C   UNL     1       7.404   6.927  17.358  0.00  0.00    +0.000 C 
ATOM      3  O   UNL     1       7.688   6.532  16.236  0.00  0.00    +0.000 OA
BRANCH   2   4
ATOM      4  C   UNL     1       8.156   7.932  18.126  0.00  0.00    +0.000 C 
ATOM      5  C   UNL     1       8.123   9.228  17.774  0.00  0.00    +0.000 C 
BRANCH   5   6
ATOM      6  C   UNL     1       8.870  10.296  18.460  0.00  0.00    +0.000 A 
ATOM      7  C   UNL     1       9.307  10.156  19.787  0.00  0.00    +0.000 A 
ATOM      8  C   UNL     1      10.058  11.162  20.403  0.00  0.00    +0.000 A 
ATOM      9  C   UNL     1      10.384  12.308  19.691  0.00  0.00    +0.000 A 
ATOM     10  F   UNL     1      11.108  13.268  20.281  0.00  0.00    +0.000 F 
ATOM     11  C   UNL     1       9.979  12.465  18.373  0.00  0.00    +0.000 A 
ATOM     12  C   UNL     1       9.227  11.457  17.756  0.00  0.00    +0.000 A 
ENDBRANCH   5   6
ENDBRANCH   2   4
ENDBRANCH   1   2
BRANCH   1  13
ATOM     13  C   UNL     1       6.391   5.469  18.891  0.00  0.00    +0.000 C 
BRANCH  13  15
ATOM     14  O   UNL     1       4.679   4.486  17.487  0.00  0.00    +0.000 OA
ATOM     15  C   UNL     1       5.332   4.410  18.518  0.00  0.00    +0.000 C 
ATOM     16  N   UNL     1       5.211   3.366  19.401  0.00  0.00    +0.000 N 
ATOM     17  H   UNL     1       5.695   3.424  20.299  0.00  0.00    +0.000 HD
BRANCH  16  18
ATOM     18  C   UNL     1       4.271   2.271  19.235  0.00  0.00    +0.000 C 
BRANCH  18  19
ATOM     19  C   UNL     1       2.970   2.633  19.862  0.00  0.00    +0.000 A 
ATOM     20  C   UNL     1       1.766   3.080  19.353  0.00  0.00    +0.000 A 
ATOM     21  C   UNL     1       0.902   3.264  20.460  0.00  0.00    +0.000 A 
ATOM     22  C   UNL     1       1.631   2.923  21.574  0.00  0.00    +0.000 A 
ATOM     23  O   UNL     1       2.888   2.539  21.222  0.00  0.00    +0.000 OA
ENDBRANCH  18  19
ENDBRANCH  16  18
ENDBRANCH  13  15
ENDBRANCH   1  13
TORSDOF 7
ENDMDL
MODEL 2
REMARK VINA RESULT:      -7.8      3.963      7.032
REMARK  Name = 
REMARK  7 active torsions:
REMARK  status: ('A' for Active; 'I' for Inactive)
REMARK    1  A    between atoms: C_2  and  C_3
REMARK    2  A    between atoms: C_3  and  O_4
REMARK    3  A    between atoms: O_4  and  C_5
REMARK    4  A    between atoms: C_5  and  C_7
REMARK    5  A    between atoms: C_8  and  C_9
REMARK    6  A    between atoms: N_16  and  C_17
REMARK    7  A    between atoms: C_17  and  C_18
REMARK                            x       y       z     vdW  Elec       q    Type
REMARK                         _______ _______ _______ _____ _____    ______ ____
ROOT
ATOM      1  O   UNL     1       3.021   2.609  20.269  0.00  0.00    +0.000 OA
ENDROOT
BRANCH   1   2
ATOM      2  C   UNL     1       2.109   3.155  21.115  0.00  0.00    +0.000 C 
ATOM      3  O   UNL     1       1.782   2.701  22.202  0.00  0.00    +0.000 OA
BRANCH   2   4
ATOM      4  C   UNL     1       1.689   4.458  20.572  0.00  0.00    +0.000 C 
ATOM      5  C   UNL     1       2.602   5.369  20.196  0.00  0.00    +0.000 C 
BRANCH   5   6
ATOM      6  C   UNL     1       2.276   6.708  19.675  0.00  0.00    +0.000 A 
ATOM      7  C   UNL     1       2.528   7.063  18.341  0.00  0.00    +0.000 A 
ATOM      8  C   UNL     1       2.165   8.322  17.854  0.00  0.00    +0.000 A 
ATOM      9  C   UNL     1       1.537   9.229  18.697  0.00  0.00    +0.000 A 
ATOM     10  F   UNL     1       1.185  10.432  18.227  0.00  0.00    +0.000 F 
ATOM     11  C   UNL     1       1.260   8.897  20.016  0.00  0.00    +0.000 A 
ATOM     12  C   UNL     1       1.624   7.635  20.503  0.00  0.00    +0.000 A 
ENDBRANCH   5   6
ENDBRANCH   2   4
ENDBRANCH   1   2
BRANCH   1  13
ATOM     13  C   UNL     1       2.467   2.073  19.065  0.00  0.00    +0.000 C 
BRANCH  13  15
ATOM     14  O   UNL     1       2.295   3.114  16.884  0.00  0.00    +0.000 OA
ATOM     15  C   UNL     1       3.010   2.833  17.835  0.00  0.00    +0.000 C 
ATOM     16  N   UNL     1       4.330   3.201  17.910  0.00  0.00    +0.000 N 
ATOM     17  H   UNL     1       4.900   2.831  18.674  0.00  0.00    +0.000 HD
BRANCH  16  18
ATOM     18  C   UNL     1       5.032   3.917  16.859  0.00  0.00    +0.000 C 
BRANCH  18  19
ATOM     19  C   UNL     1       6.010   4.859  17.467  0.00  0.00    +0.000 A 
ATOM     20  C   UNL     1       6.613   6.019  17.017  0.00  0.00    +0.000 A 
ATOM     21  C   UNL     1       7.469   6.459  18.057  0.00  0.00    +0.000 A 
ATOM     22  C   UNL     1       7.340   5.541  19.071  0.00  0.00    +0.000 A 
ATOM     23  O   UNL     1       6.458   4.565  18.723  0.00  0.00    +0.000 OA
ENDBRANCH  18  19
ENDBRANCH  16  18
ENDBRANCH  13  15
ENDBRANCH   1  13
TORSDOF 7
ENDMDL
MODEL 3
REMARK VINA RESULT:      -7.8      0.986      1.137
REMARK  Name = 
REMARK  7 active torsions:
REMARK  status: ('A' for Active; 'I' for Inactive)
REMARK    1  A    between atoms: C_2  and  C_3
REMARK    2  A    between atoms: C_3  and  O_4
REMARK    3  A    between atoms: O_4  and  C_5
REMARK    4  A    between atoms: C_5  and  C_7
REMARK    5  A    between atoms: C_8  and  C_9
REMARK    6  A    between atoms: N_16  and  C_17
REMARK    7  A    between atoms: C_17  and  C_18
REMARK                            x       y       z     vdW  Elec       q    Type
REMARK                         _______ _______ _______ _____ _____    ______ ____
ROOT
ATOM      1  O   UNL     1       7.725   6.002  18.143  0.00  0.00    +0.000 OA
ENDROOT
BRANCH   1   2
ATOM      2  C   UNL     1       7.486   7.258  17.682  0.00  0.00    +0.000 C 
ATOM      3  O   UNL     1       6.526   7.599  17.005  0.00  0.00    +0.000 OA
BRANCH   2   4
ATOM      4  C   UNL     1       8.493   8.166  18.255  0.00  0.00    +0.000 C 
ATOM      5  C   UNL     1       8.319   9.497  18.211  0.00  0.00    +0.000 C 
BRANCH   5   6
ATOM      6  C   UNL     1       9.286  10.481  18.727  0.00  0.00    +0.000 A 
ATOM      7  C   UNL     1       9.332  10.830  20.086  0.00  0.00    +0.000 A 
ATOM      8  C   UNL     1      10.292  11.727  20.563  0.00  0.00    +0.000 A 
ATOM      9  C   UNL     1      11.217  12.273  19.684  0.00  0.00    +0.000 A 
ATOM     10  F   UNL     1      12.139  13.128  20.144  0.00  0.00    +0.000 F 
ATOM     11  C   UNL     1      11.206  11.932  18.338  0.00  0.00    +0.000 A 
ATOM     12  C   UNL     1      10.245  11.032  17.861  0.00  0.00    +0.000 A 
ENDBRANCH   5   6
ENDBRANCH   2   4
ENDBRANCH   1   2
BRANCH   1  13
ATOM     13  C   UNL     1       6.800   5.550  19.136  0.00  0.00    +0.000 C 
BRANCH  13  15
ATOM     14  O   UNL     1       5.736   4.325  17.337  0.00  0.00    +0.000 OA
ATOM     15  C   UNL     1       5.845   4.491  18.543  0.00  0.00    +0.000 C 
ATOM     16  N   UNL     1       5.169   3.731  19.464  0.00  0.00    +0.000 N 
ATOM     17  H   UNL     1       5.213   4.001  20.449  0.00  0.00    +0.000 HD
BRANCH  16  18
ATOM     18  C   UNL     1       4.222   2.687  19.114  0.00  0.00    +0.000 C 
BRANCH  18  19
ATOM     19  C   UNL     1       2.973   2.863  19.903  0.00  0.00    +0.000 A 
ATOM     20  C   UNL     1       2.666   2.693  21.241  0.00  0.00    +0.000 A 
ATOM     21  C   UNL     1       1.292   3.008  21.383  0.00  0.00    +0.000 A 
ATOM     22  C   UNL     1       0.846   3.346  20.128  0.00  0.00    +0.000 A 
ATOM     23  O   UNL     1       1.858   3.261  19.222  0.00  0.00    +0.000 OA
ENDBRANCH  18  19
ENDBRANCH  16  18
ENDBRANCH  13  15
ENDBRANCH   1  13
TORSDOF 7
ENDMDL
MODEL 4
REMARK VINA RESULT:      -7.7      0.813      1.418
REMARK  Name = 
REMARK  7 active torsions:
REMARK  status: ('A' for Active; 'I' for Inactive)
REMARK    1  A    between atoms: C_2  and  C_3
REMARK    2  A    between atoms: C_3  and  O_4
REMARK    3  A    between atoms: O_4  and  C_5
REMARK    4  A    between atoms: C_5  and  C_7
REMARK    5  A    between atoms: C_8  and  C_9
REMARK    6  A    between atoms: N_16  and  C_17
REMARK    7  A    between atoms: C_17  and  C_18
REMARK                            x       y       z     vdW  Elec       q    Type
REMARK                         _______ _______ _______ _____ _____    ______ ____
ROOT
ATOM      1  O   UNL     1       7.564   5.686  18.240  0.00  0.00    +0.000 OA
ENDROOT
BRANCH   1   2
ATOM      2  C   UNL     1       7.456   6.833  17.519  0.00  0.00    +0.000 C 
ATOM      3  O   UNL     1       6.769   6.985  16.519  0.00  0.00    +0.000 OA
BRANCH   2   4
ATOM      4  C   UNL     1       8.185   7.900  18.225  0.00  0.00    +0.000 C 
ATOM      5  C   UNL     1       8.099   9.176  17.814  0.00  0.00    +0.000 C 
BRANCH   5   6
ATOM      6  C   UNL     1       8.819  10.301  18.435  0.00  0.00    +0.000 A 
ATOM      7  C   UNL     1       8.905  11.557  17.814  0.00  0.00    +0.000 A 
ATOM      8  C   UNL     1       9.548  12.625  18.444  0.00  0.00    +0.000 A 
ATOM      9  C   UNL     1      10.101  12.446  19.705  0.00  0.00    +0.000 A 
ATOM     10  F   UNL     1      10.713  13.472  20.309  0.00  0.00    +0.000 F 
ATOM     11  C   UNL     1      10.016  11.220  20.349  0.00  0.00    +0.000 A 
ATOM     12  C   UNL     1       9.369  10.150  19.718  0.00  0.00    +0.000 A 
ENDBRANCH   5   6
ENDBRANCH   2   4
ENDBRANCH   1   2
BRANCH   1  13
ATOM     13  C   UNL     1       6.654   5.589  19.338  0.00  0.00    +0.000 C 
BRANCH  13  15
ATOM     14  O   UNL     1       4.467   5.466  18.303  0.00  0.00    +0.000 OA
ATOM     15  C   UNL     1       5.355   4.877  18.902  0.00  0.00    +0.000 C 
ATOM     16  N   UNL     1       5.293   3.538  19.199  0.00  0.00    +0.000 N 
ATOM     17  H   UNL     1       6.011   3.136  19.805  0.00  0.00    +0.000 HD
BRANCH  16  18
ATOM     18  C   UNL     1       4.158   2.690  18.878  0.00  0.00    +0.000 C 
BRANCH  18  19
ATOM     19  C   UNL     1       3.070   2.921  19.867  0.00  0.00    +0.000 A 
ATOM     20  C   UNL     1       2.940   2.637  21.214  0.00  0.00    +0.000 A 
ATOM     21  C   UNL     1       1.655   3.092  21.600  0.00  0.00    +0.000 A 
ATOM     22  C   UNL     1       1.081   3.619  20.468  0.00  0.00    +0.000 A 
ATOM     23  O   UNL     1       1.931   3.519  19.411  0.00  0.00    +0.000 OA
ENDBRANCH  18  19
ENDBRANCH  16  18
ENDBRANCH  13  15
ENDBRANCH   1  13
TORSDOF 7
ENDMDL
MODEL 5
REMARK VINA RESULT:      -7.6      1.209      1.437
REMARK  Name = 
REMARK  7 active torsions:
REMARK  status: ('A' for Active; 'I' for Inactive)
REMARK    1  A    between atoms: C_2  and  C_3
REMARK    2  A    between atoms: C_3  and  O_4
REMARK    3  A    between atoms: O_4  and  C_5
REMARK    4  A    between atoms: C_5  and  C_7
REMARK    5  A    between atoms: C_8  and  C_9
REMARK    6  A    between atoms: N_16  and  C_17
REMARK    7  A    between atoms: C_17  and  C_18
REMARK                            x       y       z     vdW  Elec       q    Type
REMARK                         _______ _______ _______ _____ _____    ______ ____
ROOT
ATOM      1  O   UNL     1       7.499   5.749  18.083  0.00  0.00    +0.000 OA
ENDROOT
BRANCH   1   2
ATOM      2  C   UNL     1       7.366   6.980  17.523  0.00  0.00    +0.000 C 
ATOM      3  O   UNL     1       6.581   7.278  16.634  0.00  0.00    +0.000 OA
BRANCH   2   4
ATOM      4  C   UNL     1       8.218   7.925  18.263  0.00  0.00    +0.000 C 
ATOM      5  C   UNL     1       8.241   9.228  17.935  0.00  0.00    +0.000 C 
BRANCH   5   6
ATOM      6  C   UNL     1       9.087  10.238  18.595  0.00  0.00    +0.000 A 
ATOM      7  C   UNL     1       9.167  10.333  19.993  0.00  0.00    +0.000 A 
ATOM      8  C   UNL     1      10.015  11.265  20.599  0.00  0.00    +0.000 A 
ATOM      9  C   UNL     1      10.793  12.100  19.809  0.00  0.00    +0.000 A 
ATOM     10  F   UNL     1      11.608  12.988  20.392  0.00  0.00    +0.000 F 
ATOM     11  C   UNL     1      10.746  12.015  18.425  0.00  0.00    +0.000 A 
ATOM     12  C   UNL     1       9.898  11.080  17.818  0.00  0.00    +0.000 A 
ENDBRANCH   5   6
ENDBRANCH   2   4
ENDBRANCH   1   2
BRANCH   1  13
ATOM     13  C   UNL     1       6.683   5.532  19.237  0.00  0.00    +0.000 C 
BRANCH  13  15
ATOM     14  O   UNL     1       4.983   4.463  17.883  0.00  0.00    +0.000 OA
ATOM     15  C   UNL     1       5.233   5.206  18.820  0.00  0.00    +0.000 C 
ATOM     16  N   UNL     1       4.258   5.775  19.601  0.00  0.00    +0.000 N 
ATOM     17  H   UNL     1       4.529   6.479  20.290  0.00  0.00    +0.000 HD
BRANCH  16  18
ATOM     18  C   UNL     1       2.834   5.596  19.376  0.00  0.00    +0.000 C 
BRANCH  18  19
ATOM     19  C   UNL     1       2.366   4.379  20.093  0.00  0.00    +0.000 A 
ATOM     20  C   UNL     1       2.116   4.102  21.424  0.00  0.00    +0.000 A 
ATOM     21  C   UNL     1       1.700   2.749  21.484  0.00  0.00    +0.000 A 
ATOM     22  C   UNL     1       1.726   2.284  20.190  0.00  0.00    +0.000 A 
ATOM     23  O   UNL     1       2.129   3.266  19.339  0.00  0.00    +0.000 OA
ENDBRANCH  18  19
ENDBRANCH  16  18
ENDBRANCH  13  15
ENDBRANCH   1  13
TORSDOF 7
ENDMDL
MODEL 6
REMARK VINA RESULT:      -7.6      4.721      5.518
REMARK  Name = 
REMARK  7 active torsions:
REMARK  status: ('A' for Active; 'I' for Inactive)
REMARK    1  A    between atoms: C_2  and  C_3
REMARK    2  A    between atoms: C_3  and  O_4
REMARK    3  A    between atoms: O_4  and  C_5
REMARK    4  A    between atoms: C_5  and  C_7
REMARK    5  A    between atoms: C_8  and  C_9
REMARK    6  A    between atoms: N_16  and  C_17
REMARK    7  A    between atoms: C_17  and  C_18
REMARK                            x       y       z     vdW  Elec       q    Type
REMARK                         _______ _______ _______ _____ _____    ______ ____
ROOT
ATOM      1  O   UNL     1       5.462   4.874  16.579  0.00  0.00    +0.000 OA
ENDROOT
BRANCH   1   2
ATOM      2  C   UNL     1       5.306   6.158  16.161  0.00  0.00    +0.000 C 
ATOM      3  O   UNL     1       5.564   6.581  15.043  0.00  0.00    +0.000 OA
BRANCH   2   4
ATOM      4  C   UNL     1       4.639   6.919  17.231  0.00  0.00    +0.000 C 
ATOM      5  C   UNL     1       3.300   6.928  17.332  0.00  0.00    +0.000 C 
BRANCH   5   6
ATOM      6  C   UNL     1       2.547   7.687  18.345  0.00  0.00    +0.000 A 
ATOM      7  C   UNL     1       1.920   8.906  18.040  0.00  0.00    +0.000 A 
ATOM      8  C   UNL     1       1.168   9.585  19.003  0.00  0.00    +0.000 A 
ATOM      9  C   UNL     1       1.029   9.042  20.273  0.00  0.00    +0.000 A 
ATOM     10  F   UNL     1       0.304   9.692  21.192  0.00  0.00    +0.000 F 
ATOM     11  C   UNL     1       1.624   7.830  20.597  0.00  0.00    +0.000 A 
ATOM     12  C   UNL     1       2.377   7.150  19.631  0.00  0.00    +0.000 A 
ENDBRANCH   5   6
ENDBRANCH   2   4
ENDBRANCH   1   2
BRANCH   1  13
ATOM     13  C   UNL     1       6.435   4.701  17.612  0.00  0.00    +0.000 C 
BRANCH  13  15
ATOM     14  O   UNL     1       5.785   4.915  19.936  0.00  0.00    +0.000 OA
ATOM     15  C   UNL     1       5.759   4.236  18.920  0.00  0.00    +0.000 C 
ATOM     16  N   UNL     1       5.097   3.036  18.843  0.00  0.00    +0.000 N 
ATOM     17  H   UNL     1       5.214   2.464  18.004  0.00  0.00    +0.000 HD
BRANCH  16  18
ATOM     18  C   UNL     1       4.400   2.423  19.960  0.00  0.00    +0.000 C 
BRANCH  18  19
ATOM     19  C   UNL     1       2.974   2.848  19.951  0.00  0.00    +0.000 A 
ATOM     20  C   UNL     1       2.260   3.783  20.679  0.00  0.00    +0.000 A 
ATOM     21  C   UNL     1       0.922   3.716  20.219  0.00  0.00    +0.000 A 
ATOM     22  C   UNL     1       0.901   2.746  19.246  0.00  0.00    +0.000 A 
ATOM     23  O   UNL     1       2.141   2.212  19.076  0.00  0.00    +0.000 OA
ENDBRANCH  18  19
ENDBRANCH  16  18
ENDBRANCH  13  15
ENDBRANCH   1  13
TORSDOF 7
ENDMDL
MODEL 7
REMARK VINA RESULT:      -7.6      0.977      1.400
REMARK  Name = 
REMARK  7 active torsions:
REMARK  status: ('A' for Active; 'I' for Inactive)
REMARK    1  A    between atoms: C_2  and  C_3
REMARK    2  A    between atoms: C_3  and  O_4
REMARK    3  A    between atoms: O_4  and  C_5
REMARK    4  A    between atoms: C_5  and  C_7
REMARK    5  A    between atoms: C_8  and  C_9
REMARK    6  A    between atoms: N_16  and  C_17
REMARK    7  A    between atoms: C_17  and  C_18
REMARK                            x       y       z     vdW  Elec       q    Type
REMARK                         _______ _______ _______ _____ _____    ______ ____
ROOT
ATOM      1  O   UNL     1       6.739   6.545  18.295  0.00  0.00    +0.000 OA
ENDROOT
BRANCH   1   2
ATOM      2  C   UNL     1       7.458   7.015  17.242  0.00  0.00    +0.000 C 
ATOM      3  O   UNL     1       7.683   6.408  16.204  0.00  0.00    +0.000 OA
BRANCH   2   4
ATOM      4  C   UNL     1       7.795   8.425  17.498  0.00  0.00    +0.000 C 
ATOM      5  C   UNL     1       8.639   8.758  18.488  0.00  0.00    +0.000 C 
BRANCH   5   6
ATOM      6  C   UNL     1       9.007  10.141  18.838  0.00  0.00    +0.000 A 
ATOM      7  C   UNL     1       8.828  11.203  17.938  0.00  0.00    +0.000 A 
ATOM      8  C   UNL     1       9.135  12.516  18.309  0.00  0.00    +0.000 A 
ATOM      9  C   UNL     1       9.614  12.773  19.587  0.00  0.00    +0.000 A 
ATOM     10  F   UNL     1       9.903  14.032  19.942  0.00  0.00    +0.000 F 
ATOM     11  C   UNL     1       9.784  11.744  20.502  0.00  0.00    +0.000 A 
ATOM     12  C   UNL     1       9.474  10.429  20.130  0.00  0.00    +0.000 A 
ENDBRANCH   5   6
ENDBRANCH   2   4
ENDBRANCH   1   2
BRANCH   1  13
ATOM     13  C   UNL     1       5.427   6.088  17.960  0.00  0.00    +0.000 C 
BRANCH  13  15
ATOM     14  O   UNL     1       5.926   4.167  19.349  0.00  0.00    +0.000 OA
ATOM     15  C   UNL     1       5.196   4.662  18.503  0.00  0.00    +0.000 C 
ATOM     16  N   UNL     1       4.094   4.015  18.000  0.00  0.00    +0.000 N 
ATOM     17  H   UNL     1       3.597   4.433  17.211  0.00  0.00    +0.000 HD
BRANCH  16  18
ATOM     18  C   UNL     1       3.704   2.668  18.378  0.00  0.00    +0.000 C 
BRANCH  18  19
ATOM     19  C   UNL     1       2.791   2.725  19.553  0.00  0.00    +0.000 A 
ATOM     20  C   UNL     1       1.427   2.910  19.684  0.00  0.00    +0.000 A 
ATOM     21  C   UNL     1       1.147   2.879  21.072  0.00  0.00    +0.000 A 
ATOM     22  C   UNL     1       2.354   2.684  21.701  0.00  0.00    +0.000 A 
ATOM     23  O   UNL     1       3.358   2.590  20.787  0.00  0.00    +0.000 OA
ENDBRANCH  18  19
ENDBRANCH  16  18
ENDBRANCH  13  15
ENDBRANCH   1  13
TORSDOF 7
ENDMDL
MODEL 8
REMARK VINA RESULT:      -7.5      1.409      1.484
REMARK  Name = 
REMARK  7 active torsions:
REMARK  status: ('A' for Active; 'I' for Inactive)
REMARK    1  A    between atoms: C_2  and  C_3
REMARK    2  A    between atoms: C_3  and  O_4
REMARK    3  A    between atoms: O_4  and  C_5
REMARK    4  A    between atoms: C_5  and  C_7
REMARK    5  A    between atoms: C_8  and  C_9
REMARK    6  A    between atoms: N_16  and  C_17
REMARK    7  A    between atoms: C_17  and  C_18
REMARK                            x       y       z     vdW  Elec       q    Type
REMARK                         _______ _______ _______ _____ _____    ______ ____
ROOT
ATOM      1  O   UNL     1       6.295   6.349  17.982  0.00  0.00    +0.000 OA
ENDROOT
BRANCH   1   2
ATOM      2  C   UNL     1       7.377   6.835  17.318  0.00  0.00    +0.000 C 
ATOM      3  O   UNL     1       7.720   6.522  16.188  0.00  0.00    +0.000 OA
BRANCH   2   4
ATOM      4  C   UNL     1       7.978   7.907  18.129  0.00  0.00    +0.000 C 
ATOM      5  C   UNL     1       8.095   9.152  17.638  0.00  0.00    +0.000 C 
BRANCH   5   6
ATOM      6  C   UNL     1       8.714  10.277  18.362  0.00  0.00    +0.000 A 
ATOM      7  C   UNL     1       9.359  10.096  19.595  0.00  0.00    +0.000 A 
ATOM      8  C   UNL     1       9.984  11.168  20.240  0.00  0.00    +0.000 A 
ATOM      9  C   UNL     1       9.974  12.424  19.649  0.00  0.00    +0.000 A 
ATOM     10  F   UNL     1      10.578  13.448  20.266  0.00  0.00    +0.000 F 
ATOM     11  C   UNL     1       9.358  12.627  18.422  0.00  0.00    +0.000 A 
ATOM     12  C   UNL     1       8.734  11.552  17.775  0.00  0.00    +0.000 A 
ENDBRANCH   5   6
ENDBRANCH   2   4
ENDBRANCH   1   2
BRANCH   1  13
ATOM     13  C   UNL     1       5.036   6.751  17.437  0.00  0.00    +0.000 C 
BRANCH  13  15
ATOM     14  O   UNL     1       4.429   4.561  16.596  0.00  0.00    +0.000 OA
ATOM     15  C   UNL     1       4.106   5.530  17.266  0.00  0.00    +0.000 C 
ATOM     16  N   UNL     1       2.919   5.598  17.954  0.00  0.00    +0.000 N 
ATOM     17  H   UNL     1       2.657   6.482  18.395  0.00  0.00    +0.000 HD
BRANCH  16  18
ATOM     18  C   UNL     1       1.906   4.557  17.924  0.00  0.00    +0.000 C 
BRANCH  18  19
ATOM     19  C   UNL     1       1.749   3.977  19.285  0.00  0.00    +0.000 A 
ATOM     20  C   UNL     1       0.950   2.972  19.799  0.00  0.00    +0.000 A 
ATOM     21  C   UNL     1       1.248   2.888  21.182  0.00  0.00    +0.000 A 
ATOM     22  C   UNL     1       2.203   3.846  21.426  0.00  0.00    +0.000 A 
ATOM     23  O   UNL     1       2.513   4.512  20.281  0.00  0.00    +0.000 OA
ENDBRANCH  18  19
ENDBRANCH  16  18
ENDBRANCH  13  15
ENDBRANCH   1  13
TORSDOF 7
ENDMDL
MODEL 9
REMARK VINA RESULT:      -7.5      4.120      9.266
REMARK  Name = 
REMARK  7 active torsions:
REMARK  status: ('A' for Active; 'I' for Inactive)
REMARK    1  A    between atoms: C_2  and  C_3
REMARK    2  A    between atoms: C_3  and  O_4
REMARK    3  A    between atoms: O_4  and  C_5
REMARK    4  A    between atoms: C_5  and  C_7
REMARK    5  A    between atoms: C_8  and  C_9
REMARK    6  A    between atoms: N_16  and  C_17
REMARK    7  A    between atoms: C_17  and  C_18
REMARK                            x       y       z     vdW  Elec       q    Type
REMARK                         _______ _______ _______ _____ _____    ______ ____
ROOT
ATOM      1  O   UNL     1       8.087   5.311  17.708  0.00  0.00    +0.000 OA
ENDROOT
BRANCH   1   2
ATOM      2  C   UNL     1       7.193   4.860  16.789  0.00  0.00    +0.000 C 
ATOM      3  O   UNL     1       7.423   4.672  15.603  0.00  0.00    +0.000 OA
BRANCH   2   4
ATOM      4  C   UNL     1       5.948   4.497  17.486  0.00  0.00    +0.000 C 
ATOM      5  C   UNL     1       4.965   3.849  16.839  0.00  0.00    +0.000 C 
BRANCH   5   6
ATOM      6  C   UNL     1       3.675   3.477  17.445  0.00  0.00    +0.000 A 
ATOM      7  C   UNL     1       3.431   2.181  17.927  0.00  0.00    +0.000 A 
ATOM      8  C   UNL     1       2.218   1.863  18.544  0.00  0.00    +0.000 A 
ATOM      9  C   UNL     1       1.245   2.843  18.691  0.00  0.00    +0.000 A 
ATOM     10  F   UNL     1       0.086   2.537  19.287  0.00  0.00    +0.000 F 
ATOM     11  C   UNL     1       1.467   4.137  18.239  0.00  0.00    +0.000 A 
ATOM     12  C   UNL     1       2.683   4.455  17.622  0.00  0.00    +0.000 A 
ENDBRANCH   5   6
ENDBRANCH   2   4
ENDBRANCH   1   2
BRANCH   1  13
ATOM     13  C   UNL     1       7.590   6.345  18.560  0.00  0.00    +0.000 C 
BRANCH  13  15
ATOM     14  O   UNL     1       7.094   7.982  16.844  0.00  0.00    +0.000 OA
ATOM     15  C   UNL     1       7.708   7.720  17.868  0.00  0.00    +0.000 C 
ATOM     16  N   UNL     1       8.514   8.630  18.507  0.00  0.00    +0.000 N 
ATOM     17  H   UNL     1       9.091   8.311  19.287  0.00  0.00    +0.000 HD
BRANCH  16  18
ATOM     18  C   UNL     1       8.761   9.975  18.018  0.00  0.00    +0.000 C 
BRANCH  18  19
ATOM     19  C   UNL     1       9.548  10.734  19.028  0.00  0.00    +0.000 A 
ATOM     20  C   UNL     1      10.788  11.344  18.997  0.00  0.00    +0.000 A 
ATOM     21  C   UNL     1      10.998  11.897  20.284  0.00  0.00    +0.000 A 
ATOM     22  C   UNL     1       9.879  11.587  21.020  0.00  0.00    +0.000 A 
ATOM     23  O   UNL     1       8.994  10.880  20.266  0.00  0.00    +0.000 OA
ENDBRANCH  18  19
ENDBRANCH  16  18
ENDBRANCH  13  15
ENDBRANCH   1  13
TORSDOF 7
ENDMDL
