MODEL 1
REMARK VINA RESULT:      -7.9      0.000      0.000
REMARK  Name = 
REMARK  7 active torsions:
REMARK  status: ('A' for Active; 'I' for Inactive)
REMARK    1  A    between atoms: C_1  and  O_2
REMARK    2  A    between atoms: O_2  and  C_3
REMARK    3  A    between atoms: C_6  and  O_7
REMARK    4  A    between atoms: O_7  and  C_8
REMARK    5  A    between atoms: C_9  and  C_10
REMARK    6  A    between atoms: C_10  and  C_12
REMARK    7  A    between atoms: C_12  and  N_13
REMARK                            x       y       z     vdW  Elec       q    Type
REMARK                         _______ _______ _______ _____ _____    ______ ____
ROOT
ATOM      1  C   UNL     1       1.844   3.435  18.233  0.00  0.00    +0.000 C 
ATOM      2  O   UNL     1       0.756   3.045  17.803  0.00  0.00    +0.000 OA
ENDROOT
BRANCH   1   7
ATOM      3  C   UNL     1       2.441   7.127  18.642  0.00  0.00    +0.000 A 
ATOM      4  C   UNL     1       2.079   7.358  19.962  0.00  0.00    +0.000 A 
ATOM      5  C   UNL     1       1.651   6.309  20.776  0.00  0.00    +0.000 A 
ATOM      6  C   UNL     1       1.584   4.996  20.286  0.00  0.00    +0.000 A 
ATOM      7  C   UNL     1       1.887   4.763  18.932  0.00  0.00    +0.000 A 
ATOM      8  C   UNL     1       2.329   5.836  18.133  0.00  0.00    +0.000 A 
BRANCH   3  10
ATOM      9  C   UNL     1       2.007   9.350  17.928  0.00  0.00    +0.000 C 
ATOM     10  O   UNL     1       2.881   8.229  17.968  0.00  0.00    +0.000 OA
ENDBRANCH   3  10
BRANCH   6  11
ATOM     11  O   UNL     1       1.263   3.934  21.087  0.00  0.00    +0.000 OA
ATOM     12  C   UNL     1       2.344   3.253  21.722  0.00  0.00    +0.000 C 
ENDBRANCH   6  11
ENDBRANCH   1   7
BRANCH   1  13
ATOM     13  C   UNL     1       3.064   2.541  18.128  0.00  0.00    +0.000 C 
BRANCH  13  14
ATOM     14  N   UNL     1       4.271   3.220  17.680  0.00  0.00    +0.000 N 
ATOM     15  N   UNL     1       4.315   3.644  16.375  0.00  0.00    +0.000 NA
ATOM     16  N   UNL     1       5.273   4.334  15.951  0.00  0.00    +0.000 NA
ATOM     17  C   UNL     1       6.097   4.992  16.875  0.00  0.00    +0.000 A 
ATOM     18  C   UNL     1       6.927   6.034  16.453  0.00  0.00    +0.000 A 
ATOM     19  C   UNL     1       7.657   6.790  17.383  0.00  0.00    +0.000 A 
ATOM     20  C   UNL     1       7.559   6.507  18.746  0.00  0.00    +0.000 A 
ATOM     21  C   UNL     1       6.789   5.430  19.169  0.00  0.00    +0.000 A 
ATOM     22  C   UNL     1       6.082   4.680  18.223  0.00  0.00    +0.000 A 
ATOM     23  C   UNL     1       5.207   3.587  18.623  0.00  0.00    +0.000 A 
ATOM     24  O   UNL     1       5.292   3.119  19.755  0.00  0.00    +0.000 OA
ENDBRANCH  13  14
ENDBRANCH   1  13
TORSDOF 5
ENDMDL
MODEL 2
REMARK VINA RESULT:      -7.5      2.520      3.934
REMARK  Name = 
REMARK  7 active torsions:
REMARK  status: ('A' for Active; 'I' for Inactive)
REMARK    1  A    between atoms: C_1  and  O_2
REMARK    2  A    between atoms: O_2  and  C_3
REMARK    3  A    between atoms: C_6  and  O_7
REMARK    4  A    between atoms: O_7  and  C_8
REMARK    5  A    between atoms: C_9  and  C_10
REMARK    6  A    between atoms: C_10  and  C_12
REMARK    7  A    between atoms: C_12  and  N_13
REMARK                            x       y       z     vdW  Elec       q    Type
REMARK                         _______ _______ _______ _____ _____    ______ ____
ROOT
ATOM      1  C   UNL     1       5.167   5.254  18.994  0.00  0.00    +0.000 C 
ATOM      2  O   UNL     1       6.151   5.015  19.698  0.00  0.00    +0.000 OA
ENDROOT
BRANCH   1   7
ATOM      3  C   UNL     1       1.756   5.780  20.493  0.00  0.00    +0.000 A 
ATOM      4  C   UNL     1       1.250   4.490  20.579  0.00  0.00    +0.000 A 
ATOM      5  C   UNL     1       2.017   3.397  20.174  0.00  0.00    +0.000 A 
ATOM      6  C   UNL     1       3.318   3.571  19.679  0.00  0.00    +0.000 A 
ATOM      7  C   UNL     1       3.815   4.879  19.528  0.00  0.00    +0.000 A 
ATOM      8  C   UNL     1       3.027   5.967  19.956  0.00  0.00    +0.000 A 
BRANCH   3  10
ATOM      9  C   UNL     1       1.434   8.081  20.989  0.00  0.00    +0.000 C 
ATOM     10  O   UNL     1       0.922   6.755  20.961  0.00  0.00    +0.000 OA
ENDBRANCH   3  10
BRANCH   6  11
ATOM     11  O   UNL     1       4.127   2.514  19.368  0.00  0.00    +0.000 OA
ATOM     12  C   UNL     1       3.619   1.564  18.433  0.00  0.00    +0.000 C 
ENDBRANCH   6  11
ENDBRANCH   1   7
BRANCH   1  13
ATOM     13  C   UNL     1       5.337   5.987  17.678  0.00  0.00    +0.000 C 
BRANCH  13  14
ATOM     14  N   UNL     1       5.749   5.142  16.567  0.00  0.00    +0.000 N 
ATOM     15  N   UNL     1       4.882   4.158  16.161  0.00  0.00    +0.000 NA
ATOM     16  N   UNL     1       5.119   3.467  15.141  0.00  0.00    +0.000 NA
ATOM     17  C   UNL     1       6.052   3.938  14.205  0.00  0.00    +0.000 A 
ATOM     18  C   UNL     1       6.078   3.400  12.915  0.00  0.00    +0.000 A 
ATOM     19  C   UNL     1       6.910   3.948  11.928  0.00  0.00    +0.000 A 
ATOM     20  C   UNL     1       7.724   5.042  12.226  0.00  0.00    +0.000 A 
ATOM     21  C   UNL     1       7.754   5.540  13.523  0.00  0.00    +0.000 A 
ATOM     22  C   UNL     1       6.927   4.968  14.496  0.00  0.00    +0.000 A 
ATOM     23  C   UNL     1       6.871   5.500  15.851  0.00  0.00    +0.000 A 
ATOM     24  O   UNL     1       7.747   6.265  16.243  0.00  0.00    +0.000 OA
ENDBRANCH  13  14
ENDBRANCH   1  13
TORSDOF 5
ENDMDL
MODEL 3
REMARK VINA RESULT:      -7.1      3.081      6.120
REMARK  Name = 
REMARK  7 active torsions:
REMARK  status: ('A' for Active; 'I' for Inactive)
REMARK    1  A    between atoms: C_1  and  O_2
REMARK    2  A    between atoms: O_2  and  C_3
REMARK    3  A    between atoms: C_6  and  O_7
REMARK    4  A    between atoms: O_7  and  C_8
REMARK    5  A    between atoms: C_9  and  C_10
REMARK    6  A    between atoms: C_10  and  C_12
REMARK    7  A    between atoms: C_12  and  N_13
REMARK                            x       y       z     vdW  Elec       q    Type
REMARK                         _______ _______ _______ _____ _____    ______ ____
ROOT
ATOM      1  C   UNL     1       3.513   5.738  18.761  0.00  0.00    +0.000 C 
ATOM      2  O   UNL     1       3.697   5.423  19.939  0.00  0.00    +0.000 OA
ENDROOT
BRANCH   1   7
ATOM      3  C   UNL     1       6.691   6.189  16.797  0.00  0.00    +0.000 A 
ATOM      4  C   UNL     1       6.732   5.051  16.002  0.00  0.00    +0.000 A 
ATOM      5  C   UNL     1       5.706   4.106  16.060  0.00  0.00    +0.000 A 
ATOM      6  C   UNL     1       4.607   4.284  16.913  0.00  0.00    +0.000 A 
ATOM      7  C   UNL     1       4.589   5.401  17.769  0.00  0.00    +0.000 A 
ATOM      8  C   UNL     1       5.630   6.349  17.683  0.00  0.00    +0.000 A 
BRANCH   3  10
ATOM      9  C   UNL     1       7.885   8.089  17.574  0.00  0.00    +0.000 C 
ATOM     10  O   UNL     1       7.732   7.052  16.614  0.00  0.00    +0.000 OA
ENDBRANCH   3  10
BRANCH   6  11
ATOM     11  O   UNL     1       3.542   3.427  16.920  0.00  0.00    +0.000 OA
ATOM     12  C   UNL     1       3.614   2.312  17.809  0.00  0.00    +0.000 C 
ENDBRANCH   6  11
ENDBRANCH   1   7
BRANCH   1  13
ATOM     13  C   UNL     1       2.196   6.358  18.339  0.00  0.00    +0.000 C 
BRANCH  13  14
ATOM     14  N   UNL     1       2.092   7.786  18.602  0.00  0.00    +0.000 N 
ATOM     15  N   UNL     1       2.326   8.644  17.556  0.00  0.00    +0.000 NA
ATOM     16  N   UNL     1       2.144   9.879  17.679  0.00  0.00    +0.000 NA
ATOM     17  C   UNL     1       1.350  10.346  18.737  0.00  0.00    +0.000 A 
ATOM     18  C   UNL     1       0.833  11.645  18.702  0.00  0.00    +0.000 A 
ATOM     19  C   UNL     1      -0.070  12.083  19.682  0.00  0.00    +0.000 A 
ATOM     20  C   UNL     1      -0.464  11.221  20.706  0.00  0.00    +0.000 A 
ATOM     21  C   UNL     1       0.095   9.951  20.786  0.00  0.00    +0.000 A 
ATOM     22  C   UNL     1       1.006   9.540  19.807  0.00  0.00    +0.000 A 
ATOM     23  C   UNL     1       1.566   8.195  19.808  0.00  0.00    +0.000 A 
ATOM     24  O   UNL     1       1.477   7.498  20.815  0.00  0.00    +0.000 OA
ENDBRANCH  13  14
ENDBRANCH   1  13
TORSDOF 5
ENDMDL
MODEL 4
REMARK VINA RESULT:      -7.1      2.569      3.845
REMARK  Name = 
REMARK  7 active torsions:
REMARK  status: ('A' for Active; 'I' for Inactive)
REMARK    1  A    between atoms: C_1  and  O_2
REMARK    2  A    between atoms: O_2  and  C_3
REMARK    3  A    between atoms: C_6  and  O_7
REMARK    4  A    between atoms: O_7  and  C_8
REMARK    5  A    between atoms: C_9  and  C_10
REMARK    6  A    between atoms: C_10  and  C_12
REMARK    7  A    between atoms: C_12  and  N_13
REMARK                            x       y       z     vdW  Elec       q    Type
REMARK                         _______ _______ _______ _____ _____    ______ ____
ROOT
ATOM      1  C   UNL     1       5.860   5.104  18.909  0.00  0.00    +0.000 C 
ATOM      2  O   UNL     1       6.437   5.673  19.839  0.00  0.00    +0.000 OA
ENDROOT
BRANCH   1   7
ATOM      3  C   UNL     1       2.854   7.100  17.844  0.00  0.00    +0.000 A 
ATOM      4  C   UNL     1       1.793   6.267  18.172  0.00  0.00    +0.000 A 
ATOM      5  C   UNL     1       2.021   5.031  18.778  0.00  0.00    +0.000 A 
ATOM      6  C   UNL     1       3.322   4.603  19.080  0.00  0.00    +0.000 A 
ATOM      7  C   UNL     1       4.407   5.412  18.693  0.00  0.00    +0.000 A 
ATOM      8  C   UNL     1       4.152   6.662  18.093  0.00  0.00    +0.000 A 
BRANCH   3  10
ATOM      9  C   UNL     1       1.788   9.203  18.132  0.00  0.00    +0.000 C 
ATOM     10  O   UNL     1       2.493   8.296  17.294  0.00  0.00    +0.000 OA
ENDBRANCH   3  10
BRANCH   6  11
ATOM     11  O   UNL     1       3.570   3.444  19.762  0.00  0.00    +0.000 OA
ATOM     12  C   UNL     1       3.156   2.228  19.141  0.00  0.00    +0.000 C 
ENDBRANCH   6  11
ENDBRANCH   1   7
BRANCH   1  13
ATOM     13  C   UNL     1       6.639   4.200  17.974  0.00  0.00    +0.000 C 
BRANCH  13  14
ATOM     14  N   UNL     1       6.628   4.620  16.581  0.00  0.00    +0.000 N 
ATOM     15  N   UNL     1       7.613   5.482  16.169  0.00  0.00    +0.000 NA
ATOM     16  N   UNL     1       7.733   5.797  14.960  0.00  0.00    +0.000 NA
ATOM     17  C   UNL     1       7.124   4.994  13.986  0.00  0.00    +0.000 A 
ATOM     18  C   UNL     1       7.523   5.093  12.650  0.00  0.00    +0.000 A 
ATOM     19  C   UNL     1       7.022   4.206  11.685  0.00  0.00    +0.000 A 
ATOM     20  C   UNL     1       6.116   3.211  12.053  0.00  0.00    +0.000 A 
ATOM     21  C   UNL     1       5.662   3.147  13.365  0.00  0.00    +0.000 A 
ATOM     22  C   UNL     1       6.164   4.051  14.308  0.00  0.00    +0.000 A 
ATOM     23  C   UNL     1       5.773   3.980  15.709  0.00  0.00    +0.000 A 
ATOM     24  O   UNL     1       4.790   3.322  16.036  0.00  0.00    +0.000 OA
ENDBRANCH  13  14
ENDBRANCH   1  13
TORSDOF 5
ENDMDL
MODEL 5
REMARK VINA RESULT:      -7.1      2.439      5.695
REMARK  Name = 
REMARK  7 active torsions:
REMARK  status: ('A' for Active; 'I' for Inactive)
REMARK    1  A    between atoms: C_1  and  O_2
REMARK    2  A    between atoms: O_2  and  C_3
REMARK    3  A    between atoms: C_6  and  O_7
REMARK    4  A    between atoms: O_7  and  C_8
REMARK    5  A    between atoms: C_9  and  C_10
REMARK    6  A    between atoms: C_10  and  C_12
REMARK    7  A    between atoms: C_12  and  N_13
REMARK                            x       y       z     vdW  Elec       q    Type
REMARK                         _______ _______ _______ _____ _____    ______ ____
ROOT
ATOM      1  C   UNL     1       4.103   3.724  18.678  0.00  0.00    +0.000 C 
ATOM      2  O   UNL     1       4.350   2.847  19.509  0.00  0.00    +0.000 OA
ENDROOT
BRANCH   1   7
ATOM      3  C   UNL     1       5.912   3.968  15.388  0.00  0.00    +0.000 A 
ATOM      4  C   UNL     1       7.058   4.682  15.714  0.00  0.00    +0.000 A 
ATOM      5  C   UNL     1       7.294   5.086  17.028  0.00  0.00    +0.000 A 
ATOM      6  C   UNL     1       6.388   4.777  18.053  0.00  0.00    +0.000 A 
ATOM      7  C   UNL     1       5.193   4.111  17.722  0.00  0.00    +0.000 A 
ATOM      8  C   UNL     1       4.982   3.701  16.390  0.00  0.00    +0.000 A 
BRANCH   3  10
ATOM      9  C   UNL     1       6.736   4.204  13.173  0.00  0.00    +0.000 C 
ATOM     10  O   UNL     1       5.822   3.597  14.078  0.00  0.00    +0.000 OA
ENDBRANCH   3  10
BRANCH   6  11
ATOM     11  O   UNL     1       6.640   5.074  19.364  0.00  0.00    +0.000 OA
ATOM     12  C   UNL     1       7.911   5.649  19.664  0.00  0.00    +0.000 C 
ENDBRANCH   6  11
ENDBRANCH   1   7
BRANCH   1  13
ATOM     13  C   UNL     1       2.708   4.310  18.588  0.00  0.00    +0.000 C 
BRANCH  13  14
ATOM     14  N   UNL     1       2.631   5.733  18.885  0.00  0.00    +0.000 N 
ATOM     15  N   UNL     1       2.768   6.610  17.839  0.00  0.00    +0.000 NA
ATOM     16  N   UNL     1       2.601   7.843  18.002  0.00  0.00    +0.000 NA
ATOM     17  C   UNL     1       1.909   8.289  19.137  0.00  0.00    +0.000 A 
ATOM     18  C   UNL     1       1.394   9.588  19.175  0.00  0.00    +0.000 A 
ATOM     19  C   UNL     1       0.587  10.008  20.243  0.00  0.00    +0.000 A 
ATOM     20  C   UNL     1       0.288   9.127  21.283  0.00  0.00    +0.000 A 
ATOM     21  C   UNL     1       0.850   7.856  21.287  0.00  0.00    +0.000 A 
ATOM     22  C   UNL     1       1.665   7.463  20.219  0.00  0.00    +0.000 A 
ATOM     23  C   UNL     1       2.220   6.119  20.143  0.00  0.00    +0.000 A 
ATOM     24  O   UNL     1       2.224   5.403  21.141  0.00  0.00    +0.000 OA
ENDBRANCH  13  14
ENDBRANCH   1  13
TORSDOF 5
ENDMDL
MODEL 6
REMARK VINA RESULT:      -7.0      2.566      4.600
REMARK  Name = 
REMARK  7 active torsions:
REMARK  status: ('A' for Active; 'I' for Inactive)
REMARK    1  A    between atoms: C_1  and  O_2
REMARK    2  A    between atoms: O_2  and  C_3
REMARK    3  A    between atoms: C_6  and  O_7
REMARK    4  A    between atoms: O_7  and  C_8
REMARK    5  A    between atoms: C_9  and  C_10
REMARK    6  A    between atoms: C_10  and  C_12
REMARK    7  A    between atoms: C_12  and  N_13
REMARK                            x       y       z     vdW  Elec       q    Type
REMARK                         _______ _______ _______ _____ _____    ______ ____
ROOT
ATOM      1  C   UNL     1       5.644   5.007  19.038  0.00  0.00    +0.000 C 
ATOM      2  O   UNL     1       6.307   5.901  19.569  0.00  0.00    +0.000 OA
ENDROOT
BRANCH   1   7
ATOM      3  C   UNL     1       2.327   3.573  20.085  0.00  0.00    +0.000 A 
ATOM      4  C   UNL     1       1.450   4.630  19.877  0.00  0.00    +0.000 A 
ATOM      5  C   UNL     1       1.908   5.842  19.360  0.00  0.00    +0.000 A 
ATOM      6  C   UNL     1       3.259   6.023  19.031  0.00  0.00    +0.000 A 
ATOM      7  C   UNL     1       4.166   4.981  19.299  0.00  0.00    +0.000 A 
ATOM      8  C   UNL     1       3.678   3.760  19.809  0.00  0.00    +0.000 A 
BRANCH   3  10
ATOM      9  C   UNL     1       1.389   2.408  21.930  0.00  0.00    +0.000 C 
ATOM     10  O   UNL     1       1.745   2.431  20.554  0.00  0.00    +0.000 OA
ENDBRANCH   3  10
BRANCH   6  11
ATOM     11  O   UNL     1       3.718   7.164  18.433  0.00  0.00    +0.000 OA
ATOM     12  C   UNL     1       2.750   7.994  17.793  0.00  0.00    +0.000 C 
ENDBRANCH   6  11
ENDBRANCH   1   7
BRANCH   1  13
ATOM     13  C   UNL     1       6.310   4.034  18.085  0.00  0.00    +0.000 C 
BRANCH  13  14
ATOM     14  N   UNL     1       6.430   4.518  16.717  0.00  0.00    +0.000 N 
ATOM     15  N   UNL     1       7.563   5.218  16.387  0.00  0.00    +0.000 NA
ATOM     16  N   UNL     1       7.786   5.566  15.202  0.00  0.00    +0.000 NA
ATOM     17  C   UNL     1       7.092   4.926  14.165  0.00  0.00    +0.000 A 
ATOM     18  C   UNL     1       7.559   5.020  12.850  0.00  0.00    +0.000 A 
ATOM     19  C   UNL     1       6.957   4.280  11.822  0.00  0.00    +0.000 A 
ATOM     20  C   UNL     1       5.881   3.437  12.104  0.00  0.00    +0.000 A 
ATOM     21  C   UNL     1       5.368   3.388  13.394  0.00  0.00    +0.000 A 
ATOM     22  C   UNL     1       5.974   4.147  14.402  0.00  0.00    +0.000 A 
ATOM     23  C   UNL     1       5.518   4.076  15.783  0.00  0.00    +0.000 A 
ATOM     24  O   UNL     1       4.425   3.579  16.040  0.00  0.00    +0.000 OA
ENDBRANCH  13  14
ENDBRANCH   1  13
TORSDOF 5
ENDMDL
MODEL 7
REMARK VINA RESULT:      -6.9      2.727      4.105
REMARK  Name = 
REMARK  7 active torsions:
REMARK  status: ('A' for Active; 'I' for Inactive)
REMARK    1  A    between atoms: C_1  and  O_2
REMARK    2  A    between atoms: O_2  and  C_3
REMARK    3  A    between atoms: C_6  and  O_7
REMARK    4  A    between atoms: O_7  and  C_8
REMARK    5  A    between atoms: C_9  and  C_10
REMARK    6  A    between atoms: C_10  and  C_12
REMARK    7  A    between atoms: C_12  and  N_13
REMARK                            x       y       z     vdW  Elec       q    Type
REMARK                         _______ _______ _______ _____ _____    ______ ____
ROOT
ATOM      1  C   UNL     1       4.878   5.832  18.291  0.00  0.00    +0.000 C 
ATOM      2  O   UNL     1       4.938   7.040  18.048  0.00  0.00    +0.000 OA
ENDROOT
BRANCH   1   7
ATOM      3  C   UNL     1       1.833   6.027  20.492  0.00  0.00    +0.000 A 
ATOM      4  C   UNL     1       1.437   4.700  20.596  0.00  0.00    +0.000 A 
ATOM      5  C   UNL     1       2.169   3.689  19.972  0.00  0.00    +0.000 A 
ATOM      6  C   UNL     1       3.324   3.984  19.232  0.00  0.00    +0.000 A 
ATOM      7  C   UNL     1       3.695   5.331  19.067  0.00  0.00    +0.000 A 
ATOM      8  C   UNL     1       2.948   6.334  19.718  0.00  0.00    +0.000 A 
BRANCH   3  10
ATOM      9  C   UNL     1       1.209   8.288  20.864  0.00  0.00    +0.000 C 
ATOM     10  O   UNL     1       1.056   6.911  21.183  0.00  0.00    +0.000 OA
ENDBRANCH   3  10
BRANCH   6  11
ATOM     11  O   UNL     1       4.113   3.007  18.693  0.00  0.00    +0.000 OA
ATOM     12  C   UNL     1       3.454   1.845  18.192  0.00  0.00    +0.000 C 
ENDBRANCH   6  11
ENDBRANCH   1   7
BRANCH   1  13
ATOM     13  C   UNL     1       5.930   4.895  17.732  0.00  0.00    +0.000 C 
BRANCH  13  14
ATOM     14  N   UNL     1       6.191   5.061  16.310  0.00  0.00    +0.000 N 
ATOM     15  N   UNL     1       7.418   5.555  15.942  0.00  0.00    +0.000 NA
ATOM     16  N   UNL     1       7.754   5.618  14.735  0.00  0.00    +0.000 NA
ATOM     17  C   UNL     1       7.056   4.846  13.795  0.00  0.00    +0.000 A 
ATOM     18  C   UNL     1       7.611   4.610  12.534  0.00  0.00    +0.000 A 
ATOM     19  C   UNL     1       6.992   3.733  11.631  0.00  0.00    +0.000 A 
ATOM     20  C   UNL     1       5.809   3.084  11.986  0.00  0.00    +0.000 A 
ATOM     21  C   UNL     1       5.214   3.364  13.210  0.00  0.00    +0.000 A 
ATOM     22  C   UNL     1       5.841   4.254  14.089  0.00  0.00    +0.000 A 
ATOM     23  C   UNL     1       5.294   4.526  15.411  0.00  0.00    +0.000 A 
ATOM     24  O   UNL     1       4.136   4.210  15.669  0.00  0.00    +0.000 OA
ENDBRANCH  13  14
ENDBRANCH   1  13
TORSDOF 5
ENDMDL
MODEL 8
REMARK VINA RESULT:      -6.8      1.397      1.724
REMARK  Name = 
REMARK  7 active torsions:
REMARK  status: ('A' for Active; 'I' for Inactive)
REMARK    1  A    between atoms: C_1  and  O_2
REMARK    2  A    between atoms: O_2  and  C_3
REMARK    3  A    between atoms: C_6  and  O_7
REMARK    4  A    between atoms: O_7  and  C_8
REMARK    5  A    between atoms: C_9  and  C_10
REMARK    6  A    between atoms: C_10  and  C_12
REMARK    7  A    between atoms: C_12  and  N_13
REMARK                            x       y       z     vdW  Elec       q    Type
REMARK                         _______ _______ _______ _____ _____    ______ ____
ROOT
ATOM      1  C   UNL     1       3.107   3.957  17.472  0.00  0.00    +0.000 C 
ATOM      2  O   UNL     1       2.261   3.479  16.713  0.00  0.00    +0.000 OA
ENDROOT
BRANCH   1   7
ATOM      3  C   UNL     1       2.129   7.111  19.275  0.00  0.00    +0.000 A 
ATOM      4  C   UNL     1       1.768   6.652  20.535  0.00  0.00    +0.000 A 
ATOM      5  C   UNL     1       1.857   5.296  20.850  0.00  0.00    +0.000 A 
ATOM      6  C   UNL     1       2.320   4.364  19.908  0.00  0.00    +0.000 A 
ATOM      7  C   UNL     1       2.626   4.811  18.609  0.00  0.00    +0.000 A 
ATOM      8  C   UNL     1       2.541   6.188  18.318  0.00  0.00    +0.000 A 
BRANCH   3  10
ATOM      9  C   UNL     1       1.700   8.931  17.810  0.00  0.00    +0.000 C 
ATOM     10  O   UNL     1       2.035   8.463  19.110  0.00  0.00    +0.000 OA
ENDBRANCH   3  10
BRANCH   6  11
ATOM     11  O   UNL     1       2.511   3.047  20.219  0.00  0.00    +0.000 OA
ATOM     12  C   UNL     1       2.158   2.635  21.539  0.00  0.00    +0.000 C 
ENDBRANCH   6  11
ENDBRANCH   1   7
BRANCH   1  13
ATOM     13  C   UNL     1       4.570   3.602  17.295  0.00  0.00    +0.000 C 
BRANCH  13  14
ATOM     14  N   UNL     1       5.438   4.741  17.030  0.00  0.00    +0.000 N 
ATOM     15  N   UNL     1       4.936   5.757  16.255  0.00  0.00    +0.000 NA
ATOM     16  N   UNL     1       5.583   6.817  16.080  0.00  0.00    +0.000 NA
ATOM     17  C   UNL     1       6.627   7.129  16.963  0.00  0.00    +0.000 A 
ATOM     18  C   UNL     1       7.122   8.435  17.026  0.00  0.00    +0.000 A 
ATOM     19  C   UNL     1       8.071   8.795  17.994  0.00  0.00    +0.000 A 
ATOM     20  C   UNL     1       8.531   7.848  18.909  0.00  0.00    +0.000 A 
ATOM     21  C   UNL     1       8.096   6.531  18.811  0.00  0.00    +0.000 A 
ATOM     22  C   UNL     1       7.161   6.191  17.828  0.00  0.00    +0.000 A 
ATOM     23  C   UNL     1       6.621   4.842  17.730  0.00  0.00    +0.000 A 
ATOM     24  O   UNL     1       7.180   3.917  18.312  0.00  0.00    +0.000 OA
ENDBRANCH  13  14
ENDBRANCH   1  13
TORSDOF 5
ENDMDL
MODEL 9
REMARK VINA RESULT:      -6.7      2.513      4.455
REMARK  Name = 
REMARK  7 active torsions:
REMARK  status: ('A' for Active; 'I' for Inactive)
REMARK    1  A    between atoms: C_1  and  O_2
REMARK    2  A    between atoms: O_2  and  C_3
REMARK    3  A    between atoms: C_6  and  O_7
REMARK    4  A    between atoms: O_7  and  C_8
REMARK    5  A    between atoms: C_9  and  C_10
REMARK    6  A    between atoms: C_10  and  C_12
REMARK    7  A    between atoms: C_12  and  N_13
REMARK                            x       y       z     vdW  Elec       q    Type
REMARK                         _______ _______ _______ _____ _____    ______ ____
ROOT
ATOM      1  C   UNL     1       4.995   5.589  18.965  0.00  0.00    +0.000 C 
ATOM      2  O   UNL     1       5.962   5.378  19.701  0.00  0.00    +0.000 OA
ENDROOT
BRANCH   1   7
ATOM      3  C   UNL     1       2.120   3.405  20.025  0.00  0.00    +0.000 A 
ATOM      4  C   UNL     1       1.160   4.325  20.425  0.00  0.00    +0.000 A 
ATOM      5  C   UNL     1       1.408   5.695  20.338  0.00  0.00    +0.000 A 
ATOM      6  C   UNL     1       2.626   6.178  19.837  0.00  0.00    +0.000 A 
ATOM      7  C   UNL     1       3.629   5.254  19.490  0.00  0.00    +0.000 A 
ATOM      8  C   UNL     1       3.351   3.875  19.575  0.00  0.00    +0.000 A 
BRANCH   3  10
ATOM      9  C   UNL     1       1.431   1.426  18.908  0.00  0.00    +0.000 C 
ATOM     10  O   UNL     1       1.736   2.099  20.122  0.00  0.00    +0.000 OA
ENDBRANCH   3  10
BRANCH   6  11
ATOM     11  O   UNL     1       2.859   7.512  19.648  0.00  0.00    +0.000 OA
ATOM     12  C   UNL     1       2.152   8.149  18.585  0.00  0.00    +0.000 C 
ENDBRANCH   6  11
ENDBRANCH   1   7
BRANCH   1  13
ATOM     13  C   UNL     1       5.199   6.250  17.616  0.00  0.00    +0.000 C 
BRANCH  13  14
ATOM     14  N   UNL     1       5.624   5.344  16.560  0.00  0.00    +0.000 N 
ATOM     15  N   UNL     1       4.745   4.364  16.169  0.00  0.00    +0.000 NA
ATOM     16  N   UNL     1       4.998   3.621  15.190  0.00  0.00    +0.000 NA
ATOM     17  C   UNL     1       5.974   4.023  14.267  0.00  0.00    +0.000 A 
ATOM     18  C   UNL     1       6.029   3.426  13.004  0.00  0.00    +0.000 A 
ATOM     19  C   UNL     1       6.909   3.906  12.023  0.00  0.00    +0.000 A 
ATOM     20  C   UNL     1       7.741   4.991  12.299  0.00  0.00    +0.000 A 
ATOM     21  C   UNL     1       7.741   5.548  13.573  0.00  0.00    +0.000 A 
ATOM     22  C   UNL     1       6.867   5.043  14.541  0.00  0.00    +0.000 A 
ATOM     23  C   UNL     1       6.779   5.638  15.868  0.00  0.00    +0.000 A 
ATOM     24  O   UNL     1       7.663   6.397  16.256  0.00  0.00    +0.000 OA
ENDBRANCH  13  14
ENDBRANCH   1  13
TORSDOF 5
ENDMDL
