MODEL 1
REMARK VINA RESULT:      -8.2      0.000      0.000
REMARK  Name = 
REMARK  9 active torsions:
REMARK  status: ('A' for Active; 'I' for Inactive)
REMARK    1  A    between atoms: C_1  and  C_2
REMARK    2  A    between atoms: C_2  and  C_3
REMARK    3  A    between atoms: C_2  and  N_4
REMARK    4  A    between atoms: C_5  and  C_8
REMARK    5  A    between atoms: N_6  and  O_7
REMARK    6  A    between atoms: C_11  and  O_12
REMARK    7  A    between atoms: O_12  and  C_13
REMARK    8  A    between atoms: C_20  and  C_21
REMARK    9  A    between atoms: C_20  and  C_22
REMARK                            x       y       z     vdW  Elec       q    Type
REMARK                         _______ _______ _______ _____ _____    ______ ____
ROOT
ATOM      1  C   UNL     1       0.385   9.784  18.804  0.00  0.00    +0.000 A 
ATOM      2  C   UNL     1       0.473   9.364  20.132  0.00  0.00    +0.000 A 
ATOM      3  C   UNL     1       1.376   8.350  20.478  0.00  0.00    +0.000 A 
ATOM      4  C   UNL     1       2.149   7.785  19.472  0.00  0.00    +0.000 A 
ATOM      5  N   UNL     1       2.119   8.210  18.186  0.00  0.00    +0.000 NA
ATOM      6  C   UNL     1       1.225   9.178  17.878  0.00  0.00    +0.000 A 
ENDROOT
BRANCH   1   8
ATOM      7  N   UNL     1      -1.318  10.548  17.196  0.00  0.00    +0.000 N 
ATOM      8  C   UNL     1      -0.576  10.846  18.334  0.00  0.00    +0.000 C 
ATOM      9  N   UNL     1      -0.597  11.914  19.080  0.00  0.00    +0.000 NA
ATOM     10  H   UNL     1      -1.231   9.590  16.879  0.00  0.00    +0.000 HD
BRANCH   7  12
ATOM     11  C   UNL     1      -2.925  10.874  15.404  0.00  0.00    +0.000 C 
ATOM     12  C   UNL     1      -2.641  11.089  16.893  0.00  0.00    +0.000 C 
ATOM     13  C   UNL     1      -3.711  10.384  17.727  0.00  0.00    +0.000 C 
ENDBRANCH   7  12
BRANCH   9  14
ATOM     14  O   UNL     1      -1.457  12.912  18.625  0.00  0.00    +0.000 OA
ATOM     15  H   UNL     1      -2.297  12.431  18.521  0.00  0.00    +0.000 HD
ENDBRANCH   9  14
ENDBRANCH   1   8
BRANCH   4  16
ATOM     16  O   UNL     1       2.958   6.705  19.812  0.00  0.00    +0.000 OA
BRANCH  16  17
ATOM     17  C   UNL     1       2.794   5.552  19.078  0.00  0.00    +0.000 A 
ATOM     18  C   UNL     1       1.718   4.669  19.273  0.00  0.00    +0.000 A 
ATOM     19  C   UNL     1       1.553   3.538  18.462  0.00  0.00    +0.000 A 
ATOM     20  C   UNL     1       2.485   3.242  17.471  0.00  0.00    +0.000 A 
ATOM     21  C   UNL     1       3.580   4.077  17.331  0.00  0.00    +0.000 A 
ATOM     22  C   UNL     1       3.741   5.206  18.123  0.00  0.00    +0.000 A 
ATOM     23  O   UNL     1       4.886   5.907  17.840  0.00  0.00    +0.000 OA
ATOM     24  C   UNL     1       5.590   5.126  16.830  0.00  0.00    +0.000 C 
ATOM     25  C   UNL     1       6.883   4.583  17.453  0.00  0.00    +0.000 C 
ATOM     26  C   UNL     1       5.932   6.065  15.670  0.00  0.00    +0.000 C 
ATOM     27  C   UNL     1       4.683   3.973  16.352  0.00  0.00    +0.000 C 
ENDBRANCH  16  17
ENDBRANCH   4  16
TORSDOF 5
ENDMDL
MODEL 2
REMARK VINA RESULT:      -8.1      4.448      7.898
REMARK  Name = 
REMARK  9 active torsions:
REMARK  status: ('A' for Active; 'I' for Inactive)
REMARK    1  A    between atoms: C_1  and  C_2
REMARK    2  A    between atoms: C_2  and  C_3
REMARK    3  A    between atoms: C_2  and  N_4
REMARK    4  A    between atoms: C_5  and  C_8
REMARK    5  A    between atoms: N_6  and  O_7
REMARK    6  A    between atoms: C_11  and  O_12
REMARK    7  A    between atoms: O_12  and  C_13
REMARK    8  A    between atoms: C_20  and  C_21
REMARK    9  A    between atoms: C_20  and  C_22
REMARK                            x       y       z     vdW  Elec       q    Type
REMARK                         _______ _______ _______ _____ _____    ______ ____
ROOT
ATOM      1  C   UNL     1       6.300   4.370  15.775  0.00  0.00    +0.000 A 
ATOM      2  C   UNL     1       4.964   4.123  16.096  0.00  0.00    +0.000 A 
ATOM      3  C   UNL     1       4.575   4.063  17.439  0.00  0.00    +0.000 A 
ATOM      4  C   UNL     1       5.548   4.241  18.415  0.00  0.00    +0.000 A 
ATOM      5  N   UNL     1       6.839   4.533  18.132  0.00  0.00    +0.000 NA
ATOM      6  C   UNL     1       7.189   4.567  16.825  0.00  0.00    +0.000 A 
ENDROOT
BRANCH   1   8
ATOM      7  N   UNL     1       6.450   3.373  13.528  0.00  0.00    +0.000 N 
ATOM      8  C   UNL     1       6.817   4.425  14.360  0.00  0.00    +0.000 C 
ATOM      9  N   UNL     1       7.535   5.478  14.095  0.00  0.00    +0.000 NA
ATOM     10  H   UNL     1       5.760   2.745  13.926  0.00  0.00    +0.000 HD
BRANCH   7  12
ATOM     11  C   UNL     1       7.067   2.291  11.443  0.00  0.00    +0.000 C 
ATOM     12  C   UNL     1       6.311   3.461  12.076  0.00  0.00    +0.000 C 
ATOM     13  C   UNL     1       4.837   3.398  11.675  0.00  0.00    +0.000 C 
ENDBRANCH   7  12
BRANCH   9  14
ATOM     14  O   UNL     1       8.044   5.512  12.798  0.00  0.00    +0.000 OA
ATOM     15  H   UNL     1       8.056   6.467  12.604  0.00  0.00    +0.000 HD
ENDBRANCH   9  14
ENDBRANCH   1   8
BRANCH   4  16
ATOM     16  O   UNL     1       5.166   4.067  19.743  0.00  0.00    +0.000 OA
BRANCH  16  17
ATOM     17  C   UNL     1       3.831   3.822  19.977  0.00  0.00    +0.000 A 
ATOM     18  C   UNL     1       3.310   2.528  20.140  0.00  0.00    +0.000 A 
ATOM     19  C   UNL     1       1.955   2.324  20.439  0.00  0.00    +0.000 A 
ATOM     20  C   UNL     1       1.087   3.408  20.533  0.00  0.00    +0.000 A 
ATOM     21  C   UNL     1       1.592   4.676  20.301  0.00  0.00    +0.000 A 
ATOM     22  C   UNL     1       2.936   4.883  20.019  0.00  0.00    +0.000 A 
ATOM     23  O   UNL     1       3.249   6.203  19.816  0.00  0.00    +0.000 OA
ATOM     24  C   UNL     1       1.984   6.926  19.885  0.00  0.00    +0.000 C 
ATOM     25  C   UNL     1       1.670   7.486  18.492  0.00  0.00    +0.000 C 
ATOM     26  C   UNL     1       2.161   8.080  20.876  0.00  0.00    +0.000 C 
ATOM     27  C   UNL     1       0.873   5.966  20.356  0.00  0.00    +0.000 C 
ENDBRANCH  16  17
ENDBRANCH   4  16
TORSDOF 5
ENDMDL
MODEL 3
REMARK VINA RESULT:      -8.0      4.669      8.101
REMARK  Name = 
REMARK  9 active torsions:
REMARK  status: ('A' for Active; 'I' for Inactive)
REMARK    1  A    between atoms: C_1  and  C_2
REMARK    2  A    between atoms: C_2  and  C_3
REMARK    3  A    between atoms: C_2  and  N_4
REMARK    4  A    between atoms: C_5  and  C_8
REMARK    5  A    between atoms: N_6  and  O_7
REMARK    6  A    between atoms: C_11  and  O_12
REMARK    7  A    between atoms: O_12  and  C_13
REMARK    8  A    between atoms: C_20  and  C_21
REMARK    9  A    between atoms: C_20  and  C_22
REMARK                            x       y       z     vdW  Elec       q    Type
REMARK                         _______ _______ _______ _____ _____    ______ ____
ROOT
ATOM      1  C   UNL     1       6.426   4.365  15.348  0.00  0.00    +0.000 A 
ATOM      2  C   UNL     1       7.396   4.616  16.320  0.00  0.00    +0.000 A 
ATOM      3  C   UNL     1       7.015   4.738  17.662  0.00  0.00    +0.000 A 
ATOM      4  C   UNL     1       5.668   4.617  17.978  0.00  0.00    +0.000 A 
ATOM      5  N   UNL     1       4.715   4.323  17.062  0.00  0.00    +0.000 NA
ATOM      6  C   UNL     1       5.110   4.229  15.771  0.00  0.00    +0.000 A 
ENDROOT
BRANCH   1   8
ATOM      7  N   UNL     1       6.218   3.135  13.225  0.00  0.00    +0.000 N 
ATOM      8  C   UNL     1       6.738   4.247  13.878  0.00  0.00    +0.000 C 
ATOM      9  N   UNL     1       7.449   5.229  13.403  0.00  0.00    +0.000 NA
ATOM     10  H   UNL     1       5.569   2.588  13.779  0.00  0.00    +0.000 HD
BRANCH   7  12
ATOM     11  C   UNL     1       6.269   1.705  11.262  0.00  0.00    +0.000 C 
ATOM     12  C   UNL     1       5.877   3.081  11.805  0.00  0.00    +0.000 C 
ATOM     13  C   UNL     1       4.378   3.304  11.605  0.00  0.00    +0.000 C 
ENDBRANCH   7  12
BRANCH   9  14
ATOM     14  O   UNL     1       7.770   5.102  12.053  0.00  0.00    +0.000 OA
ATOM     15  H   UNL     1       6.903   4.915  11.650  0.00  0.00    +0.000 HD
ENDBRANCH   9  14
ENDBRANCH   1   8
BRANCH   4  16
ATOM     16  O   UNL     1       5.293   4.852  19.298  0.00  0.00    +0.000 OA
BRANCH  16  17
ATOM     17  C   UNL     1       4.050   5.408  19.500  0.00  0.00    +0.000 A 
ATOM     18  C   UNL     1       3.808   6.789  19.409  0.00  0.00    +0.000 A 
ATOM     19  C   UNL     1       2.515   7.310  19.560  0.00  0.00    +0.000 A 
ATOM     20  C   UNL     1       1.447   6.466  19.850  0.00  0.00    +0.000 A 
ATOM     21  C   UNL     1       1.704   5.114  20.007  0.00  0.00    +0.000 A 
ATOM     22  C   UNL     1       2.981   4.592  19.845  0.00  0.00    +0.000 A 
ATOM     23  O   UNL     1       3.040   3.236  20.043  0.00  0.00    +0.000 OA
ATOM     24  C   UNL     1       1.700   2.836  20.457  0.00  0.00    +0.000 C 
ATOM     25  C   UNL     1       1.763   2.371  21.917  0.00  0.00    +0.000 C 
ATOM     26  C   UNL     1       1.264   1.671  19.564  0.00  0.00    +0.000 C 
ATOM     27  C   UNL     1       0.740   4.033  20.302  0.00  0.00    +0.000 C 
ENDBRANCH  16  17
ENDBRANCH   4  16
TORSDOF 5
ENDMDL
MODEL 4
REMARK VINA RESULT:      -7.9      0.727      1.072
REMARK  Name = 
REMARK  9 active torsions:
REMARK  status: ('A' for Active; 'I' for Inactive)
REMARK    1  A    between atoms: C_1  and  C_2
REMARK    2  A    between atoms: C_2  and  C_3
REMARK    3  A    between atoms: C_2  and  N_4
REMARK    4  A    between atoms: C_5  and  C_8
REMARK    5  A    between atoms: N_6  and  O_7
REMARK    6  A    between atoms: C_11  and  O_12
REMARK    7  A    between atoms: O_12  and  C_13
REMARK    8  A    between atoms: C_20  and  C_21
REMARK    9  A    between atoms: C_20  and  C_22
REMARK                            x       y       z     vdW  Elec       q    Type
REMARK                         _______ _______ _______ _____ _____    ______ ____
ROOT
ATOM      1  C   UNL     1       0.307   9.846  18.637  0.00  0.00    +0.000 A 
ATOM      2  C   UNL     1       1.176   9.241  17.727  0.00  0.00    +0.000 A 
ATOM      3  C   UNL     1       2.053   8.242  18.169  0.00  0.00    +0.000 A 
ATOM      4  C   UNL     1       2.033   7.897  19.514  0.00  0.00    +0.000 A 
ATOM      5  N   UNL     1       1.166   8.431  20.405  0.00  0.00    +0.000 NA
ATOM      6  C   UNL     1       0.342   9.406  19.954  0.00  0.00    +0.000 A 
ENDROOT
BRANCH   1   8
ATOM      7  N   UNL     1      -1.465  10.708  17.159  0.00  0.00    +0.000 N 
ATOM      8  C   UNL     1      -0.651  10.948  18.260  0.00  0.00    +0.000 C 
ATOM      9  N   UNL     1      -0.601  11.988  19.042  0.00  0.00    +0.000 NA
ATOM     10  H   UNL     1      -1.422   9.760  16.804  0.00  0.00    +0.000 HD
BRANCH   7  12
ATOM     11  C   UNL     1      -3.193  11.076  15.492  0.00  0.00    +0.000 C 
ATOM     12  C   UNL     1      -2.789  11.291  16.952  0.00  0.00    +0.000 C 
ATOM     13  C   UNL     1      -3.815  10.629  17.872  0.00  0.00    +0.000 C 
ENDBRANCH   7  12
BRANCH   9  14
ATOM     14  O   UNL     1      -1.459  13.023  18.673  0.00  0.00    +0.000 OA
ATOM     15  H   UNL     1      -1.524  12.904  17.708  0.00  0.00    +0.000 HD
ENDBRANCH   9  14
ENDBRANCH   1   8
BRANCH   4  16
ATOM     16  O   UNL     1       2.987   6.984  19.957  0.00  0.00    +0.000 OA
BRANCH  16  17
ATOM     17  C   UNL     1       2.849   5.684  19.522  0.00  0.00    +0.000 A 
ATOM     18  C   UNL     1       1.909   4.793  20.066  0.00  0.00    +0.000 A 
ATOM     19  C   UNL     1       1.758   3.497  19.553  0.00  0.00    +0.000 A 
ATOM     20  C   UNL     1       2.576   3.052  18.518  0.00  0.00    +0.000 A 
ATOM     21  C   UNL     1       3.548   3.911  18.035  0.00  0.00    +0.000 A 
ATOM     22  C   UNL     1       3.692   5.200  18.530  0.00  0.00    +0.000 A 
ATOM     23  O   UNL     1       4.708   5.900  17.931  0.00  0.00    +0.000 OA
ATOM     24  C   UNL     1       5.351   4.963  17.017  0.00  0.00    +0.000 C 
ATOM     25  C   UNL     1       6.765   4.673  17.536  0.00  0.00    +0.000 C 
ATOM     26  C   UNL     1       5.434   5.634  15.643  0.00  0.00    +0.000 C 
ATOM     27  C   UNL     1       4.516   3.668  16.943  0.00  0.00    +0.000 C 
ENDBRANCH  16  17
ENDBRANCH   4  16
TORSDOF 5
ENDMDL
MODEL 5
REMARK VINA RESULT:      -7.7      5.004      7.745
REMARK  Name = 
REMARK  9 active torsions:
REMARK  status: ('A' for Active; 'I' for Inactive)
REMARK    1  A    between atoms: C_1  and  C_2
REMARK    2  A    between atoms: C_2  and  C_3
REMARK    3  A    between atoms: C_2  and  N_4
REMARK    4  A    between atoms: C_5  and  C_8
REMARK    5  A    between atoms: N_6  and  O_7
REMARK    6  A    between atoms: C_11  and  O_12
REMARK    7  A    between atoms: O_12  and  C_13
REMARK    8  A    between atoms: C_20  and  C_21
REMARK    9  A    between atoms: C_20  and  C_22
REMARK                            x       y       z     vdW  Elec       q    Type
REMARK                         _______ _______ _______ _____ _____    ______ ____
ROOT
ATOM      1  C   UNL     1       6.283   5.017  15.045  0.00  0.00    +0.000 A 
ATOM      2  C   UNL     1       5.230   5.892  15.320  0.00  0.00    +0.000 A 
ATOM      3  C   UNL     1       4.965   6.260  16.644  0.00  0.00    +0.000 A 
ATOM      4  C   UNL     1       5.760   5.723  17.649  0.00  0.00    +0.000 A 
ATOM      5  N   UNL     1       6.818   4.915  17.406  0.00  0.00    +0.000 NA
ATOM      6  C   UNL     1       7.040   4.562  16.118  0.00  0.00    +0.000 A 
ENDROOT
BRANCH   1   8
ATOM      7  N   UNL     1       5.961   3.407  13.209  0.00  0.00    +0.000 N 
ATOM      8  C   UNL     1       6.625   4.544  13.655  0.00  0.00    +0.000 C 
ATOM      9  N   UNL     1       7.500   5.287  13.039  0.00  0.00    +0.000 NA
ATOM     10  H   UNL     1       5.214   3.092  13.818  0.00  0.00    +0.000 HD
BRANCH   7  12
ATOM     11  C   UNL     1       6.046   1.643  11.541  0.00  0.00    +0.000 C 
ATOM     12  C   UNL     1       5.668   3.102  11.810  0.00  0.00    +0.000 C 
ATOM     13  C   UNL     1       4.183   3.310  11.517  0.00  0.00    +0.000 C 
ENDBRANCH   7  12
BRANCH   9  14
ATOM     14  O   UNL     1       7.846   4.829  11.769  0.00  0.00    +0.000 OA
ATOM     15  H   UNL     1       7.290   5.382  11.191  0.00  0.00    +0.000 HD
ENDBRANCH   9  14
ENDBRANCH   1   8
BRANCH   4  16
ATOM     16  O   UNL     1       5.413   6.010  18.966  0.00  0.00    +0.000 OA
BRANCH  16  17
ATOM     17  C   UNL     1       4.150   5.638  19.370  0.00  0.00    +0.000 A 
ATOM     18  C   UNL     1       3.145   6.566  19.687  0.00  0.00    +0.000 A 
ATOM     19  C   UNL     1       1.853   6.146  20.033  0.00  0.00    +0.000 A 
ATOM     20  C   UNL     1       1.554   4.789  20.114  0.00  0.00    +0.000 A 
ATOM     21  C   UNL     1       2.568   3.878  19.869  0.00  0.00    +0.000 A 
ATOM     22  C   UNL     1       3.846   4.290  19.512  0.00  0.00    +0.000 A 
ATOM     23  O   UNL     1       4.714   3.247  19.312  0.00  0.00    +0.000 OA
ATOM     24  C   UNL     1       3.969   2.040  19.650  0.00  0.00    +0.000 C 
ATOM     25  C   UNL     1       4.588   1.428  20.914  0.00  0.00    +0.000 C 
ATOM     26  C   UNL     1       4.112   1.062  18.481  0.00  0.00    +0.000 C 
ATOM     27  C   UNL     1       2.488   2.402  19.883  0.00  0.00    +0.000 C 
ENDBRANCH  16  17
ENDBRANCH   4  16
TORSDOF 5
ENDMDL
MODEL 6
REMARK VINA RESULT:      -7.7      1.504      2.350
REMARK  Name = 
REMARK  9 active torsions:
REMARK  status: ('A' for Active; 'I' for Inactive)
REMARK    1  A    between atoms: C_1  and  C_2
REMARK    2  A    between atoms: C_2  and  C_3
REMARK    3  A    between atoms: C_2  and  N_4
REMARK    4  A    between atoms: C_5  and  C_8
REMARK    5  A    between atoms: N_6  and  O_7
REMARK    6  A    between atoms: C_11  and  O_12
REMARK    7  A    between atoms: O_12  and  C_13
REMARK    8  A    between atoms: C_20  and  C_21
REMARK    9  A    between atoms: C_20  and  C_22
REMARK                            x       y       z     vdW  Elec       q    Type
REMARK                         _______ _______ _______ _____ _____    ______ ____
ROOT
ATOM      1  C   UNL     1       0.431  10.097  18.985  0.00  0.00    +0.000 A 
ATOM      2  C   UNL     1       1.209   9.540  17.969  0.00  0.00    +0.000 A 
ATOM      3  C   UNL     1       2.017   8.430  18.247  0.00  0.00    +0.000 A 
ATOM      4  C   UNL     1       2.023   7.927  19.542  0.00  0.00    +0.000 A 
ATOM      5  N   UNL     1       1.239   8.416  20.531  0.00  0.00    +0.000 NA
ATOM      6  C   UNL     1       0.483   9.500  20.238  0.00  0.00    +0.000 A 
ENDROOT
BRANCH   1   8
ATOM      7  N   UNL     1      -0.131  12.429  19.547  0.00  0.00    +0.000 N 
ATOM      8  C   UNL     1      -0.446  11.308  18.788  0.00  0.00    +0.000 C 
ATOM      9  N   UNL     1      -1.387  11.145  17.902  0.00  0.00    +0.000 NA
ATOM     10  H   UNL     1       0.741  12.357  20.058  0.00  0.00    +0.000 HD
BRANCH   7  12
ATOM     11  C   UNL     1      -1.123  14.510  20.311  0.00  0.00    +0.000 C 
ATOM     12  C   UNL     1      -0.404  13.810  19.156  0.00  0.00    +0.000 C 
ATOM     13  C   UNL     1       0.900  14.544  18.842  0.00  0.00    +0.000 C 
ENDBRANCH   7  12
BRANCH   9  14
ATOM     14  O   UNL     1      -2.222  12.250  17.745  0.00  0.00    +0.000 OA
ATOM     15  H   UNL     1      -3.082  11.834  17.550  0.00  0.00    +0.000 HD
ENDBRANCH   9  14
ENDBRANCH   1   8
BRANCH   4  16
ATOM     16  O   UNL     1       2.914   6.896  19.827  0.00  0.00    +0.000 OA
BRANCH  16  17
ATOM     17  C   UNL     1       2.679   5.687  19.211  0.00  0.00    +0.000 A 
ATOM     18  C   UNL     1       1.623   4.836  19.578  0.00  0.00    +0.000 A 
ATOM     19  C   UNL     1       1.381   3.642  18.884  0.00  0.00    +0.000 A 
ATOM     20  C   UNL     1       2.217   3.253  17.842  0.00  0.00    +0.000 A 
ATOM     21  C   UNL     1       3.298   4.061  17.532  0.00  0.00    +0.000 A 
ATOM     22  C   UNL     1       3.534   5.252  18.207  0.00  0.00    +0.000 A 
ATOM     23  O   UNL     1       4.650   5.913  17.763  0.00  0.00    +0.000 OA
ATOM     24  C   UNL     1       5.257   5.041  16.763  0.00  0.00    +0.000 C 
ATOM     25  C   UNL     1       6.599   4.538  17.311  0.00  0.00    +0.000 C 
ATOM     26  C   UNL     1       5.496   5.875  15.501  0.00  0.00    +0.000 C 
ATOM     27  C   UNL     1       4.307   3.863  16.470  0.00  0.00    +0.000 C 
ENDBRANCH  16  17
ENDBRANCH   4  16
TORSDOF 5
ENDMDL
MODEL 7
REMARK VINA RESULT:      -7.7      1.417      1.931
REMARK  Name = 
REMARK  9 active torsions:
REMARK  status: ('A' for Active; 'I' for Inactive)
REMARK    1  A    between atoms: C_1  and  C_2
REMARK    2  A    between atoms: C_2  and  C_3
REMARK    3  A    between atoms: C_2  and  N_4
REMARK    4  A    between atoms: C_5  and  C_8
REMARK    5  A    between atoms: N_6  and  O_7
REMARK    6  A    between atoms: C_11  and  O_12
REMARK    7  A    between atoms: O_12  and  C_13
REMARK    8  A    between atoms: C_20  and  C_21
REMARK    9  A    between atoms: C_20  and  C_22
REMARK                            x       y       z     vdW  Elec       q    Type
REMARK                         _______ _______ _______ _____ _____    ______ ____
ROOT
ATOM      1  C   UNL     1       1.206   9.520  18.752  0.00  0.00    +0.000 A 
ATOM      2  C   UNL     1       1.867   8.762  17.785  0.00  0.00    +0.000 A 
ATOM      3  C   UNL     1       2.481   7.558  18.151  0.00  0.00    +0.000 A 
ATOM      4  C   UNL     1       2.420   7.166  19.482  0.00  0.00    +0.000 A 
ATOM      5  N   UNL     1       1.742   7.856  20.429  0.00  0.00    +0.000 NA
ATOM      6  C   UNL     1       1.174   9.025  20.050  0.00  0.00    +0.000 A 
ENDROOT
BRANCH   1   8
ATOM      7  N   UNL     1      -0.728  10.781  17.892  0.00  0.00    +0.000 N 
ATOM      8  C   UNL     1       0.541  10.841  18.457  0.00  0.00    +0.000 C 
ATOM      9  N   UNL     1       1.248  11.881  18.796  0.00  0.00    +0.000 NA
ATOM     10  H   UNL     1      -1.129   9.851  17.859  0.00  0.00    +0.000 HD
BRANCH   7  12
ATOM     11  C   UNL     1      -2.941  11.439  17.138  0.00  0.00    +0.000 C 
ATOM     12  C   UNL     1      -1.764  11.799  18.047  0.00  0.00    +0.000 C 
ATOM     13  C   UNL     1      -2.238  11.863  19.499  0.00  0.00    +0.000 C 
ENDBRANCH   7  12
BRANCH   9  14
ATOM     14  O   UNL     1       0.652  13.103  18.490  0.00  0.00    +0.000 OA
ATOM     15  H   UNL     1       1.423  13.676  18.329  0.00  0.00    +0.000 HD
ENDBRANCH   9  14
ENDBRANCH   1   8
BRANCH   4  16
ATOM     16  O   UNL     1       3.130   6.026  19.850  0.00  0.00    +0.000 OA
BRANCH  16  17
ATOM     17  C   UNL     1       3.587   5.224  18.828  0.00  0.00    +0.000 A 
ATOM     18  C   UNL     1       2.804   4.215  18.242  0.00  0.00    +0.000 A 
ATOM     19  C   UNL     1       3.284   3.461  17.162  0.00  0.00    +0.000 A 
ATOM     20  C   UNL     1       4.572   3.670  16.676  0.00  0.00    +0.000 A 
ATOM     21  C   UNL     1       5.363   4.618  17.304  0.00  0.00    +0.000 A 
ATOM     22  C   UNL     1       4.887   5.376  18.365  0.00  0.00    +0.000 A 
ATOM     23  O   UNL     1       5.814   6.259  18.858  0.00  0.00    +0.000 OA
ATOM     24  C   UNL     1       7.041   6.003  18.113  0.00  0.00    +0.000 C 
ATOM     25  C   UNL     1       8.081   5.419  19.078  0.00  0.00    +0.000 C 
ATOM     26  C   UNL     1       7.542   7.343  17.566  0.00  0.00    +0.000 C 
ATOM     27  C   UNL     1       6.744   5.019  16.963  0.00  0.00    +0.000 C 
ENDBRANCH  16  17
ENDBRANCH   4  16
TORSDOF 5
ENDMDL
MODEL 8
REMARK VINA RESULT:      -7.5      1.284      1.487
REMARK  Name = 
REMARK  9 active torsions:
REMARK  status: ('A' for Active; 'I' for Inactive)
REMARK    1  A    between atoms: C_1  and  C_2
REMARK    2  A    between atoms: C_2  and  C_3
REMARK    3  A    between atoms: C_2  and  N_4
REMARK    4  A    between atoms: C_5  and  C_8
REMARK    5  A    between atoms: N_6  and  O_7
REMARK    6  A    between atoms: C_11  and  O_12
REMARK    7  A    between atoms: O_12  and  C_13
REMARK    8  A    between atoms: C_20  and  C_21
REMARK    9  A    between atoms: C_20  and  C_22
REMARK                            x       y       z     vdW  Elec       q    Type
REMARK                         _______ _______ _______ _____ _____    ______ ____
ROOT
ATOM      1  C   UNL     1       0.117  10.049  19.336  0.00  0.00    +0.000 A 
ATOM      2  C   UNL     1      -0.021   9.550  20.632  0.00  0.00    +0.000 A 
ATOM      3  C   UNL     1       0.817   8.516  21.068  0.00  0.00    +0.000 A 
ATOM      4  C   UNL     1       1.756   8.011  20.178  0.00  0.00    +0.000 A 
ATOM      5  N   UNL     1       1.945   8.511  18.935  0.00  0.00    +0.000 NA
ATOM      6  C   UNL     1       1.110   9.498  18.535  0.00  0.00    +0.000 A 
ENDROOT
BRANCH   1   8
ATOM      7  N   UNL     1      -2.121  11.023  19.007  0.00  0.00    +0.000 N 
ATOM      8  C   UNL     1      -0.756  11.140  18.770  0.00  0.00    +0.000 C 
ATOM      9  N   UNL     1      -0.102  12.074  18.141  0.00  0.00    +0.000 NA
ATOM     10  H   UNL     1      -2.373  10.283  19.652  0.00  0.00    +0.000 HD
BRANCH   7  12
ATOM     11  C   UNL     1      -4.387  11.716  18.471  0.00  0.00    +0.000 C 
ATOM     12  C   UNL     1      -3.056  12.143  19.095  0.00  0.00    +0.000 C 
ATOM     13  C   UNL     1      -3.277  12.541  20.554  0.00  0.00    +0.000 C 
ENDBRANCH   7  12
BRANCH   9  14
ATOM     14  O   UNL     1      -0.911  13.063  17.585  0.00  0.00    +0.000 OA
ATOM     15  H   UNL     1      -1.278  13.500  18.375  0.00  0.00    +0.000 HD
ENDBRANCH   9  14
ENDBRANCH   1   8
BRANCH   4  16
ATOM     16  O   UNL     1       2.504   6.910  20.589  0.00  0.00    +0.000 OA
BRANCH  16  17
ATOM     17  C   UNL     1       2.267   5.721  19.935  0.00  0.00    +0.000 A 
ATOM     18  C   UNL     1       1.224   4.850  20.289  0.00  0.00    +0.000 A 
ATOM     19  C   UNL     1       0.978   3.679  19.557  0.00  0.00    +0.000 A 
ATOM     20  C   UNL     1       1.799   3.334  18.487  0.00  0.00    +0.000 A 
ATOM     21  C   UNL     1       2.869   4.162  18.188  0.00  0.00    +0.000 A 
ATOM     22  C   UNL     1       3.107   5.329  18.901  0.00  0.00    +0.000 A 
ATOM     23  O   UNL     1       4.211   6.015  18.462  0.00  0.00    +0.000 OA
ATOM     24  C   UNL     1       4.807   5.184  17.421  0.00  0.00    +0.000 C 
ATOM     25  C   UNL     1       6.162   4.673  17.927  0.00  0.00    +0.000 C 
ATOM     26  C   UNL     1       5.017   6.064  16.186  0.00  0.00    +0.000 C 
ATOM     27  C   UNL     1       3.860   4.009  17.102  0.00  0.00    +0.000 C 
ENDBRANCH  16  17
ENDBRANCH   4  16
TORSDOF 5
ENDMDL
MODEL 9
REMARK VINA RESULT:      -7.5      1.647      2.394
REMARK  Name = 
REMARK  9 active torsions:
REMARK  status: ('A' for Active; 'I' for Inactive)
REMARK    1  A    between atoms: C_1  and  C_2
REMARK    2  A    between atoms: C_2  and  C_3
REMARK    3  A    between atoms: C_2  and  N_4
REMARK    4  A    between atoms: C_5  and  C_8
REMARK    5  A    between atoms: N_6  and  O_7
REMARK    6  A    between atoms: C_11  and  O_12
REMARK    7  A    between atoms: O_12  and  C_13
REMARK    8  A    between atoms: C_20  and  C_21
REMARK    9  A    between atoms: C_20  and  C_22
REMARK                            x       y       z     vdW  Elec       q    Type
REMARK                         _______ _______ _______ _____ _____    ______ ____
ROOT
ATOM      1  C   UNL     1       0.453   9.827  19.513  0.00  0.00    +0.000 A 
ATOM      2  C   UNL     1       1.177   9.416  18.393  0.00  0.00    +0.000 A 
ATOM      3  C   UNL     1       2.035   8.314  18.491  0.00  0.00    +0.000 A 
ATOM      4  C   UNL     1       2.146   7.672  19.717  0.00  0.00    +0.000 A 
ATOM      5  N   UNL     1       1.417   8.018  20.805  0.00  0.00    +0.000 NA
ATOM      6  C   UNL     1       0.610   9.098  20.686  0.00  0.00    +0.000 A 
ENDROOT
BRANCH   1   8
ATOM      7  N   UNL     1      -1.002  11.390  20.742  0.00  0.00    +0.000 N 
ATOM      8  C   UNL     1      -0.472  11.018  19.511  0.00  0.00    +0.000 C 
ATOM      9  N   UNL     1      -0.639  11.561  18.339  0.00  0.00    +0.000 NA
ATOM     10  H   UNL     1      -0.604  10.900  21.535  0.00  0.00    +0.000 HD
BRANCH   7  12
ATOM     11  C   UNL     1      -2.831  12.697  21.660  0.00  0.00    +0.000 C 
ATOM     12  C   UNL     1      -1.406  12.746  21.104  0.00  0.00    +0.000 C 
ATOM     13  C   UNL     1      -0.462  13.321  22.161  0.00  0.00    +0.000 C 
ENDBRANCH   7  12
BRANCH   9  14
ATOM     14  O   UNL     1      -1.523  12.638  18.329  0.00  0.00    +0.000 OA
ATOM     15  H   UNL     1      -1.755  12.725  19.271  0.00  0.00    +0.000 HD
ENDBRANCH   9  14
ENDBRANCH   1   8
BRANCH   4  16
ATOM     16  O   UNL     1       3.085   6.650  19.826  0.00  0.00    +0.000 OA
BRANCH  16  17
ATOM     17  C   UNL     1       2.859   5.517  19.076  0.00  0.00    +0.000 A 
ATOM     18  C   UNL     1       1.768   4.661  19.298  0.00  0.00    +0.000 A 
ATOM     19  C   UNL     1       1.538   3.551  18.471  0.00  0.00    +0.000 A 
ATOM     20  C   UNL     1       2.419   3.251  17.437  0.00  0.00    +0.000 A 
ATOM     21  C   UNL     1       3.531   4.060  17.268  0.00  0.00    +0.000 A 
ATOM     22  C   UNL     1       3.756   5.167  18.075  0.00  0.00    +0.000 A 
ATOM     23  O   UNL     1       4.907   5.842  17.759  0.00  0.00    +0.000 OA
ATOM     24  C   UNL     1       5.548   5.064  16.705  0.00  0.00    +0.000 C 
ATOM     25  C   UNL     1       6.849   4.473  17.262  0.00  0.00    +0.000 C 
ATOM     26  C   UNL     1       5.868   6.018  15.551  0.00  0.00    +0.000 C 
ATOM     27  C   UNL     1       4.590   3.947  16.242  0.00  0.00    +0.000 C 
ENDBRANCH  16  17
ENDBRANCH   4  16
TORSDOF 5
ENDMDL
