MODEL 1
REMARK VINA RESULT:      -8.6      0.000      0.000
REMARK  Name = 
REMARK  8 active torsions:
REMARK  status: ('A' for Active; 'I' for Inactive)
REMARK    1  A    between atoms: C_2  and  O_3
REMARK    2  A    between atoms: C_2  and  C_4
REMARK    3  A    between atoms: C_7  and  C_8
REMARK    4  A    between atoms: C_8  and  O_9
REMARK    5  A    between atoms: O_9  and  C_10
REMARK    6  A    between atoms: C_13  and  C_14
REMARK    7  A    between atoms: N_19  and  C_20
REMARK    8  A    between atoms: C_20  and  C_21
REMARK                            x       y       z     vdW  Elec       q    Type
REMARK                         _______ _______ _______ _____ _____    ______ ____
ROOT
ATOM      1  C   UNL     1       2.656   5.479  18.787  0.00  0.00    +0.000 A 
ATOM      2  C   UNL     1       2.070   5.119  20.001  0.00  0.00    +0.000 A 
ATOM      3  C   UNL     1       1.530   6.098  20.834  0.00  0.00    +0.000 A 
ATOM      4  C   UNL     1       1.602   7.448  20.475  0.00  0.00    +0.000 A 
ATOM      5  C   UNL     1       2.239   7.815  19.287  0.00  0.00    +0.000 A 
ATOM      6  C   UNL     1       2.770   6.829  18.449  0.00  0.00    +0.000 A 
ENDROOT
BRANCH   4   7
ATOM      7  C   UNL     1       1.009   8.455  21.358  0.00  0.00    +0.000 C 
ATOM      8  C   UNL     1       0.249   9.476  20.948  0.00  0.00    +0.000 C 
ATOM      9  S   UNL     1      -0.256   9.842  19.344  0.00  0.00    +0.000 S 
ATOM     10  C   UNL     1      -0.880  11.413  19.818  0.00  0.00    +0.000 C 
ATOM     11  O   UNL     1      -1.250  12.244  19.005  0.00  0.00    +0.000 OA
ATOM     12  N   UNL     1      -0.810  11.554  21.177  0.00  0.00    +0.000 N 
ATOM     13  C   UNL     1      -0.194  10.546  21.879  0.00  0.00    +0.000 C 
ATOM     14  O   UNL     1       0.032  10.540  23.082  0.00  0.00    +0.000 OA
BRANCH  12  15
ATOM     15  C   UNL     1      -1.149  12.809  21.811  0.00  0.00    +0.000 C 
BRANCH  15  16
ATOM     16  C   UNL     1      -2.551  12.849  22.372  0.00  0.00    +0.000 A 
ATOM     17  C   UNL     1      -3.655  13.031  21.524  0.00  0.00    +0.000 A 
ATOM     18  C   UNL     1      -4.954  12.976  22.033  0.00  0.00    +0.000 A 
ATOM     19  C   UNL     1      -5.150  12.753  23.391  0.00  0.00    +0.000 A 
ATOM     20  F   UNL     1      -6.397  12.677  23.874  0.00  0.00    +0.000 F 
ATOM     21  C   UNL     1      -4.072  12.601  24.253  0.00  0.00    +0.000 A 
ATOM     22  C   UNL     1      -2.771  12.657  23.747  0.00  0.00    +0.000 A 
ENDBRANCH  15  16
ENDBRANCH  12  15
ENDBRANCH   4   7
BRANCH   1  23
ATOM     23  O   UNL     1       3.143   4.589  17.867  0.00  0.00    +0.000 OA
BRANCH  23  24
ATOM     24  C   UNL     1       4.489   4.168  18.103  0.00  0.00    +0.000 C 
BRANCH  24  28
ATOM     25  C   UNL     1       6.862   4.868  14.577  0.00  0.00    +0.000 A 
ATOM     26  C   UNL     1       5.558   4.376  14.451  0.00  0.00    +0.000 A 
ATOM     27  C   UNL     1       4.786   4.150  15.593  0.00  0.00    +0.000 A 
ATOM     28  C   UNL     1       5.310   4.419  16.865  0.00  0.00    +0.000 A 
ATOM     29  C   UNL     1       6.610   4.938  16.978  0.00  0.00    +0.000 A 
ATOM     30  C   UNL     1       7.380   5.174  15.839  0.00  0.00    +0.000 A 
BRANCH  25  32
ATOM     31  O   UNL     1       8.615   5.833  13.283  0.00  0.00    +0.000 OA
ATOM     32  C   UNL     1       7.668   5.069  13.350  0.00  0.00    +0.000 C 
BRANCH  32  33
ATOM     33  O   UNL     1       7.213   4.348  12.304  0.00  0.00    +0.000 OA
ATOM     34  H   UNL     1       6.658   3.582  12.542  0.00  0.00    +0.000 HD
ENDBRANCH  32  33
ENDBRANCH  25  32
ENDBRANCH  24  28
ENDBRANCH  23  24
ENDBRANCH   1  23
TORSDOF 8
ENDMDL
MODEL 2
REMARK VINA RESULT:      -8.6      1.650      2.520
REMARK  Name = 
REMARK  8 active torsions:
REMARK  status: ('A' for Active; 'I' for Inactive)
REMARK    1  A    between atoms: C_2  and  O_3
REMARK    2  A    between atoms: C_2  and  C_4
REMARK    3  A    between atoms: C_7  and  C_8
REMARK    4  A    between atoms: C_8  and  O_9
REMARK    5  A    between atoms: O_9  and  C_10
REMARK    6  A    between atoms: C_13  and  C_14
REMARK    7  A    between atoms: N_19  and  C_20
REMARK    8  A    between atoms: C_20  and  C_21
REMARK                            x       y       z     vdW  Elec       q    Type
REMARK                         _______ _______ _______ _____ _____    ______ ____
ROOT
ATOM      1  C   UNL     1       2.205   7.667  19.511  0.00  0.00    +0.000 A 
ATOM      2  C   UNL     1       1.488   7.940  20.676  0.00  0.00    +0.000 A 
ATOM      3  C   UNL     1       0.527   8.950  20.684  0.00  0.00    +0.000 A 
ATOM      4  C   UNL     1       0.299   9.717  19.538  0.00  0.00    +0.000 A 
ATOM      5  C   UNL     1       1.057   9.484  18.387  0.00  0.00    +0.000 A 
ATOM      6  C   UNL     1       2.012   8.462  18.379  0.00  0.00    +0.000 A 
ENDROOT
BRANCH   4   7
ATOM      7  C   UNL     1      -0.730  10.760  19.567  0.00  0.00    +0.000 C 
ATOM      8  C   UNL     1      -0.621  11.920  20.222  0.00  0.00    +0.000 C 
ATOM      9  S   UNL     1       0.719  12.500  21.133  0.00  0.00    +0.000 S 
ATOM     10  C   UNL     1      -0.207  13.843  21.783  0.00  0.00    +0.000 C 
ATOM     11  O   UNL     1       0.217  14.561  22.674  0.00  0.00    +0.000 OA
ATOM     12  N   UNL     1      -1.441  13.888  21.195  0.00  0.00    +0.000 N 
ATOM     13  C   UNL     1      -1.762  12.866  20.335  0.00  0.00    +0.000 C 
ATOM     14  O   UNL     1      -2.843  12.698  19.787  0.00  0.00    +0.000 OA
BRANCH  12  15
ATOM     15  C   UNL     1      -2.443  14.830  21.645  0.00  0.00    +0.000 C 
BRANCH  15  16
ATOM     16  C   UNL     1      -3.535  14.204  22.481  0.00  0.00    +0.000 A 
ATOM     17  C   UNL     1      -4.880  14.305  22.091  0.00  0.00    +0.000 A 
ATOM     18  C   UNL     1      -5.876  13.650  22.815  0.00  0.00    +0.000 A 
ATOM     19  C   UNL     1      -5.532  12.903  23.937  0.00  0.00    +0.000 A 
ATOM     20  F   UNL     1      -6.487  12.256  24.617  0.00  0.00    +0.000 F 
ATOM     21  C   UNL     1      -4.212  12.815  24.358  0.00  0.00    +0.000 A 
ATOM     22  C   UNL     1      -3.212  13.471  23.636  0.00  0.00    +0.000 A 
ENDBRANCH  15  16
ENDBRANCH  12  15
ENDBRANCH   4   7
BRANCH   1  23
ATOM     23  O   UNL     1       3.111   6.648  19.379  0.00  0.00    +0.000 OA
BRANCH  23  24
ATOM     24  C   UNL     1       2.688   5.586  18.522  0.00  0.00    +0.000 C 
BRANCH  24  28
ATOM     25  C   UNL     1       5.709   4.841  15.543  0.00  0.00    +0.000 A 
ATOM     26  C   UNL     1       5.436   6.153  15.943  0.00  0.00    +0.000 A 
ATOM     27  C   UNL     1       4.458   6.397  16.909  0.00  0.00    +0.000 A 
ATOM     28  C   UNL     1       3.753   5.332  17.486  0.00  0.00    +0.000 A 
ATOM     29  C   UNL     1       4.054   4.016  17.098  0.00  0.00    +0.000 A 
ATOM     30  C   UNL     1       5.037   3.769  16.139  0.00  0.00    +0.000 A 
BRANCH  25  32
ATOM     31  O   UNL     1       7.661   5.373  14.283  0.00  0.00    +0.000 OA
ATOM     32  C   UNL     1       6.731   4.615  14.494  0.00  0.00    +0.000 C 
BRANCH  32  33
ATOM     33  O   UNL     1       6.495   3.501  13.770  0.00  0.00    +0.000 OA
ATOM     34  H   UNL     1       7.116   2.766  13.931  0.00  0.00    +0.000 HD
ENDBRANCH  32  33
ENDBRANCH  25  32
ENDBRANCH  24  28
ENDBRANCH  23  24
ENDBRANCH   1  23
TORSDOF 8
ENDMDL
MODEL 3
REMARK VINA RESULT:      -8.6      0.372      1.036
REMARK  Name = 
REMARK  8 active torsions:
REMARK  status: ('A' for Active; 'I' for Inactive)
REMARK    1  A    between atoms: C_2  and  O_3
REMARK    2  A    between atoms: C_2  and  C_4
REMARK    3  A    between atoms: C_7  and  C_8
REMARK    4  A    between atoms: C_8  and  O_9
REMARK    5  A    between atoms: O_9  and  C_10
REMARK    6  A    between atoms: C_13  and  C_14
REMARK    7  A    between atoms: N_19  and  C_20
REMARK    8  A    between atoms: C_20  and  C_21
REMARK                            x       y       z     vdW  Elec       q    Type
REMARK                         _______ _______ _______ _____ _____    ______ ____
ROOT
ATOM      1  C   UNL     1       2.671   5.444  18.650  0.00  0.00    +0.000 A 
ATOM      2  C   UNL     1       2.194   5.031  19.894  0.00  0.00    +0.000 A 
ATOM      3  C   UNL     1       1.680   5.966  20.791  0.00  0.00    +0.000 A 
ATOM      4  C   UNL     1       1.670   7.326  20.465  0.00  0.00    +0.000 A 
ATOM      5  C   UNL     1       2.199   7.748  19.242  0.00  0.00    +0.000 A 
ATOM      6  C   UNL     1       2.704   6.806  18.340  0.00  0.00    +0.000 A 
ENDROOT
BRANCH   4   7
ATOM      7  C   UNL     1       1.107   8.286  21.417  0.00  0.00    +0.000 C 
ATOM      8  C   UNL     1       0.399   9.369  21.079  0.00  0.00    +0.000 C 
ATOM      9  S   UNL     1      -0.060   9.884  19.503  0.00  0.00    +0.000 S 
ATOM     10  C   UNL     1      -0.623  11.440  20.092  0.00  0.00    +0.000 C 
ATOM     11  O   UNL     1      -0.941  12.348  19.342  0.00  0.00    +0.000 OA
ATOM     12  N   UNL     1      -0.571  11.469  21.458  0.00  0.00    +0.000 N 
ATOM     13  C   UNL     1      -0.013  10.382  22.087  0.00  0.00    +0.000 C 
ATOM     14  O   UNL     1       0.192  10.270  23.288  0.00  0.00    +0.000 OA
BRANCH  12  15
ATOM     15  C   UNL     1      -0.866  12.684  22.186  0.00  0.00    +0.000 C 
BRANCH  15  16
ATOM     16  C   UNL     1      -2.318  12.822  22.577  0.00  0.00    +0.000 A 
ATOM     17  C   UNL     1      -2.804  12.214  23.746  0.00  0.00    +0.000 A 
ATOM     18  C   UNL     1      -4.123  12.419  24.153  0.00  0.00    +0.000 A 
ATOM     19  C   UNL     1      -4.962  13.219  23.386  0.00  0.00    +0.000 A 
ATOM     20  F   UNL     1      -6.221  13.433  23.789  0.00  0.00    +0.000 F 
ATOM     21  C   UNL     1      -4.511  13.805  22.210  0.00  0.00    +0.000 A 
ATOM     22  C   UNL     1      -3.192  13.601  21.800  0.00  0.00    +0.000 A 
ENDBRANCH  15  16
ENDBRANCH  12  15
ENDBRANCH   4   7
BRANCH   1  23
ATOM     23  O   UNL     1       3.122   4.598  17.672  0.00  0.00    +0.000 OA
BRANCH  23  24
ATOM     24  C   UNL     1       4.444   4.099  17.882  0.00  0.00    +0.000 C 
BRANCH  24  28
ATOM     25  C   UNL     1       6.839   4.827  14.376  0.00  0.00    +0.000 A 
ATOM     26  C   UNL     1       5.554   4.290  14.241  0.00  0.00    +0.000 A 
ATOM     27  C   UNL     1       4.776   4.054  15.376  0.00  0.00    +0.000 A 
ATOM     28  C   UNL     1       5.273   4.360  16.651  0.00  0.00    +0.000 A 
ATOM     29  C   UNL     1       6.553   4.925  16.773  0.00  0.00    +0.000 A 
ATOM     30  C   UNL     1       7.329   5.170  15.640  0.00  0.00    +0.000 A 
BRANCH  25  32
ATOM     31  O   UNL     1       7.440   4.476  12.097  0.00  0.00    +0.000 OA
ATOM     32  C   UNL     1       7.654   5.038  13.156  0.00  0.00    +0.000 C 
BRANCH  32  33
ATOM     33  O   UNL     1       8.682   5.888  13.358  0.00  0.00    +0.000 OA
ATOM     34  H   UNL     1       8.829   6.143  14.288  0.00  0.00    +0.000 HD
ENDBRANCH  32  33
ENDBRANCH  25  32
ENDBRANCH  24  28
ENDBRANCH  23  24
ENDBRANCH   1  23
TORSDOF 8
ENDMDL
MODEL 4
REMARK VINA RESULT:      -8.5      0.356      1.062
REMARK  Name = 
REMARK  8 active torsions:
REMARK  status: ('A' for Active; 'I' for Inactive)
REMARK    1  A    between atoms: C_2  and  O_3
REMARK    2  A    between atoms: C_2  and  C_4
REMARK    3  A    between atoms: C_7  and  C_8
REMARK    4  A    between atoms: C_8  and  O_9
REMARK    5  A    between atoms: O_9  and  C_10
REMARK    6  A    between atoms: C_13  and  C_14
REMARK    7  A    between atoms: N_19  and  C_20
REMARK    8  A    between atoms: C_20  and  C_21
REMARK                            x       y       z     vdW  Elec       q    Type
REMARK                         _______ _______ _______ _____ _____    ______ ____
ROOT
ATOM      1  C   UNL     1       2.762   5.319  19.116  0.00  0.00    +0.000 A 
ATOM      2  C   UNL     1       2.034   5.028  20.271  0.00  0.00    +0.000 A 
ATOM      3  C   UNL     1       1.459   6.059  21.012  0.00  0.00    +0.000 A 
ATOM      4  C   UNL     1       1.635   7.391  20.624  0.00  0.00    +0.000 A 
ATOM      5  C   UNL     1       2.411   7.688  19.501  0.00  0.00    +0.000 A 
ATOM      6  C   UNL     1       2.978   6.651  18.753  0.00  0.00    +0.000 A 
ENDROOT
BRANCH   4   7
ATOM      7  C   UNL     1       1.003   8.454  21.410  0.00  0.00    +0.000 C 
ATOM      8  C   UNL     1       0.348   9.498  20.892  0.00  0.00    +0.000 C 
ATOM      9  S   UNL     1       0.042   9.839  19.233  0.00  0.00    +0.000 S 
ATOM     10  C   UNL     1      -0.546  11.453  19.594  0.00  0.00    +0.000 C 
ATOM     11  O   UNL     1      -0.780  12.276  18.723  0.00  0.00    +0.000 OA
ATOM     12  N   UNL     1      -0.618  11.633  20.948  0.00  0.00    +0.000 N 
ATOM     13  C   UNL     1      -0.137  10.618  21.740  0.00  0.00    +0.000 C 
ATOM     14  O   UNL     1      -0.045  10.639  22.960  0.00  0.00    +0.000 OA
BRANCH  12  15
ATOM     15  C   UNL     1      -0.957  12.923  21.508  0.00  0.00    +0.000 C 
BRANCH  15  16
ATOM     16  C   UNL     1      -2.342  12.980  22.110  0.00  0.00    +0.000 A 
ATOM     17  C   UNL     1      -3.479  12.837  21.299  0.00  0.00    +0.000 A 
ATOM     18  C   UNL     1      -4.753  12.799  21.869  0.00  0.00    +0.000 A 
ATOM     19  C   UNL     1      -4.892  12.918  23.247  0.00  0.00    +0.000 A 
ATOM     20  F   UNL     1      -6.113  12.858  23.795  0.00  0.00    +0.000 F 
ATOM     21  C   UNL     1      -3.783  13.091  24.065  0.00  0.00    +0.000 A 
ATOM     22  C   UNL     1      -2.507  13.131  23.497  0.00  0.00    +0.000 A 
ENDBRANCH  15  16
ENDBRANCH  12  15
ENDBRANCH   4   7
BRANCH   1  23
ATOM     23  O   UNL     1       3.299   4.377  18.280  0.00  0.00    +0.000 OA
BRANCH  23  24
ATOM     24  C   UNL     1       4.697   4.147  18.465  0.00  0.00    +0.000 C 
BRANCH  24  28
ATOM     25  C   UNL     1       6.702   4.667  14.688  0.00  0.00    +0.000 A 
ATOM     26  C   UNL     1       7.434   4.735  15.878  0.00  0.00    +0.000 A 
ATOM     27  C   UNL     1       6.786   4.565  17.104  0.00  0.00    +0.000 A 
ATOM     28  C   UNL     1       5.406   4.321  17.146  0.00  0.00    +0.000 A 
ATOM     29  C   UNL     1       4.686   4.227  15.945  0.00  0.00    +0.000 A 
ATOM     30  C   UNL     1       5.332   4.387  14.719  0.00  0.00    +0.000 A 
BRANCH  25  32
ATOM     31  O   UNL     1       7.172   4.251  12.389  0.00  0.00    +0.000 OA
ATOM     32  C   UNL     1       7.410   4.881  13.404  0.00  0.00    +0.000 C 
BRANCH  32  33
ATOM     33  O   UNL     1       8.376   5.819  13.492  0.00  0.00    +0.000 OA
ATOM     34  H   UNL     1       8.576   6.120  14.398  0.00  0.00    +0.000 HD
ENDBRANCH  32  33
ENDBRANCH  25  32
ENDBRANCH  24  28
ENDBRANCH  23  24
ENDBRANCH   1  23
TORSDOF 8
ENDMDL
MODEL 5
REMARK VINA RESULT:      -8.3      1.583      2.424
REMARK  Name = 
REMARK  8 active torsions:
REMARK  status: ('A' for Active; 'I' for Inactive)
REMARK    1  A    between atoms: C_2  and  O_3
REMARK    2  A    between atoms: C_2  and  C_4
REMARK    3  A    between atoms: C_7  and  C_8
REMARK    4  A    between atoms: C_8  and  O_9
REMARK    5  A    between atoms: O_9  and  C_10
REMARK    6  A    between atoms: C_13  and  C_14
REMARK    7  A    between atoms: N_19  and  C_20
REMARK    8  A    between atoms: C_20  and  C_21
REMARK                            x       y       z     vdW  Elec       q    Type
REMARK                         _______ _______ _______ _____ _____    ______ ____
ROOT
ATOM      1  C   UNL     1       2.506   7.553  19.167  0.00  0.00    +0.000 A 
ATOM      2  C   UNL     1       2.210   8.289  18.019  0.00  0.00    +0.000 A 
ATOM      3  C   UNL     1       1.245   9.294  18.063  0.00  0.00    +0.000 A 
ATOM      4  C   UNL     1       0.544   9.549  19.246  0.00  0.00    +0.000 A 
ATOM      5  C   UNL     1       0.798   8.775  20.381  0.00  0.00    +0.000 A 
ATOM      6  C   UNL     1       1.774   7.775  20.337  0.00  0.00    +0.000 A 
ENDROOT
BRANCH   4   7
ATOM      7  C   UNL     1      -0.451  10.624  19.270  0.00  0.00    +0.000 C 
ATOM      8  C   UNL     1      -0.333  11.757  19.970  0.00  0.00    +0.000 C 
ATOM      9  S   UNL     1       0.985  12.258  20.956  0.00  0.00    +0.000 S 
ATOM     10  C   UNL     1       0.077  13.609  21.615  0.00  0.00    +0.000 C 
ATOM     11  O   UNL     1       0.486  14.281  22.548  0.00  0.00    +0.000 OA
ATOM     12  N   UNL     1      -1.129  13.717  20.979  0.00  0.00    +0.000 N 
ATOM     13  C   UNL     1      -1.446  12.736  20.070  0.00  0.00    +0.000 C 
ATOM     14  O   UNL     1      -2.508  12.624  19.472  0.00  0.00    +0.000 OA
BRANCH  12  15
ATOM     15  C   UNL     1      -2.118  14.676  21.421  0.00  0.00    +0.000 C 
BRANCH  15  16
ATOM     16  C   UNL     1      -3.155  14.095  22.354  0.00  0.00    +0.000 A 
ATOM     17  C   UNL     1      -4.429  13.748  21.877  0.00  0.00    +0.000 A 
ATOM     18  C   UNL     1      -5.354  13.129  22.720  0.00  0.00    +0.000 A 
ATOM     19  C   UNL     1      -5.011  12.866  24.041  0.00  0.00    +0.000 A 
ATOM     20  F   UNL     1      -5.890  12.250  24.842  0.00  0.00    +0.000 F 
ATOM     21  C   UNL     1      -3.766  13.228  24.541  0.00  0.00    +0.000 A 
ATOM     22  C   UNL     1      -2.840  13.850  23.701  0.00  0.00    +0.000 A 
ENDBRANCH  15  16
ENDBRANCH  12  15
ENDBRANCH   4   7
BRANCH   1  23
ATOM     23  O   UNL     1       3.487   6.602  19.247  0.00  0.00    +0.000 OA
BRANCH  23  24
ATOM     24  C   UNL     1       3.176   5.372  18.589  0.00  0.00    +0.000 C 
BRANCH  24  28
ATOM     25  C   UNL     1       5.888   4.845  15.284  0.00  0.00    +0.000 A 
ATOM     26  C   UNL     1       5.394   3.725  15.963  0.00  0.00    +0.000 A 
ATOM     27  C   UNL     1       4.513   3.894  17.034  0.00  0.00    +0.000 A 
ATOM     28  C   UNL     1       4.118   5.180  17.428  0.00  0.00    +0.000 A 
ATOM     29  C   UNL     1       4.598   6.294  16.723  0.00  0.00    +0.000 A 
ATOM     30  C   UNL     1       5.470   6.129  15.646  0.00  0.00    +0.000 A 
BRANCH  25  32
ATOM     31  O   UNL     1       7.772   5.389  13.929  0.00  0.00    +0.000 OA
ATOM     32  C   UNL     1       6.844   4.637  14.171  0.00  0.00    +0.000 C 
BRANCH  32  33
ATOM     33  O   UNL     1       6.551   3.548  13.430  0.00  0.00    +0.000 OA
ATOM     34  H   UNL     1       6.953   3.534  12.542  0.00  0.00    +0.000 HD
ENDBRANCH  32  33
ENDBRANCH  25  32
ENDBRANCH  24  28
ENDBRANCH  23  24
ENDBRANCH   1  23
TORSDOF 8
ENDMDL
MODEL 6
REMARK VINA RESULT:      -8.3      0.757      1.299
REMARK  Name = 
REMARK  8 active torsions:
REMARK  status: ('A' for Active; 'I' for Inactive)
REMARK    1  A    between atoms: C_2  and  O_3
REMARK    2  A    between atoms: C_2  and  C_4
REMARK    3  A    between atoms: C_7  and  C_8
REMARK    4  A    between atoms: C_8  and  O_9
REMARK    5  A    between atoms: O_9  and  C_10
REMARK    6  A    between atoms: C_13  and  C_14
REMARK    7  A    between atoms: N_19  and  C_20
REMARK    8  A    between atoms: C_20  and  C_21
REMARK                            x       y       z     vdW  Elec       q    Type
REMARK                         _______ _______ _______ _____ _____    ______ ____
ROOT
ATOM      1  C   UNL     1       2.958   5.088  18.788  0.00  0.00    +0.000 A 
ATOM      2  C   UNL     1       2.893   6.399  18.314  0.00  0.00    +0.000 A 
ATOM      3  C   UNL     1       2.330   7.400  19.105  0.00  0.00    +0.000 A 
ATOM      4  C   UNL     1       1.797   7.092  20.361  0.00  0.00    +0.000 A 
ATOM      5  C   UNL     1       1.810   5.770  20.813  0.00  0.00    +0.000 A 
ATOM      6  C   UNL     1       2.386   4.770  20.022  0.00  0.00    +0.000 A 
ENDROOT
BRANCH   4   7
ATOM      7  C   UNL     1       1.229   8.166  21.179  0.00  0.00    +0.000 C 
ATOM      8  C   UNL     1       0.802   9.341  20.706  0.00  0.00    +0.000 C 
ATOM      9  S   UNL     1       0.763   9.871  19.069  0.00  0.00    +0.000 S 
ATOM     10  C   UNL     1       0.371  11.519  19.532  0.00  0.00    +0.000 C 
ATOM     11  O   UNL     1       0.371  12.442  18.734  0.00  0.00    +0.000 OA
ATOM     12  N   UNL     1       0.153  11.586  20.881  0.00  0.00    +0.000 N 
ATOM     13  C   UNL     1       0.378  10.442  21.609  0.00  0.00    +0.000 C 
ATOM     14  O   UNL     1       0.315  10.339  22.826  0.00  0.00    +0.000 OA
BRANCH  12  15
ATOM     15  C   UNL     1      -0.067  12.858  21.534  0.00  0.00    +0.000 C 
BRANCH  15  16
ATOM     16  C   UNL     1      -1.485  13.059  22.014  0.00  0.00    +0.000 A 
ATOM     17  C   UNL     1      -2.561  12.980  21.114  0.00  0.00    +0.000 A 
ATOM     18  C   UNL     1      -3.875  13.075  21.575  0.00  0.00    +0.000 A 
ATOM     19  C   UNL     1      -4.115  13.263  22.931  0.00  0.00    +0.000 A 
ATOM     20  F   UNL     1      -5.377  13.332  23.375  0.00  0.00    +0.000 F 
ATOM     21  C   UNL     1      -3.065  13.375  23.834  0.00  0.00    +0.000 A 
ATOM     22  C   UNL     1      -1.749  13.281  23.376  0.00  0.00    +0.000 A 
ENDBRANCH  15  16
ENDBRANCH  12  15
ENDBRANCH   4   7
BRANCH   1  23
ATOM     23  O   UNL     1       3.560   4.052  18.124  0.00  0.00    +0.000 OA
BRANCH  23  24
ATOM     24  C   UNL     1       4.977   3.983  18.291  0.00  0.00    +0.000 C 
BRANCH  24  28
ATOM     25  C   UNL     1       6.917   4.791  14.530  0.00  0.00    +0.000 A 
ATOM     26  C   UNL     1       5.630   4.242  14.545  0.00  0.00    +0.000 A 
ATOM     27  C   UNL     1       4.999   3.980  15.763  0.00  0.00    +0.000 A 
ATOM     28  C   UNL     1       5.647   4.271  16.972  0.00  0.00    +0.000 A 
ATOM     29  C   UNL     1       6.926   4.848  16.946  0.00  0.00    +0.000 A 
ATOM     30  C   UNL     1       7.556   5.119  15.731  0.00  0.00    +0.000 A 
BRANCH  25  32
ATOM     31  O   UNL     1       7.231   4.487  12.188  0.00  0.00    +0.000 OA
ATOM     32  C   UNL     1       7.574   5.029  13.224  0.00  0.00    +0.000 C 
BRANCH  32  33
ATOM     33  O   UNL     1       8.618   5.879  13.314  0.00  0.00    +0.000 OA
ATOM     34  H   UNL     1       8.836   6.353  12.490  0.00  0.00    +0.000 HD
ENDBRANCH  32  33
ENDBRANCH  25  32
ENDBRANCH  24  28
ENDBRANCH  23  24
ENDBRANCH   1  23
TORSDOF 8
ENDMDL
MODEL 7
REMARK VINA RESULT:      -8.3      1.607      2.395
REMARK  Name = 
REMARK  8 active torsions:
REMARK  status: ('A' for Active; 'I' for Inactive)
REMARK    1  A    between atoms: C_2  and  O_3
REMARK    2  A    between atoms: C_2  and  C_4
REMARK    3  A    between atoms: C_7  and  C_8
REMARK    4  A    between atoms: C_8  and  O_9
REMARK    5  A    between atoms: O_9  and  C_10
REMARK    6  A    between atoms: C_13  and  C_14
REMARK    7  A    between atoms: N_19  and  C_20
REMARK    8  A    between atoms: C_20  and  C_21
REMARK                            x       y       z     vdW  Elec       q    Type
REMARK                         _______ _______ _______ _____ _____    ______ ____
ROOT
ATOM      1  C   UNL     1       2.480   6.702  19.359  0.00  0.00    +0.000 A 
ATOM      2  C   UNL     1       1.887   7.271  20.486  0.00  0.00    +0.000 A 
ATOM      3  C   UNL     1       1.251   8.508  20.391  0.00  0.00    +0.000 A 
ATOM      4  C   UNL     1       1.231   9.200  19.176  0.00  0.00    +0.000 A 
ATOM      5  C   UNL     1       1.873   8.658  18.060  0.00  0.00    +0.000 A 
ATOM      6  C   UNL     1       2.502   7.413  18.156  0.00  0.00    +0.000 A 
ENDROOT
BRANCH   4   7
ATOM      7  C   UNL     1       0.538  10.489  19.099  0.00  0.00    +0.000 C 
ATOM      8  C   UNL     1      -0.111  11.068  20.114  0.00  0.00    +0.000 C 
ATOM      9  S   UNL     1      -0.263  10.503  21.732  0.00  0.00    +0.000 S 
ATOM     10  C   UNL     1      -1.466  11.720  22.125  0.00  0.00    +0.000 C 
ATOM     11  O   UNL     1      -2.094  11.708  23.171  0.00  0.00    +0.000 OA
ATOM     12  N   UNL     1      -1.614  12.586  21.078  0.00  0.00    +0.000 N 
ATOM     13  C   UNL     1      -0.920  12.301  19.927  0.00  0.00    +0.000 C 
ATOM     14  O   UNL     1      -0.994  12.913  18.869  0.00  0.00    +0.000 OA
BRANCH  12  15
ATOM     15  C   UNL     1      -2.636  13.611  21.100  0.00  0.00    +0.000 C 
BRANCH  15  16
ATOM     16  C   UNL     1      -4.031  13.084  20.859  0.00  0.00    +0.000 A 
ATOM     17  C   UNL     1      -4.375  12.514  19.623  0.00  0.00    +0.000 A 
ATOM     18  C   UNL     1      -5.636  11.946  19.434  0.00  0.00    +0.000 A 
ATOM     19  C   UNL     1      -6.559  11.960  20.474  0.00  0.00    +0.000 A 
ATOM     20  F   UNL     1      -7.760  11.394  20.299  0.00  0.00    +0.000 F 
ATOM     21  C   UNL     1      -6.250  12.546  21.695  0.00  0.00    +0.000 A 
ATOM     22  C   UNL     1      -4.989  13.116  21.887  0.00  0.00    +0.000 A 
ENDBRANCH  15  16
ENDBRANCH  12  15
ENDBRANCH   4   7
BRANCH   1  23
ATOM     23  O   UNL     1       3.060   5.461  19.330  0.00  0.00    +0.000 OA
BRANCH  23  24
ATOM     24  C   UNL     1       4.482   5.468  19.477  0.00  0.00    +0.000 C 
BRANCH  24  28
ATOM     25  C   UNL     1       6.336   4.933  15.625  0.00  0.00    +0.000 A 
ATOM     26  C   UNL     1       5.209   4.176  15.966  0.00  0.00    +0.000 A 
ATOM     27  C   UNL     1       4.606   4.349  17.214  0.00  0.00    +0.000 A 
ATOM     28  C   UNL     1       5.120   5.282  18.124  0.00  0.00    +0.000 A 
ATOM     29  C   UNL     1       6.234   6.056  17.762  0.00  0.00    +0.000 A 
ATOM     30  C   UNL     1       6.833   5.892  16.513  0.00  0.00    +0.000 A 
BRANCH  25  32
ATOM     31  O   UNL     1       7.841   5.426  13.845  0.00  0.00    +0.000 OA
ATOM     32  C   UNL     1       6.973   4.707  14.307  0.00  0.00    +0.000 C 
BRANCH  32  33
ATOM     33  O   UNL     1       6.459   3.643  13.656  0.00  0.00    +0.000 OA
ATOM     34  H   UNL     1       6.908   3.413  12.822  0.00  0.00    +0.000 HD
ENDBRANCH  32  33
ENDBRANCH  25  32
ENDBRANCH  24  28
ENDBRANCH  23  24
ENDBRANCH   1  23
TORSDOF 8
ENDMDL
MODEL 8
REMARK VINA RESULT:      -8.2      1.430      2.368
REMARK  Name = 
REMARK  8 active torsions:
REMARK  status: ('A' for Active; 'I' for Inactive)
REMARK    1  A    between atoms: C_2  and  O_3
REMARK    2  A    between atoms: C_2  and  C_4
REMARK    3  A    between atoms: C_7  and  C_8
REMARK    4  A    between atoms: C_8  and  O_9
REMARK    5  A    between atoms: O_9  and  C_10
REMARK    6  A    between atoms: C_13  and  C_14
REMARK    7  A    between atoms: N_19  and  C_20
REMARK    8  A    between atoms: C_20  and  C_21
REMARK                            x       y       z     vdW  Elec       q    Type
REMARK                         _______ _______ _______ _____ _____    ______ ____
ROOT
ATOM      1  C   UNL     1       2.585   6.321  19.242  0.00  0.00    +0.000 A 
ATOM      2  C   UNL     1       2.581   7.147  18.118  0.00  0.00    +0.000 A 
ATOM      3  C   UNL     1       2.042   8.431  18.196  0.00  0.00    +0.000 A 
ATOM      4  C   UNL     1       1.472   8.886  19.388  0.00  0.00    +0.000 A 
ATOM      5  C   UNL     1       1.423   8.040  20.499  0.00  0.00    +0.000 A 
ATOM      6  C   UNL     1       1.974   6.757  20.421  0.00  0.00    +0.000 A 
ENDROOT
BRANCH   4   7
ATOM      7  C   UNL     1       0.931  10.246  19.449  0.00  0.00    +0.000 C 
ATOM      8  C   UNL     1       0.259  10.753  20.487  0.00  0.00    +0.000 C 
ATOM      9  S   UNL     1      -0.098   9.994  21.990  0.00  0.00    +0.000 S 
ATOM     10  C   UNL     1      -1.195  11.280  22.466  0.00  0.00    +0.000 C 
ATOM     11  O   UNL     1      -1.912  11.199  23.450  0.00  0.00    +0.000 OA
ATOM     12  N   UNL     1      -1.155  12.293  21.548  0.00  0.00    +0.000 N 
ATOM     13  C   UNL     1      -0.394  12.087  20.423  0.00  0.00    +0.000 C 
ATOM     14  O   UNL     1      -0.307  12.842  19.464  0.00  0.00    +0.000 OA
BRANCH  12  15
ATOM     15  C   UNL     1      -2.059  13.418  21.645  0.00  0.00    +0.000 C 
BRANCH  15  16
ATOM     16  C   UNL     1      -3.495  13.075  21.324  0.00  0.00    +0.000 A 
ATOM     17  C   UNL     1      -3.853  12.631  20.041  0.00  0.00    +0.000 A 
ATOM     18  C   UNL     1      -5.162  12.228  19.774  0.00  0.00    +0.000 A 
ATOM     19  C   UNL     1      -6.117  12.280  20.783  0.00  0.00    +0.000 A 
ATOM     20  F   UNL     1      -7.367  11.871  20.532  0.00  0.00    +0.000 F 
ATOM     21  C   UNL     1      -5.791  12.744  22.051  0.00  0.00    +0.000 A 
ATOM     22  C   UNL     1      -4.482  13.150  22.321  0.00  0.00    +0.000 A 
ENDBRANCH  15  16
ENDBRANCH  12  15
ENDBRANCH   4   7
BRANCH   1  23
ATOM     23  O   UNL     1       3.158   5.078  19.290  0.00  0.00    +0.000 OA
BRANCH  23  24
ATOM     24  C   UNL     1       4.577   5.085  19.453  0.00  0.00    +0.000 C 
BRANCH  24  28
ATOM     25  C   UNL     1       6.417   4.757  15.571  0.00  0.00    +0.000 A 
ATOM     26  C   UNL     1       6.991   5.582  16.545  0.00  0.00    +0.000 A 
ATOM     27  C   UNL     1       6.397   5.689  17.805  0.00  0.00    +0.000 A 
ATOM     28  C   UNL     1       5.231   4.968  18.100  0.00  0.00    +0.000 A 
ATOM     29  C   UNL     1       4.680   4.122  17.125  0.00  0.00    +0.000 A 
ATOM     30  C   UNL     1       5.276   4.006  15.869  0.00  0.00    +0.000 A 
BRANCH  25  32
ATOM     31  O   UNL     1       7.857   5.506  13.826  0.00  0.00    +0.000 OA
ATOM     32  C   UNL     1       7.052   4.687  14.235  0.00  0.00    +0.000 C 
BRANCH  32  33
ATOM     33  O   UNL     1       6.612   3.642  13.504  0.00  0.00    +0.000 OA
ATOM     34  H   UNL     1       5.710   3.340  13.718  0.00  0.00    +0.000 HD
ENDBRANCH  32  33
ENDBRANCH  25  32
ENDBRANCH  24  28
ENDBRANCH  23  24
ENDBRANCH   1  23
TORSDOF 8
ENDMDL
MODEL 9
REMARK VINA RESULT:      -8.2      1.847      2.245
REMARK  Name = 
REMARK  8 active torsions:
REMARK  status: ('A' for Active; 'I' for Inactive)
REMARK    1  A    between atoms: C_2  and  O_3
REMARK    2  A    between atoms: C_2  and  C_4
REMARK    3  A    between atoms: C_7  and  C_8
REMARK    4  A    between atoms: C_8  and  O_9
REMARK    5  A    between atoms: O_9  and  C_10
REMARK    6  A    between atoms: C_13  and  C_14
REMARK    7  A    between atoms: N_19  and  C_20
REMARK    8  A    between atoms: C_20  and  C_21
REMARK                            x       y       z     vdW  Elec       q    Type
REMARK                         _______ _______ _______ _____ _____    ______ ____
ROOT
ATOM      1  C   UNL     1       2.315   4.900  18.524  0.00  0.00    +0.000 A 
ATOM      2  C   UNL     1       1.847   4.554  19.792  0.00  0.00    +0.000 A 
ATOM      3  C   UNL     1       1.467   5.549  20.692  0.00  0.00    +0.000 A 
ATOM      4  C   UNL     1       1.583   6.898  20.343  0.00  0.00    +0.000 A 
ATOM      5  C   UNL     1       2.104   7.248  19.095  0.00  0.00    +0.000 A 
ATOM      6  C   UNL     1       2.475   6.247  18.191  0.00  0.00    +0.000 A 
ENDROOT
BRANCH   4   7
ATOM      7  C   UNL     1       1.158   7.923  21.299  0.00  0.00    +0.000 C 
ATOM      8  C   UNL     1       0.541   9.063  20.971  0.00  0.00    +0.000 C 
ATOM      9  S   UNL     1       0.058   9.593  19.406  0.00  0.00    +0.000 S 
ATOM     10  C   UNL     1      -0.327  11.204  19.987  0.00  0.00    +0.000 C 
ATOM     11  O   UNL     1      -0.593  12.127  19.234  0.00  0.00    +0.000 OA
ATOM     12  N   UNL     1      -0.209  11.251  21.349  0.00  0.00    +0.000 N 
ATOM     13  C   UNL     1       0.274  10.127  21.974  0.00  0.00    +0.000 C 
ATOM     14  O   UNL     1       0.523  10.016  23.167  0.00  0.00    +0.000 OA
BRANCH  12  15
ATOM     15  C   UNL     1      -0.353  12.501  22.064  0.00  0.00    +0.000 C 
BRANCH  15  16
ATOM     16  C   UNL     1      -1.778  12.821  22.448  0.00  0.00    +0.000 A 
ATOM     17  C   UNL     1      -2.534  13.731  21.692  0.00  0.00    +0.000 A 
ATOM     18  C   UNL     1      -3.878  13.957  21.996  0.00  0.00    +0.000 A 
ATOM     19  C   UNL     1      -4.463  13.283  23.062  0.00  0.00    +0.000 A 
ATOM     20  F   UNL     1      -5.759  13.483  23.338  0.00  0.00    +0.000 F 
ATOM     21  C   UNL     1      -3.726  12.402  23.842  0.00  0.00    +0.000 A 
ATOM     22  C   UNL     1      -2.380  12.176  23.542  0.00  0.00    +0.000 A 
ENDBRANCH  15  16
ENDBRANCH  12  15
ENDBRANCH   4   7
BRANCH   1  23
ATOM     23  O   UNL     1       2.638   3.999  17.544  0.00  0.00    +0.000 OA
BRANCH  23  24
ATOM     24  C   UNL     1       3.927   3.399  17.692  0.00  0.00    +0.000 C 
BRANCH  24  28
ATOM     25  C   UNL     1       6.931   6.477  17.955  0.00  0.00    +0.000 A 
ATOM     26  C   UNL     1       6.215   6.303  16.765  0.00  0.00    +0.000 A 
ATOM     27  C   UNL     1       5.240   5.307  16.678  0.00  0.00    +0.000 A 
ATOM     28  C   UNL     1       4.970   4.484  17.780  0.00  0.00    +0.000 A 
ATOM     29  C   UNL     1       5.674   4.684  18.978  0.00  0.00    +0.000 A 
ATOM     30  C   UNL     1       6.642   5.685  19.071  0.00  0.00    +0.000 A 
BRANCH  25  32
ATOM     31  O   UNL     1       8.154   8.349  17.132  0.00  0.00    +0.000 OA
ATOM     32  C   UNL     1       7.980   7.521  18.009  0.00  0.00    +0.000 C 
BRANCH  32  33
ATOM     33  O   UNL     1       8.749   7.430  19.114  0.00  0.00    +0.000 OA
ATOM     34  H   UNL     1       8.275   7.558  19.957  0.00  0.00    +0.000 HD
ENDBRANCH  32  33
ENDBRANCH  25  32
ENDBRANCH  24  28
ENDBRANCH  23  24
ENDBRANCH   1  23
TORSDOF 8
ENDMDL
