MODEL 1
REMARK VINA RESULT:      -7.2      0.000      0.000
REMARK  Name = 
REMARK  5 active torsions:
REMARK  status: ('A' for Active; 'I' for Inactive)
REMARK    1  A    between atoms: C_5  and  C_6
REMARK    2  A    between atoms: C_6  and  O_7
REMARK    3  A    between atoms: O_7  and  C_8
REMARK    4  A    between atoms: C_18  and  C_19
REMARK    5  A    between atoms: C_19  and  N_20
REMARK                            x       y       z     vdW  Elec       q    Type
REMARK                         _______ _______ _______ _____ _____    ______ ____
ROOT
ATOM      1  C   UNL     1       3.535   5.929  17.579  0.00  0.00    +0.000 C 
ATOM      2  C   UNL     1       2.882   4.993  18.571  0.00  0.00    +0.000 A 
ATOM      3  C   UNL     1       1.680   4.314  18.432  0.00  0.00    +0.000 A 
ATOM      4 CL   UNL     1       0.794   4.356  16.956  0.00  0.00    +0.000 Cl
ATOM      5  C   UNL     1       1.242   3.489  19.465  0.00  0.00    +0.000 A 
ATOM      6  C   UNL     1       2.002   3.375  20.636  0.00  0.00    +0.000 A 
ATOM      7 CL   UNL     1       1.407   2.405  21.928  0.00  0.00    +0.000 Cl
ATOM      8  C   UNL     1       3.262   3.968  20.741  0.00  0.00    +0.000 A 
ATOM      9  C   UNL     1       3.714   4.708  19.664  0.00  0.00    +0.000 A 
ATOM     10  S   UNL     1       5.410   5.117  19.249  0.00  0.00    +0.000 S 
ATOM     11  C   UNL     1       4.921   5.249  17.466  0.00  0.00    +0.000 C 
ENDROOT
BRANCH   1  12
ATOM     12  O   UNL     1       3.667   7.288  18.094  0.00  0.00    +0.000 OA
BRANCH  12  13
ATOM     13  C   UNL     1       2.462   8.058  17.971  0.00  0.00    +0.000 C 
BRANCH  13  18
ATOM     14 CL   UNL     1      -0.301   9.780  23.095  0.00  0.00    +0.000 Cl
ATOM     15  C   UNL     1       0.458   9.258  21.639  0.00  0.00    +0.000 A 
ATOM     16  C   UNL     1       1.146   8.044  21.605  0.00  0.00    +0.000 A 
ATOM     17  C   UNL     1       1.793   7.636  20.424  0.00  0.00    +0.000 A 
ATOM     18  C   UNL     1       1.765   8.438  19.273  0.00  0.00    +0.000 A 
ATOM     19  C   UNL     1       1.018   9.640  19.330  0.00  0.00    +0.000 A 
ATOM     20 CL   UNL     1       0.838  10.656  17.940  0.00  0.00    +0.000 Cl
ATOM     21  C   UNL     1       0.376  10.047  20.505  0.00  0.00    +0.000 A 
ENDBRANCH  13  18
ENDBRANCH  12  13
ENDBRANCH   1  12
BRANCH  11  22
ATOM     22  C   UNL     1       5.853   5.930  16.478  0.00  0.00    +0.000 C 
BRANCH  22  23
ATOM     23  N   UNL     1       6.136   5.132  15.300  0.00  0.00    +0.000 N 
ATOM     24  C   UNL     1       5.326   4.196  14.729  0.00  0.00    +0.000 A 
ATOM     25  C   UNL     1       5.963   3.824  13.567  0.00  0.00    +0.000 A 
ATOM     26  N   UNL     1       7.151   4.501  13.437  0.00  0.00    +0.000 NA
ATOM     27  C   UNL     1       7.225   5.270  14.488  0.00  0.00    +0.000 A 
ENDBRANCH  22  23
ENDBRANCH  11  22
TORSDOF 5
ENDMDL
MODEL 2
REMARK VINA RESULT:      -6.9      2.923      5.167
REMARK  Name = 
REMARK  5 active torsions:
REMARK  status: ('A' for Active; 'I' for Inactive)
REMARK    1  A    between atoms: C_5  and  C_6
REMARK    2  A    between atoms: C_6  and  O_7
REMARK    3  A    between atoms: O_7  and  C_8
REMARK    4  A    between atoms: C_18  and  C_19
REMARK    5  A    between atoms: C_19  and  N_20
REMARK                            x       y       z     vdW  Elec       q    Type
REMARK                         _______ _______ _______ _____ _____    ______ ____
ROOT
ATOM      1  C   UNL     1       4.506   5.890  18.117  0.00  0.00    +0.000 C 
ATOM      2  C   UNL     1       5.216   5.461  16.853  0.00  0.00    +0.000 A 
ATOM      3  C   UNL     1       6.345   6.028  16.280  0.00  0.00    +0.000 A 
ATOM      4 CL   UNL     1       7.208   7.294  17.065  0.00  0.00    +0.000 Cl
ATOM      5  C   UNL     1       6.856   5.485  15.103  0.00  0.00    +0.000 A 
ATOM      6  C   UNL     1       6.215   4.394  14.503  0.00  0.00    +0.000 A 
ATOM      7 CL   UNL     1       6.823   3.784  13.013  0.00  0.00    +0.000 Cl
ATOM      8  C   UNL     1       5.145   3.750  15.128  0.00  0.00    +0.000 A 
ATOM      9  C   UNL     1       4.714   4.255  16.341  0.00  0.00    +0.000 A 
ATOM     10  S   UNL     1       3.793   3.398  17.620  0.00  0.00    +0.000 S 
ATOM     11  C   UNL     1       4.519   4.545  18.882  0.00  0.00    +0.000 C 
ENDROOT
BRANCH   1  12
ATOM     12  O   UNL     1       3.137   6.329  17.869  0.00  0.00    +0.000 OA
BRANCH  12  13
ATOM     13  C   UNL     1       2.965   7.748  18.010  0.00  0.00    +0.000 C 
BRANCH  13  18
ATOM     14 CL   UNL     1      -0.484   9.803  22.563  0.00  0.00    +0.000 Cl
ATOM     15  C   UNL     1       0.467   9.189  21.265  0.00  0.00    +0.000 A 
ATOM     16  C   UNL     1       1.025   7.912  21.348  0.00  0.00    +0.000 A 
ATOM     17  C   UNL     1       1.829   7.427  20.301  0.00  0.00    +0.000 A 
ATOM     18  C   UNL     1       2.088   8.212  19.167  0.00  0.00    +0.000 A 
ATOM     19  C   UNL     1       1.467   9.483  19.095  0.00  0.00    +0.000 A 
ATOM     20 CL   UNL     1       1.641  10.494  17.701  0.00  0.00    +0.000 Cl
ATOM     21  C   UNL     1       0.670   9.968  20.138  0.00  0.00    +0.000 A 
ENDBRANCH  13  18
ENDBRANCH  12  13
ENDBRANCH   1  12
BRANCH  11  22
ATOM     22  C   UNL     1       3.900   4.629  20.268  0.00  0.00    +0.000 C 
BRANCH  22  23
ATOM     23  N   UNL     1       2.721   3.798  20.430  0.00  0.00    +0.000 N 
ATOM     24  C   UNL     1       2.570   2.746  21.284  0.00  0.00    +0.000 A 
ATOM     25  C   UNL     1       1.248   2.379  21.177  0.00  0.00    +0.000 A 
ATOM     26  N   UNL     1       0.605   3.174  20.259  0.00  0.00    +0.000 NA
ATOM     27  C   UNL     1       1.513   4.007  19.831  0.00  0.00    +0.000 A 
ENDBRANCH  22  23
ENDBRANCH  11  22
TORSDOF 5
ENDMDL
MODEL 3
REMARK VINA RESULT:      -6.8      3.016      5.204
REMARK  Name = 
REMARK  5 active torsions:
REMARK  status: ('A' for Active; 'I' for Inactive)
REMARK    1  A    between atoms: C_5  and  C_6
REMARK    2  A    between atoms: C_6  and  O_7
REMARK    3  A    between atoms: O_7  and  C_8
REMARK    4  A    between atoms: C_18  and  C_19
REMARK    5  A    between atoms: C_19  and  N_20
REMARK                            x       y       z     vdW  Elec       q    Type
REMARK                         _______ _______ _______ _____ _____    ______ ____
ROOT
ATOM      1  C   UNL     1       4.648   4.776  18.716  0.00  0.00    +0.000 C 
ATOM      2  C   UNL     1       5.446   4.907  17.439  0.00  0.00    +0.000 A 
ATOM      3  C   UNL     1       6.606   5.639  17.234  0.00  0.00    +0.000 A 
ATOM      4 CL   UNL     1       7.403   6.434  18.536  0.00  0.00    +0.000 Cl
ATOM      5  C   UNL     1       7.201   5.633  15.974  0.00  0.00    +0.000 A 
ATOM      6  C   UNL     1       6.611   4.912  14.928  0.00  0.00    +0.000 A 
ATOM      7 CL   UNL     1       7.324   4.976  13.363  0.00  0.00    +0.000 Cl
ATOM      8  C   UNL     1       5.505   4.087  15.151  0.00  0.00    +0.000 A 
ATOM      9  C   UNL     1       4.988   4.042  16.433  0.00  0.00    +0.000 A 
ATOM     10  S   UNL     1       3.990   2.745  17.166  0.00  0.00    +0.000 S 
ATOM     11  C   UNL     1       4.619   3.235  18.839  0.00  0.00    +0.000 C 
ENDROOT
BRANCH   1  12
ATOM     12  O   UNL     1       3.295   5.309  18.589  0.00  0.00    +0.000 OA
BRANCH  12  13
ATOM     13  C   UNL     1       3.261   6.740  18.469  0.00  0.00    +0.000 C 
BRANCH  13  18
ATOM     14 CL   UNL     1      -0.474   9.854  22.103  0.00  0.00    +0.000 Cl
ATOM     15  C   UNL     1       0.557   8.940  21.069  0.00  0.00    +0.000 A 
ATOM     16  C   UNL     1       1.019   7.686  21.472  0.00  0.00    +0.000 A 
ATOM     17  C   UNL     1       1.887   6.957  20.640  0.00  0.00    +0.000 A 
ATOM     18  C   UNL     1       2.307   7.475  19.405  0.00  0.00    +0.000 A 
ATOM     19  C   UNL     1       1.781   8.728  19.008  0.00  0.00    +0.000 A 
ATOM     20 CL   UNL     1       2.157   9.415  17.464  0.00  0.00    +0.000 Cl
ATOM     21  C   UNL     1       0.919   9.456  19.836  0.00  0.00    +0.000 A 
ENDBRANCH  13  18
ENDBRANCH  12  13
ENDBRANCH   1  12
BRANCH  11  22
ATOM     22  C   UNL     1       3.906   2.738  20.086  0.00  0.00    +0.000 C 
BRANCH  22  23
ATOM     23  N   UNL     1       2.460   2.727  19.965  0.00  0.00    +0.000 N 
ATOM     24  C   UNL     1       1.569   3.442  20.710  0.00  0.00    +0.000 A 
ATOM     25  C   UNL     1       0.342   3.209  20.130  0.00  0.00    +0.000 A 
ATOM     26  N   UNL     1       0.473   2.351  19.066  0.00  0.00    +0.000 NA
ATOM     27  C   UNL     1       1.747   2.081  18.996  0.00  0.00    +0.000 A 
ENDBRANCH  22  23
ENDBRANCH  11  22
TORSDOF 5
ENDMDL
MODEL 4
REMARK VINA RESULT:      -6.8      3.053      5.451
REMARK  Name = 
REMARK  5 active torsions:
REMARK  status: ('A' for Active; 'I' for Inactive)
REMARK    1  A    between atoms: C_5  and  C_6
REMARK    2  A    between atoms: C_6  and  O_7
REMARK    3  A    between atoms: O_7  and  C_8
REMARK    4  A    between atoms: C_18  and  C_19
REMARK    5  A    between atoms: C_19  and  N_20
REMARK                            x       y       z     vdW  Elec       q    Type
REMARK                         _______ _______ _______ _____ _____    ______ ____
ROOT
ATOM      1  C   UNL     1       4.700   5.255  18.523  0.00  0.00    +0.000 C 
ATOM      2  C   UNL     1       5.517   5.235  17.251  0.00  0.00    +0.000 A 
ATOM      3  C   UNL     1       6.741   5.846  17.019  0.00  0.00    +0.000 A 
ATOM      4 CL   UNL     1       7.596   6.644  18.282  0.00  0.00    +0.000 Cl
ATOM      5  C   UNL     1       7.343   5.710  15.770  0.00  0.00    +0.000 A 
ATOM      6  C   UNL     1       6.699   4.983  14.761  0.00  0.00    +0.000 A 
ATOM      7 CL   UNL     1       7.428   4.887  13.205  0.00  0.00    +0.000 Cl
ATOM      8  C   UNL     1       5.521   4.276  15.017  0.00  0.00    +0.000 A 
ATOM      9  C   UNL     1       4.992   4.355  16.292  0.00  0.00    +0.000 A 
ATOM     10  S   UNL     1       3.873   3.200  17.088  0.00  0.00    +0.000 S 
ATOM     11  C   UNL     1       4.530   3.732  18.737  0.00  0.00    +0.000 C 
ENDROOT
BRANCH   1  12
ATOM     12  O   UNL     1       3.402   5.898  18.345  0.00  0.00    +0.000 OA
BRANCH  12  13
ATOM     13  C   UNL     1       3.009   6.699  19.471  0.00  0.00    +0.000 C 
BRANCH  13  18
ATOM     14 CL   UNL     1      -0.431  11.584  18.397  0.00  0.00    +0.000 Cl
ATOM     15  C   UNL     1       0.579  10.221  18.696  0.00  0.00    +0.000 A 
ATOM     16  C   UNL     1       1.417   9.736  17.689  0.00  0.00    +0.000 A 
ATOM     17  C   UNL     1       2.216   8.603  17.925  0.00  0.00    +0.000 A 
ATOM     18  C   UNL     1       2.181   7.941  19.162  0.00  0.00    +0.000 A 
ATOM     19  C   UNL     1       1.356   8.489  20.175  0.00  0.00    +0.000 A 
ATOM     20 CL   UNL     1       1.310   7.808  21.765  0.00  0.00    +0.000 Cl
ATOM     21  C   UNL     1       0.559   9.614  19.940  0.00  0.00    +0.000 A 
ENDBRANCH  13  18
ENDBRANCH  12  13
ENDBRANCH   1  12
BRANCH  11  22
ATOM     22  C   UNL     1       3.765   3.378  20.002  0.00  0.00    +0.000 C 
BRANCH  22  23
ATOM     23  N   UNL     1       2.370   3.053  19.766  0.00  0.00    +0.000 N 
ATOM     24  C   UNL     1       1.283   3.792  20.128  0.00  0.00    +0.000 A 
ATOM     25  C   UNL     1       0.204   3.150  19.564  0.00  0.00    +0.000 A 
ATOM     26  N   UNL     1       0.616   2.027  18.889  0.00  0.00    +0.000 NA
ATOM     27  C   UNL     1       1.913   1.996  19.032  0.00  0.00    +0.000 A 
ENDBRANCH  22  23
ENDBRANCH  11  22
TORSDOF 5
ENDMDL
MODEL 5
REMARK VINA RESULT:      -6.7      2.780      6.369
REMARK  Name = 
REMARK  5 active torsions:
REMARK  status: ('A' for Active; 'I' for Inactive)
REMARK    1  A    between atoms: C_5  and  C_6
REMARK    2  A    between atoms: C_6  and  O_7
REMARK    3  A    between atoms: O_7  and  C_8
REMARK    4  A    between atoms: C_18  and  C_19
REMARK    5  A    between atoms: C_19  and  N_20
REMARK                            x       y       z     vdW  Elec       q    Type
REMARK                         _______ _______ _______ _____ _____    ______ ____
ROOT
ATOM      1  C   UNL     1       3.082   6.628  18.404  0.00  0.00    +0.000 C 
ATOM      2  C   UNL     1       2.239   7.514  19.293  0.00  0.00    +0.000 A 
ATOM      3  C   UNL     1       1.737   8.775  19.004  0.00  0.00    +0.000 A 
ATOM      4 CL   UNL     1       1.917   9.472  17.440  0.00  0.00    +0.000 Cl
ATOM      5  C   UNL     1       0.973   9.439  19.961  0.00  0.00    +0.000 A 
ATOM      6  C   UNL     1       0.741   8.840  21.206  0.00  0.00    +0.000 A 
ATOM      7 CL   UNL     1      -0.146   9.708  22.398  0.00  0.00    +0.000 Cl
ATOM      8  C   UNL     1       1.150   7.530  21.466  0.00  0.00    +0.000 A 
ATOM      9  C   UNL     1       1.829   6.860  20.465  0.00  0.00    +0.000 A 
ATOM     10  S   UNL     1       1.999   5.087  20.252  0.00  0.00    +0.000 S 
ATOM     11  C   UNL     1       2.215   5.347  18.430  0.00  0.00    +0.000 C 
ENDROOT
BRANCH   1  12
ATOM     12  O   UNL     1       4.404   6.368  18.965  0.00  0.00    +0.000 OA
BRANCH  12  13
ATOM     13  C   UNL     1       5.474   6.865  18.145  0.00  0.00    +0.000 C 
BRANCH  13  18
ATOM     14 CL   UNL     1       6.751   3.807  13.058  0.00  0.00    +0.000 Cl
ATOM     15  C   UNL     1       6.351   4.657  14.502  0.00  0.00    +0.000 A 
ATOM     16  C   UNL     1       5.311   5.588  14.500  0.00  0.00    +0.000 A 
ATOM     17  C   UNL     1       5.007   6.305  15.671  0.00  0.00    +0.000 A 
ATOM     18  C   UNL     1       5.743   6.105  16.850  0.00  0.00    +0.000 A 
ATOM     19  C   UNL     1       6.759   5.119  16.829  0.00  0.00    +0.000 A 
ATOM     20 CL   UNL     1       7.663   4.725  18.251  0.00  0.00    +0.000 Cl
ATOM     21  C   UNL     1       7.063   4.408  15.663  0.00  0.00    +0.000 A 
ENDBRANCH  13  18
ENDBRANCH  12  13
ENDBRANCH   1  12
BRANCH  11  22
ATOM     22  C   UNL     1       2.767   4.223  17.569  0.00  0.00    +0.000 C 
BRANCH  22  23
ATOM     23  N   UNL     1       3.319   3.121  18.336  0.00  0.00    +0.000 N 
ATOM     24  C   UNL     1       2.913   1.819  18.309  0.00  0.00    +0.000 A 
ATOM     25  C   UNL     1       3.824   1.139  19.085  0.00  0.00    +0.000 A 
ATOM     26  N   UNL     1       4.757   2.007  19.596  0.00  0.00    +0.000 NA
ATOM     27  C   UNL     1       4.426   3.181  19.132  0.00  0.00    +0.000 A 
ENDBRANCH  22  23
ENDBRANCH  11  22
TORSDOF 5
ENDMDL
MODEL 6
REMARK VINA RESULT:      -6.7      3.150      5.428
REMARK  Name = 
REMARK  5 active torsions:
REMARK  status: ('A' for Active; 'I' for Inactive)
REMARK    1  A    between atoms: C_5  and  C_6
REMARK    2  A    between atoms: C_6  and  O_7
REMARK    3  A    between atoms: O_7  and  C_8
REMARK    4  A    between atoms: C_18  and  C_19
REMARK    5  A    between atoms: C_19  and  N_20
REMARK                            x       y       z     vdW  Elec       q    Type
REMARK                         _______ _______ _______ _____ _____    ______ ____
ROOT
ATOM      1  C   UNL     1       4.761   4.706  18.840  0.00  0.00    +0.000 C 
ATOM      2  C   UNL     1       5.548   4.846  17.557  0.00  0.00    +0.000 A 
ATOM      3  C   UNL     1       6.775   5.467  17.377  0.00  0.00    +0.000 A 
ATOM      4 CL   UNL     1       7.672   6.080  18.712  0.00  0.00    +0.000 Cl
ATOM      5  C   UNL     1       7.346   5.491  16.106  0.00  0.00    +0.000 A 
ATOM      6  C   UNL     1       6.667   4.913  15.026  0.00  0.00    +0.000 A 
ATOM      7 CL   UNL     1       7.358   5.016  13.453  0.00  0.00    +0.000 Cl
ATOM      8  C   UNL     1       5.485   4.193  15.216  0.00  0.00    +0.000 A 
ATOM      9  C   UNL     1       4.987   4.107  16.504  0.00  0.00    +0.000 A 
ATOM     10  S   UNL     1       3.870   2.871  17.167  0.00  0.00    +0.000 S 
ATOM     11  C   UNL     1       4.574   3.170  18.855  0.00  0.00    +0.000 C 
ENDROOT
BRANCH   1  12
ATOM     12  O   UNL     1       3.470   5.383  18.782  0.00  0.00    +0.000 OA
BRANCH  12  13
ATOM     13  C   UNL     1       3.248   6.272  19.888  0.00  0.00    +0.000 C 
BRANCH  13  18
ATOM     14 CL   UNL     1      -0.129  11.164  18.657  0.00  0.00    +0.000 Cl
ATOM     15  C   UNL     1       0.795   9.753  19.009  0.00  0.00    +0.000 A 
ATOM     16  C   UNL     1       0.655   9.116  20.244  0.00  0.00    +0.000 A 
ATOM     17  C   UNL     1       1.435   7.984  20.542  0.00  0.00    +0.000 A 
ATOM     18  C   UNL     1       2.363   7.483  19.616  0.00  0.00    +0.000 A 
ATOM     19  C   UNL     1       2.443   8.126  18.356  0.00  0.00    +0.000 A 
ATOM     20 CL   UNL     1       3.485   7.534  17.107  0.00  0.00    +0.000 Cl
ATOM     21  C   UNL     1       1.670   9.254  18.060  0.00  0.00    +0.000 A 
ENDBRANCH  13  18
ENDBRANCH  12  13
ENDBRANCH   1  12
BRANCH  11  22
ATOM     22  C   UNL     1       3.833   2.660  20.080  0.00  0.00    +0.000 C 
BRANCH  22  23
ATOM     23  N   UNL     1       2.390   2.653  19.928  0.00  0.00    +0.000 N 
ATOM     24  C   UNL     1       1.484   3.357  20.664  0.00  0.00    +0.000 A 
ATOM     25  C   UNL     1       0.270   3.135  20.054  0.00  0.00    +0.000 A 
ATOM     26  N   UNL     1       0.423   2.295  18.979  0.00  0.00    +0.000 NA
ATOM     27  C   UNL     1       1.699   2.024  18.933  0.00  0.00    +0.000 A 
ENDBRANCH  22  23
ENDBRANCH  11  22
TORSDOF 5
ENDMDL
MODEL 7
REMARK VINA RESULT:      -6.5      1.219      1.668
REMARK  Name = 
REMARK  5 active torsions:
REMARK  status: ('A' for Active; 'I' for Inactive)
REMARK    1  A    between atoms: C_5  and  C_6
REMARK    2  A    between atoms: C_6  and  O_7
REMARK    3  A    between atoms: O_7  and  C_8
REMARK    4  A    between atoms: C_18  and  C_19
REMARK    5  A    between atoms: C_19  and  N_20
REMARK                            x       y       z     vdW  Elec       q    Type
REMARK                         _______ _______ _______ _____ _____    ______ ____
ROOT
ATOM      1  C   UNL     1       3.268   5.926  17.636  0.00  0.00    +0.000 C 
ATOM      2  C   UNL     1       2.679   4.981  18.659  0.00  0.00    +0.000 A 
ATOM      3  C   UNL     1       1.553   4.182  18.526  0.00  0.00    +0.000 A 
ATOM      4 CL   UNL     1       0.711   4.064  17.030  0.00  0.00    +0.000 Cl
ATOM      5  C   UNL     1       1.165   3.370  19.590  0.00  0.00    +0.000 A 
ATOM      6  C   UNL     1       1.899   3.388  20.784  0.00  0.00    +0.000 A 
ATOM      7 CL   UNL     1       1.362   2.431  22.109  0.00  0.00    +0.000 Cl
ATOM      8  C   UNL     1       3.093   4.106  20.889  0.00  0.00    +0.000 A 
ATOM      9  C   UNL     1       3.502   4.833  19.786  0.00  0.00    +0.000 A 
ATOM     10  S   UNL     1       5.162   5.385  19.392  0.00  0.00    +0.000 S 
ATOM     11  C   UNL     1       4.715   5.380  17.593  0.00  0.00    +0.000 C 
ENDROOT
BRANCH   1  12
ATOM     12  O   UNL     1       3.254   7.315  18.083  0.00  0.00    +0.000 OA
BRANCH  12  13
ATOM     13  C   UNL     1       2.037   8.003  17.751  0.00  0.00    +0.000 C 
BRANCH  13  18
ATOM     14 CL   UNL     1       0.555  12.738  21.249  0.00  0.00    +0.000 Cl
ATOM     15  C   UNL     1       1.015  11.409  20.254  0.00  0.00    +0.000 A 
ATOM     16  C   UNL     1       1.449  11.631  18.946  0.00  0.00    +0.000 A 
ATOM     17  C   UNL     1       1.792  10.542  18.125  0.00  0.00    +0.000 A 
ATOM     18  C   UNL     1       1.698   9.224  18.599  0.00  0.00    +0.000 A 
ATOM     19  C   UNL     1       1.299   9.039  19.945  0.00  0.00    +0.000 A 
ATOM     20 CL   UNL     1       1.241   7.464  20.660  0.00  0.00    +0.000 Cl
ATOM     21  C   UNL     1       0.955  10.122  20.762  0.00  0.00    +0.000 A 
ENDBRANCH  13  18
ENDBRANCH  12  13
ENDBRANCH   1  12
BRANCH  11  22
ATOM     22  C   UNL     1       5.606   6.099  16.594  0.00  0.00    +0.000 C 
BRANCH  22  23
ATOM     23  N   UNL     1       6.002   5.274  15.467  0.00  0.00    +0.000 N 
ATOM     24  C   UNL     1       5.238   4.349  14.820  0.00  0.00    +0.000 A 
ATOM     25  C   UNL     1       5.994   3.942  13.745  0.00  0.00    +0.000 A 
ATOM     26  N   UNL     1       7.207   4.587  13.743  0.00  0.00    +0.000 NA
ATOM     27  C   UNL     1       7.180   5.372  14.784  0.00  0.00    +0.000 A 
ENDBRANCH  22  23
ENDBRANCH  11  22
TORSDOF 5
ENDMDL
MODEL 8
REMARK VINA RESULT:      -6.5      1.394      2.144
REMARK  Name = 
REMARK  5 active torsions:
REMARK  status: ('A' for Active; 'I' for Inactive)
REMARK    1  A    between atoms: C_5  and  C_6
REMARK    2  A    between atoms: C_6  and  O_7
REMARK    3  A    between atoms: O_7  and  C_8
REMARK    4  A    between atoms: C_18  and  C_19
REMARK    5  A    between atoms: C_19  and  N_20
REMARK                            x       y       z     vdW  Elec       q    Type
REMARK                         _______ _______ _______ _____ _____    ______ ____
ROOT
ATOM      1  C   UNL     1       3.556   5.780  17.635  0.00  0.00    +0.000 C 
ATOM      2  C   UNL     1       2.843   4.887  18.625  0.00  0.00    +0.000 A 
ATOM      3  C   UNL     1       1.625   4.244  18.464  0.00  0.00    +0.000 A 
ATOM      4 CL   UNL     1       0.785   4.284  16.962  0.00  0.00    +0.000 Cl
ATOM      5  C   UNL     1       1.129   3.455  19.500  0.00  0.00    +0.000 A 
ATOM      6  C   UNL     1       1.851   3.341  20.696  0.00  0.00    +0.000 A 
ATOM      7 CL   UNL     1       1.186   2.418  21.987  0.00  0.00    +0.000 Cl
ATOM      8  C   UNL     1       3.126   3.895  20.827  0.00  0.00    +0.000 A 
ATOM      9  C   UNL     1       3.633   4.598  19.749  0.00  0.00    +0.000 A 
ATOM     10  S   UNL     1       5.353   4.943  19.377  0.00  0.00    +0.000 S 
ATOM     11  C   UNL     1       4.921   5.054  17.578  0.00  0.00    +0.000 C 
ENDROOT
BRANCH   1  12
ATOM     12  O   UNL     1       3.718   7.144  18.127  0.00  0.00    +0.000 OA
BRANCH  12  13
ATOM     13  C   UNL     1       2.536   7.945  17.972  0.00  0.00    +0.000 C 
BRANCH  13  18
ATOM     14 CL   UNL     1      -0.243   9.834  23.028  0.00  0.00    +0.000 Cl
ATOM     15  C   UNL     1       0.518   9.266  21.590  0.00  0.00    +0.000 A 
ATOM     16  C   UNL     1       1.119   8.006  21.567  0.00  0.00    +0.000 A 
ATOM     17  C   UNL     1       1.768   7.559  20.403  0.00  0.00    +0.000 A 
ATOM     18  C   UNL     1       1.831   8.366  19.256  0.00  0.00    +0.000 A 
ATOM     19  C   UNL     1       1.169   9.618  19.300  0.00  0.00    +0.000 A 
ATOM     20 CL   UNL     1       1.102  10.651  17.913  0.00  0.00    +0.000 Cl
ATOM     21  C   UNL     1       0.525  10.065  20.459  0.00  0.00    +0.000 A 
ENDBRANCH  13  18
ENDBRANCH  12  13
ENDBRANCH   1  12
BRANCH  11  22
ATOM     22  C   UNL     1       5.904   5.683  16.605  0.00  0.00    +0.000 C 
BRANCH  22  23
ATOM     23  N   UNL     1       6.866   6.567  17.239  0.00  0.00    +0.000 N 
ATOM     24  C   UNL     1       6.985   7.913  17.060  0.00  0.00    +0.000 A 
ATOM     25  C   UNL     1       7.930   8.319  17.974  0.00  0.00    +0.000 A 
ATOM     26  N   UNL     1       8.399   7.241  18.685  0.00  0.00    +0.000 NA
ATOM     27  C   UNL     1       7.746   6.212  18.220  0.00  0.00    +0.000 A 
ENDBRANCH  22  23
ENDBRANCH  11  22
TORSDOF 5
ENDMDL
MODEL 9
REMARK VINA RESULT:      -6.5      1.973      4.946
REMARK  Name = 
REMARK  5 active torsions:
REMARK  status: ('A' for Active; 'I' for Inactive)
REMARK    1  A    between atoms: C_5  and  C_6
REMARK    2  A    between atoms: C_6  and  O_7
REMARK    3  A    between atoms: O_7  and  C_8
REMARK    4  A    between atoms: C_18  and  C_19
REMARK    5  A    between atoms: C_19  and  N_20
REMARK                            x       y       z     vdW  Elec       q    Type
REMARK                         _______ _______ _______ _____ _____    ______ ____
ROOT
ATOM      1  C   UNL     1       3.888   5.254  18.283  0.00  0.00    +0.000 C 
ATOM      2  C   UNL     1       3.099   6.516  18.546  0.00  0.00    +0.000 A 
ATOM      3  C   UNL     1       2.358   6.834  19.674  0.00  0.00    +0.000 A 
ATOM      4 CL   UNL     1       2.356   5.814  21.060  0.00  0.00    +0.000 Cl
ATOM      5  C   UNL     1       1.696   8.059  19.730  0.00  0.00    +0.000 A 
ATOM      6  C   UNL     1       1.766   8.940  18.643  0.00  0.00    +0.000 A 
ATOM      7 CL   UNL     1       0.883  10.416  18.706  0.00  0.00    +0.000 Cl
ATOM      8  C   UNL     1       2.595   8.676  17.550  0.00  0.00    +0.000 A 
ATOM      9  C   UNL     1       3.312   7.493  17.561  0.00  0.00    +0.000 A 
ATOM     10  S   UNL     1       4.810   7.112  16.651  0.00  0.00    +0.000 S 
ATOM     11  C   UNL     1       5.265   5.880  17.959  0.00  0.00    +0.000 C 
ENDROOT
BRANCH   1  12
ATOM     12  O   UNL     1       3.380   4.504  17.139  0.00  0.00    +0.000 OA
BRANCH  12  13
ATOM     13  C   UNL     1       3.002   3.158  17.469  0.00  0.00    +0.000 C 
BRANCH  13  18
ATOM     14 CL   UNL     1       0.668   2.178  22.987  0.00  0.00    +0.000 Cl
ATOM     15  C   UNL     1       1.321   2.496  21.424  0.00  0.00    +0.000 A 
ATOM     16  C   UNL     1       0.495   2.972  20.405  0.00  0.00    +0.000 A 
ATOM     17  C   UNL     1       1.023   3.199  19.121  0.00  0.00    +0.000 A 
ATOM     18  C   UNL     1       2.376   2.948  18.843  0.00  0.00    +0.000 A 
ATOM     19  C   UNL     1       3.194   2.512  19.914  0.00  0.00    +0.000 A 
ATOM     20 CL   UNL     1       4.894   2.264  19.705  0.00  0.00    +0.000 Cl
ATOM     21  C   UNL     1       2.669   2.283  21.190  0.00  0.00    +0.000 A 
ENDBRANCH  13  18
ENDBRANCH  12  13
ENDBRANCH   1  12
BRANCH  11  22
ATOM     22  C   UNL     1       6.349   4.852  17.680  0.00  0.00    +0.000 C 
BRANCH  22  23
ATOM     23  N   UNL     1       6.642   4.683  16.269  0.00  0.00    +0.000 N 
ATOM     24  C   UNL     1       6.033   3.826  15.401  0.00  0.00    +0.000 A 
ATOM     25  C   UNL     1       6.550   4.134  14.163  0.00  0.00    +0.000 A 
ATOM     26  N   UNL     1       7.474   5.145  14.270  0.00  0.00    +0.000 NA
ATOM     27  C   UNL     1       7.507   5.447  15.539  0.00  0.00    +0.000 A 
ENDBRANCH  22  23
ENDBRANCH  11  22
TORSDOF 5
ENDMDL
