MODEL 1
REMARK VINA RESULT:      -8.9      0.000      0.000
REMARK  Name = 
REMARK  6 active torsions:
REMARK  status: ('A' for Active; 'I' for Inactive)
REMARK    1  A    between atoms: C_1  and  C_2
REMARK    2  A    between atoms: C_2  and  C_3
REMARK    3  A    between atoms: C_8  and  O_9
REMARK    4  A    between atoms: O_9  and  C_10
REMARK    5  A    between atoms: C_10  and  C_11
REMARK    6  A    between atoms: C_11  and  N_12
REMARK                            x       y       z     vdW  Elec       q    Type
REMARK                         _______ _______ _______ _____ _____    ______ ____
ROOT
ATOM      1  C   UNL     1       1.055   3.172  21.172  0.00  0.00    +0.000 C 
ATOM      2  C   UNL     1       1.601   3.143  19.739  0.00  0.00    +0.000 C 
ATOM      3  C   UNL     1       0.597   2.448  18.814  0.00  0.00    +0.000 C 
ATOM      4  C   UNL     1       2.911   2.403  19.720  0.00  0.00    +0.000 C 
ATOM      5  C   UNL     1       4.046   2.945  19.271  0.00  0.00    +0.000 C 
ATOM      6  C   UNL     1       4.016   4.316  18.772  0.00  0.00    +0.000 A 
ATOM      7  C   UNL     1       2.823   5.049  18.819  0.00  0.00    +0.000 A 
ATOM      8  C   UNL     1       2.795   6.387  18.364  0.00  0.00    +0.000 A 
ATOM      9  C   UNL     1       3.953   6.960  17.822  0.00  0.00    +0.000 A 
ATOM     10  C   UNL     1       5.147   6.238  17.773  0.00  0.00    +0.000 A 
ATOM     11  C   UNL     1       6.372   6.822  17.252  0.00  0.00    +0.000 A 
ATOM     12  C   UNL     1       7.497   6.102  17.232  0.00  0.00    +0.000 A 
ATOM     13  C   UNL     1       7.551   4.715  17.721  0.00  0.00    +0.000 A 
ATOM     14  O   UNL     1       8.595   4.074  17.688  0.00  0.00    +0.000 OA
ATOM     15  O   UNL     1       6.369   4.184  18.216  0.00  0.00    +0.000 OA
ATOM     16  C   UNL     1       5.163   4.927  18.251  0.00  0.00    +0.000 A 
ATOM     17  O   UNL     1       1.662   4.508  19.298  0.00  0.00    +0.000 OA
ENDROOT
BRANCH   8  18
ATOM     18  O   UNL     1       1.718   7.250  18.379  0.00  0.00    +0.000 OA
BRANCH  18  19
ATOM     19  C   UNL     1       2.022   8.602  18.740  0.00  0.00    +0.000 C 
BRANCH  19  20
ATOM     20  C   UNL     1       0.742   9.416  18.991  0.00  0.00    +0.000 C 
BRANCH  20  21
ATOM     21  N   UNL     1       0.639   9.924  20.380  0.00  0.00    +0.000 NA
ATOM     22  C   UNL     1      -0.389  10.971  20.512  0.00  0.00    +0.000 C 
ATOM     23  C   UNL     1      -0.471  11.516  21.936  0.00  0.00    +0.000 C 
ATOM     24  C   UNL     1      -0.722  10.401  22.939  0.00  0.00    +0.000 C 
ATOM     25  C   UNL     1       0.314   9.298  22.761  0.00  0.00    +0.000 C 
ATOM     26  C   UNL     1       0.376   8.814  21.309  0.00  0.00    +0.000 C 
ENDBRANCH  20  21
ENDBRANCH  19  20
ENDBRANCH  18  19
ENDBRANCH   8  18
TORSDOF 4
ENDMDL
MODEL 2
REMARK VINA RESULT:      -8.6      1.440      2.062
REMARK  Name = 
REMARK  6 active torsions:
REMARK  status: ('A' for Active; 'I' for Inactive)
REMARK    1  A    between atoms: C_1  and  C_2
REMARK    2  A    between atoms: C_2  and  C_3
REMARK    3  A    between atoms: C_8  and  O_9
REMARK    4  A    between atoms: O_9  and  C_10
REMARK    5  A    between atoms: C_10  and  C_11
REMARK    6  A    between atoms: C_11  and  N_12
REMARK                            x       y       z     vdW  Elec       q    Type
REMARK                         _______ _______ _______ _____ _____    ______ ____
ROOT
ATOM      1  C   UNL     1       1.016   3.305  21.159  0.00  0.00    +0.000 C 
ATOM      2  C   UNL     1       1.600   3.195  19.745  0.00  0.00    +0.000 C 
ATOM      3  C   UNL     1       0.633   2.424  18.841  0.00  0.00    +0.000 C 
ATOM      4  C   UNL     1       2.922   2.481  19.807  0.00  0.00    +0.000 C 
ATOM      5  C   UNL     1       4.060   3.014  19.353  0.00  0.00    +0.000 C 
ATOM      6  C   UNL     1       4.019   4.350  18.766  0.00  0.00    +0.000 A 
ATOM      7  C   UNL     1       2.812   5.062  18.737  0.00  0.00    +0.000 A 
ATOM      8  C   UNL     1       2.773   6.368  18.196  0.00  0.00    +0.000 A 
ATOM      9  C   UNL     1       3.935   6.927  17.649  0.00  0.00    +0.000 A 
ATOM     10  C   UNL     1       5.143   6.226  17.676  0.00  0.00    +0.000 A 
ATOM     11  C   UNL     1       6.371   6.800  17.149  0.00  0.00    +0.000 A 
ATOM     12  C   UNL     1       7.508   6.101  17.204  0.00  0.00    +0.000 A 
ATOM     13  C   UNL     1       7.573   4.748  17.782  0.00  0.00    +0.000 A 
ATOM     14  O   UNL     1       8.629   4.127  17.816  0.00  0.00    +0.000 OA
ATOM     15  O   UNL     1       6.388   4.228  18.279  0.00  0.00    +0.000 OA
ATOM     16  C   UNL     1       5.169   4.949  18.237  0.00  0.00    +0.000 A 
ATOM     17  O   UNL     1       1.649   4.531  19.219  0.00  0.00    +0.000 OA
ENDROOT
BRANCH   8  18
ATOM     18  O   UNL     1       1.682   7.210  18.129  0.00  0.00    +0.000 OA
BRANCH  18  19
ATOM     19  C   UNL     1       1.985   8.589  17.895  0.00  0.00    +0.000 C 
BRANCH  19  20
ATOM     20  C   UNL     1       1.271   9.500  18.907  0.00  0.00    +0.000 C 
BRANCH  20  21
ATOM     21  N   UNL     1       0.267  10.391  18.278  0.00  0.00    +0.000 NA
ATOM     22  C   UNL     1      -0.923   9.652  17.823  0.00  0.00    +0.000 C 
ATOM     23  C   UNL     1      -1.941  10.567  17.146  0.00  0.00    +0.000 C 
ATOM     24  C   UNL     1      -2.350  11.709  18.062  0.00  0.00    +0.000 C 
ATOM     25  C   UNL     1      -1.112  12.437  18.572  0.00  0.00    +0.000 C 
ATOM     26  C   UNL     1      -0.112  11.467  19.209  0.00  0.00    +0.000 C 
ENDBRANCH  20  21
ENDBRANCH  19  20
ENDBRANCH  18  19
ENDBRANCH   8  18
TORSDOF 4
ENDMDL
MODEL 3
REMARK VINA RESULT:      -8.6      0.424      1.061
REMARK  Name = 
REMARK  6 active torsions:
REMARK  status: ('A' for Active; 'I' for Inactive)
REMARK    1  A    between atoms: C_1  and  C_2
REMARK    2  A    between atoms: C_2  and  C_3
REMARK    3  A    between atoms: C_8  and  O_9
REMARK    4  A    between atoms: O_9  and  C_10
REMARK    5  A    between atoms: C_10  and  C_11
REMARK    6  A    between atoms: C_11  and  N_12
REMARK                            x       y       z     vdW  Elec       q    Type
REMARK                         _______ _______ _______ _____ _____    ______ ____
ROOT
ATOM      1  C   UNL     1       1.040   3.219  21.099  0.00  0.00    +0.000 C 
ATOM      2  C   UNL     1       1.606   3.178  19.674  0.00  0.00    +0.000 C 
ATOM      3  C   UNL     1       0.615   2.476  18.740  0.00  0.00    +0.000 C 
ATOM      4  C   UNL     1       2.915   2.437  19.679  0.00  0.00    +0.000 C 
ATOM      5  C   UNL     1       4.057   2.975  19.242  0.00  0.00    +0.000 C 
ATOM      6  C   UNL     1       4.035   4.342  18.731  0.00  0.00    +0.000 A 
ATOM      7  C   UNL     1       2.841   5.076  18.756  0.00  0.00    +0.000 A 
ATOM      8  C   UNL     1       2.820   6.410  18.289  0.00  0.00    +0.000 A 
ATOM      9  C   UNL     1       3.986   6.978  17.759  0.00  0.00    +0.000 A 
ATOM     10  C   UNL     1       5.181   6.256  17.733  0.00  0.00    +0.000 A 
ATOM     11  C   UNL     1       6.413   6.836  17.224  0.00  0.00    +0.000 A 
ATOM     12  C   UNL     1       7.538   6.115  17.227  0.00  0.00    +0.000 A 
ATOM     13  C   UNL     1       7.584   4.731  17.727  0.00  0.00    +0.000 A 
ATOM     14  O   UNL     1       8.629   4.091  17.714  0.00  0.00    +0.000 OA
ATOM     15  O   UNL     1       6.395   4.205  18.209  0.00  0.00    +0.000 OA
ATOM     16  C   UNL     1       5.190   4.949  18.222  0.00  0.00    +0.000 A 
ATOM     17  O   UNL     1       1.673   4.540  19.222  0.00  0.00    +0.000 OA
ENDROOT
BRANCH   8  18
ATOM     18  O   UNL     1       1.744   7.274  18.282  0.00  0.00    +0.000 OA
BRANCH  18  19
ATOM     19  C   UNL     1       2.022   8.603  18.734  0.00  0.00    +0.000 C 
BRANCH  19  20
ATOM     20  C   UNL     1       0.834   9.544  18.474  0.00  0.00    +0.000 C 
BRANCH  20  21
ATOM     21  N   UNL     1       0.051   9.843  19.697  0.00  0.00    +0.000 NA
ATOM     22  C   UNL     1       0.768   9.454  20.923  0.00  0.00    +0.000 C 
ATOM     23  C   UNL     1      -0.054   9.732  22.180  0.00  0.00    +0.000 C 
ATOM     24  C   UNL     1      -0.472  11.192  22.254  0.00  0.00    +0.000 C 
ATOM     25  C   UNL     1      -1.167  11.601  20.961  0.00  0.00    +0.000 C 
ATOM     26  C   UNL     1      -0.312  11.269  19.734  0.00  0.00    +0.000 C 
ENDBRANCH  20  21
ENDBRANCH  19  20
ENDBRANCH  18  19
ENDBRANCH   8  18
TORSDOF 4
ENDMDL
MODEL 4
REMARK VINA RESULT:      -8.6      0.785      1.056
REMARK  Name = 
REMARK  6 active torsions:
REMARK  status: ('A' for Active; 'I' for Inactive)
REMARK    1  A    between atoms: C_1  and  C_2
REMARK    2  A    between atoms: C_2  and  C_3
REMARK    3  A    between atoms: C_8  and  O_9
REMARK    4  A    between atoms: O_9  and  C_10
REMARK    5  A    between atoms: C_10  and  C_11
REMARK    6  A    between atoms: C_11  and  N_12
REMARK                            x       y       z     vdW  Elec       q    Type
REMARK                         _______ _______ _______ _____ _____    ______ ____
ROOT
ATOM      1  C   UNL     1       1.029   3.307  21.120  0.00  0.00    +0.000 C 
ATOM      2  C   UNL     1       1.619   3.200  19.708  0.00  0.00    +0.000 C 
ATOM      3  C   UNL     1       0.652   2.443  18.794  0.00  0.00    +0.000 C 
ATOM      4  C   UNL     1       2.936   2.475  19.772  0.00  0.00    +0.000 C 
ATOM      5  C   UNL     1       4.080   3.002  19.328  0.00  0.00    +0.000 C 
ATOM      6  C   UNL     1       4.054   4.341  18.749  0.00  0.00    +0.000 A 
ATOM      7  C   UNL     1       2.853   5.063  18.717  0.00  0.00    +0.000 A 
ATOM      8  C   UNL     1       2.828   6.372  18.184  0.00  0.00    +0.000 A 
ATOM      9  C   UNL     1       3.997   6.925  17.647  0.00  0.00    +0.000 A 
ATOM     10  C   UNL     1       5.199   6.214  17.676  0.00  0.00    +0.000 A 
ATOM     11  C   UNL     1       6.434   6.781  17.160  0.00  0.00    +0.000 A 
ATOM     12  C   UNL     1       7.565   6.072  17.217  0.00  0.00    +0.000 A 
ATOM     13  C   UNL     1       7.616   4.716  17.786  0.00  0.00    +0.000 A 
ATOM     14  O   UNL     1       8.666   4.086  17.823  0.00  0.00    +0.000 OA
ATOM     15  O   UNL     1       6.424   4.203  18.274  0.00  0.00    +0.000 OA
ATOM     16  C   UNL     1       5.211   4.934  18.230  0.00  0.00    +0.000 A 
ATOM     17  O   UNL     1       1.682   4.539  19.190  0.00  0.00    +0.000 OA
ENDROOT
BRANCH   8  18
ATOM     18  O   UNL     1       1.743   7.224  18.117  0.00  0.00    +0.000 OA
BRANCH  18  19
ATOM     19  C   UNL     1       2.058   8.599  17.873  0.00  0.00    +0.000 C 
BRANCH  19  20
ATOM     20  C   UNL     1       0.840   9.505  18.116  0.00  0.00    +0.000 C 
BRANCH  20  21
ATOM     21  N   UNL     1       0.918  10.253  19.394  0.00  0.00    +0.000 NA
ATOM     22  C   UNL     1       1.253  11.671  19.186  0.00  0.00    +0.000 C 
ATOM     23  C   UNL     1       1.365  12.433  20.505  0.00  0.00    +0.000 C 
ATOM     24  C   UNL     1       0.090  12.307  21.324  0.00  0.00    +0.000 C 
ATOM     25  C   UNL     1      -0.279  10.838  21.490  0.00  0.00    +0.000 C 
ATOM     26  C   UNL     1      -0.344  10.118  20.140  0.00  0.00    +0.000 C 
ENDBRANCH  20  21
ENDBRANCH  19  20
ENDBRANCH  18  19
ENDBRANCH   8  18
TORSDOF 4
ENDMDL
MODEL 5
REMARK VINA RESULT:      -8.5      1.381      1.797
REMARK  Name = 
REMARK  6 active torsions:
REMARK  status: ('A' for Active; 'I' for Inactive)
REMARK    1  A    between atoms: C_1  and  C_2
REMARK    2  A    between atoms: C_2  and  C_3
REMARK    3  A    between atoms: C_8  and  O_9
REMARK    4  A    between atoms: O_9  and  C_10
REMARK    5  A    between atoms: C_10  and  C_11
REMARK    6  A    between atoms: C_11  and  N_12
REMARK                            x       y       z     vdW  Elec       q    Type
REMARK                         _______ _______ _______ _____ _____    ______ ____
ROOT
ATOM      1  C   UNL     1       1.140   3.056  21.350  0.00  0.00    +0.000 C 
ATOM      2  C   UNL     1       1.657   3.039  19.905  0.00  0.00    +0.000 C 
ATOM      3  C   UNL     1       0.645   2.332  18.999  0.00  0.00    +0.000 C 
ATOM      4  C   UNL     1       2.977   2.320  19.857  0.00  0.00    +0.000 C 
ATOM      5  C   UNL     1       4.094   2.880  19.386  0.00  0.00    +0.000 C 
ATOM      6  C   UNL     1       4.033   4.252  18.892  0.00  0.00    +0.000 A 
ATOM      7  C   UNL     1       2.830   4.967  18.966  0.00  0.00    +0.000 A 
ATOM      8  C   UNL     1       2.772   6.305  18.515  0.00  0.00    +0.000 A 
ATOM      9  C   UNL     1       3.910   6.897  17.952  0.00  0.00    +0.000 A 
ATOM     10  C   UNL     1       5.114   6.194  17.875  0.00  0.00    +0.000 A 
ATOM     11  C   UNL     1       6.318   6.799  17.331  0.00  0.00    +0.000 A 
ATOM     12  C   UNL     1       7.453   6.096  17.286  0.00  0.00    +0.000 A 
ATOM     13  C   UNL     1       7.539   4.708  17.769  0.00  0.00    +0.000 A 
ATOM     14  O   UNL     1       8.592   4.085  17.712  0.00  0.00    +0.000 OA
ATOM     15  O   UNL     1       6.376   4.158  18.286  0.00  0.00    +0.000 OA
ATOM     16  C   UNL     1       5.160   4.883  18.349  0.00  0.00    +0.000 A 
ATOM     17  O   UNL     1       1.687   4.407  19.467  0.00  0.00    +0.000 OA
ENDROOT
BRANCH   8  18
ATOM     18  O   UNL     1       1.683   7.152  18.556  0.00  0.00    +0.000 OA
BRANCH  18  19
ATOM     19  C   UNL     1       1.988   8.534  18.770  0.00  0.00    +0.000 C 
BRANCH  19  20
ATOM     20  C   UNL     1       1.158   9.441  17.846  0.00  0.00    +0.000 C 
BRANCH  20  21
ATOM     21  N   UNL     1      -0.097   9.918  18.475  0.00  0.00    +0.000 NA
ATOM     22  C   UNL     1       0.086  11.203  19.171  0.00  0.00    +0.000 C 
ATOM     23  C   UNL     1      -1.199  11.677  19.845  0.00  0.00    +0.000 C 
ATOM     24  C   UNL     1      -2.341  11.776  18.847  0.00  0.00    +0.000 C 
ATOM     25  C   UNL     1      -2.491  10.461  18.093  0.00  0.00    +0.000 C 
ATOM     26  C   UNL     1      -1.165  10.018  17.467  0.00  0.00    +0.000 C 
ENDBRANCH  20  21
ENDBRANCH  19  20
ENDBRANCH  18  19
ENDBRANCH   8  18
TORSDOF 4
ENDMDL
MODEL 6
REMARK VINA RESULT:      -8.4      1.430      1.435
REMARK  Name = 
REMARK  6 active torsions:
REMARK  status: ('A' for Active; 'I' for Inactive)
REMARK    1  A    between atoms: C_1  and  C_2
REMARK    2  A    between atoms: C_2  and  C_3
REMARK    3  A    between atoms: C_8  and  O_9
REMARK    4  A    between atoms: O_9  and  C_10
REMARK    5  A    between atoms: C_10  and  C_11
REMARK    6  A    between atoms: C_11  and  N_12
REMARK                            x       y       z     vdW  Elec       q    Type
REMARK                         _______ _______ _______ _____ _____    ______ ____
ROOT
ATOM      1  C   UNL     1       2.183   2.959  21.755  0.00  0.00    +0.000 C 
ATOM      2  C   UNL     1       1.804   3.212  20.291  0.00  0.00    +0.000 C 
ATOM      3  C   UNL     1       0.315   2.924  20.082  0.00  0.00    +0.000 C 
ATOM      4  C   UNL     1       2.627   2.319  19.402  0.00  0.00    +0.000 C 
ATOM      5  C   UNL     1       3.412   2.786  18.427  0.00  0.00    +0.000 C 
ATOM      6  C   UNL     1       3.473   4.228  18.210  0.00  0.00    +0.000 A 
ATOM      7  C   UNL     1       2.756   5.090  19.051  0.00  0.00    +0.000 A 
ATOM      8  C   UNL     1       2.834   6.489  18.863  0.00  0.00    +0.000 A 
ATOM      9  C   UNL     1       3.594   7.006  17.806  0.00  0.00    +0.000 A 
ATOM     10  C   UNL     1       4.313   6.155  16.964  0.00  0.00    +0.000 A 
ATOM     11  C   UNL     1       5.140   6.668  15.884  0.00  0.00    +0.000 A 
ATOM     12  C   UNL     1       5.822   5.821  15.109  0.00  0.00    +0.000 A 
ATOM     13  C   UNL     1       5.769   4.363  15.301  0.00  0.00    +0.000 A 
ATOM     14  O   UNL     1       6.402   3.607  14.573  0.00  0.00    +0.000 OA
ATOM     15  O   UNL     1       4.976   3.902  16.341  0.00  0.00    +0.000 OA
ATOM     16  C   UNL     1       4.246   4.778  17.180  0.00  0.00    +0.000 A 
ATOM     17  O   UNL     1       1.967   4.621  20.064  0.00  0.00    +0.000 OA
ENDROOT
BRANCH   8  18
ATOM     18  O   UNL     1       2.225   7.468  19.624  0.00  0.00    +0.000 OA
BRANCH  18  19
ATOM     19  C   UNL     1       2.006   8.715  18.956  0.00  0.00    +0.000 C 
BRANCH  19  20
ATOM     20  C   UNL     1       0.604   9.271  19.253  0.00  0.00    +0.000 C 
BRANCH  20  21
ATOM     21  N   UNL     1       0.483   9.843  20.616  0.00  0.00    +0.000 NA
ATOM     22  C   UNL     1      -0.314  11.082  20.627  0.00  0.00    +0.000 C 
ATOM     23  C   UNL     1      -0.411  11.687  22.026  0.00  0.00    +0.000 C 
ATOM     24  C   UNL     1      -0.976  10.688  23.021  0.00  0.00    +0.000 C 
ATOM     25  C   UNL     1      -0.180   9.390  22.967  0.00  0.00    +0.000 C 
ATOM     26  C   UNL     1      -0.088   8.847  21.537  0.00  0.00    +0.000 C 
ENDBRANCH  20  21
ENDBRANCH  19  20
ENDBRANCH  18  19
ENDBRANCH   8  18
TORSDOF 4
ENDMDL
MODEL 7
REMARK VINA RESULT:      -8.3      1.787      2.320
REMARK  Name = 
REMARK  6 active torsions:
REMARK  status: ('A' for Active; 'I' for Inactive)
REMARK    1  A    between atoms: C_1  and  C_2
REMARK    2  A    between atoms: C_2  and  C_3
REMARK    3  A    between atoms: C_8  and  O_9
REMARK    4  A    between atoms: O_9  and  C_10
REMARK    5  A    between atoms: C_10  and  C_11
REMARK    6  A    between atoms: C_11  and  N_12
REMARK                            x       y       z     vdW  Elec       q    Type
REMARK                         _______ _______ _______ _____ _____    ______ ____
ROOT
ATOM      1  C   UNL     1       2.259   2.747  21.614  0.00  0.00    +0.000 C 
ATOM      2  C   UNL     1       1.858   3.075  20.171  0.00  0.00    +0.000 C 
ATOM      3  C   UNL     1       0.356   2.845  19.983  0.00  0.00    +0.000 C 
ATOM      4  C   UNL     1       2.632   2.195  19.227  0.00  0.00    +0.000 C 
ATOM      5  C   UNL     1       3.412   2.678  18.256  0.00  0.00    +0.000 C 
ATOM      6  C   UNL     1       3.517   4.125  18.099  0.00  0.00    +0.000 A 
ATOM      7  C   UNL     1       2.846   4.974  18.991  0.00  0.00    +0.000 A 
ATOM      8  C   UNL     1       2.968   6.376  18.862  0.00  0.00    +0.000 A 
ATOM      9  C   UNL     1       3.722   6.913  17.811  0.00  0.00    +0.000 A 
ATOM     10  C   UNL     1       4.395   6.076  16.918  0.00  0.00    +0.000 A 
ATOM     11  C   UNL     1       5.216   6.609  15.843  0.00  0.00    +0.000 A 
ATOM     12  C   UNL     1       5.853   5.774  15.017  0.00  0.00    +0.000 A 
ATOM     13  C   UNL     1       5.756   4.311  15.148  0.00  0.00    +0.000 A 
ATOM     14  O   UNL     1       6.347   3.568  14.374  0.00  0.00    +0.000 OA
ATOM     15  O   UNL     1       4.969   3.832  16.185  0.00  0.00    +0.000 OA
ATOM     16  C   UNL     1       4.286   4.694  17.077  0.00  0.00    +0.000 A 
ATOM     17  O   UNL     1       2.064   4.486  20.001  0.00  0.00    +0.000 OA
ENDROOT
BRANCH   8  18
ATOM     18  O   UNL     1       2.408   7.340  19.677  0.00  0.00    +0.000 OA
BRANCH  18  19
ATOM     19  C   UNL     1       1.768   8.423  18.994  0.00  0.00    +0.000 C 
BRANCH  19  20
ATOM     20  C   UNL     1       1.100   9.392  19.983  0.00  0.00    +0.000 C 
BRANCH  20  21
ATOM     21  N   UNL     1      -0.207   9.903  19.504  0.00  0.00    +0.000 NA
ATOM     22  C   UNL     1      -0.465  11.279  19.961  0.00  0.00    +0.000 C 
ATOM     23  C   UNL     1      -1.826  11.790  19.494  0.00  0.00    +0.000 C 
ATOM     24  C   UNL     1      -1.958  11.704  17.982  0.00  0.00    +0.000 C 
ATOM     25  C   UNL     1      -1.638  10.291  17.511  0.00  0.00    +0.000 C 
ATOM     26  C   UNL     1      -0.279   9.818  18.036  0.00  0.00    +0.000 C 
ENDBRANCH  20  21
ENDBRANCH  19  20
ENDBRANCH  18  19
ENDBRANCH   8  18
TORSDOF 4
ENDMDL
MODEL 8
REMARK VINA RESULT:      -8.1      1.484      1.779
REMARK  Name = 
REMARK  6 active torsions:
REMARK  status: ('A' for Active; 'I' for Inactive)
REMARK    1  A    between atoms: C_1  and  C_2
REMARK    2  A    between atoms: C_2  and  C_3
REMARK    3  A    between atoms: C_8  and  O_9
REMARK    4  A    between atoms: O_9  and  C_10
REMARK    5  A    between atoms: C_10  and  C_11
REMARK    6  A    between atoms: C_11  and  N_12
REMARK                            x       y       z     vdW  Elec       q    Type
REMARK                         _______ _______ _______ _____ _____    ______ ____
ROOT
ATOM      1  C   UNL     1       2.326   3.010  21.738  0.00  0.00    +0.000 C 
ATOM      2  C   UNL     1       1.920   3.246  20.278  0.00  0.00    +0.000 C 
ATOM      3  C   UNL     1       0.425   2.967  20.101  0.00  0.00    +0.000 C 
ATOM      4  C   UNL     1       2.720   2.336  19.386  0.00  0.00    +0.000 C 
ATOM      5  C   UNL     1       3.490   2.784  18.390  0.00  0.00    +0.000 C 
ATOM      6  C   UNL     1       3.557   4.222  18.153  0.00  0.00    +0.000 A 
ATOM      7  C   UNL     1       2.862   5.101  18.995  0.00  0.00    +0.000 A 
ATOM      8  C   UNL     1       2.947   6.497  18.787  0.00  0.00    +0.000 A 
ATOM      9  C   UNL     1       3.690   6.994  17.708  0.00  0.00    +0.000 A 
ATOM     10  C   UNL     1       4.388   6.126  16.865  0.00  0.00    +0.000 A 
ATOM     11  C   UNL     1       5.197   6.619  15.763  0.00  0.00    +0.000 A 
ATOM     12  C   UNL     1       5.858   5.756  14.986  0.00  0.00    +0.000 A 
ATOM     13  C   UNL     1       5.799   4.301  15.199  0.00  0.00    +0.000 A 
ATOM     14  O   UNL     1       6.412   3.531  14.469  0.00  0.00    +0.000 OA
ATOM     15  O   UNL     1       5.022   3.860  16.260  0.00  0.00    +0.000 OA
ATOM     16  C   UNL     1       4.314   4.753  17.101  0.00  0.00    +0.000 A 
ATOM     17  O   UNL     1       2.090   4.651  20.029  0.00  0.00    +0.000 OA
ENDROOT
BRANCH   8  18
ATOM     18  O   UNL     1       2.360   7.490  19.546  0.00  0.00    +0.000 OA
BRANCH  18  19
ATOM     19  C   UNL     1       1.628   8.473  18.807  0.00  0.00    +0.000 C 
BRANCH  19  20
ATOM     20  C   UNL     1       1.566   9.811  19.563  0.00  0.00    +0.000 C 
BRANCH  20  21
ATOM     21  N   UNL     1       0.458   9.872  20.546  0.00  0.00    +0.000 NA
ATOM     22  C   UNL     1       0.837   9.294  21.846  0.00  0.00    +0.000 C 
ATOM     23  C   UNL     1      -0.317   9.329  22.846  0.00  0.00    +0.000 C 
ATOM     24  C   UNL     1      -0.843  10.743  23.031  0.00  0.00    +0.000 C 
ATOM     25  C   UNL     1      -1.184  11.354  21.678  0.00  0.00    +0.000 C 
ATOM     26  C   UNL     1      -0.003  11.261  20.706  0.00  0.00    +0.000 C 
ENDBRANCH  20  21
ENDBRANCH  19  20
ENDBRANCH  18  19
ENDBRANCH   8  18
TORSDOF 4
ENDMDL
MODEL 9
REMARK VINA RESULT:      -8.1      2.615      6.279
REMARK  Name = 
REMARK  6 active torsions:
REMARK  status: ('A' for Active; 'I' for Inactive)
REMARK    1  A    between atoms: C_1  and  C_2
REMARK    2  A    between atoms: C_2  and  C_3
REMARK    3  A    between atoms: C_8  and  O_9
REMARK    4  A    between atoms: O_9  and  C_10
REMARK    5  A    between atoms: C_10  and  C_11
REMARK    6  A    between atoms: C_11  and  N_12
REMARK                            x       y       z     vdW  Elec       q    Type
REMARK                         _______ _______ _______ _____ _____    ______ ____
ROOT
ATOM      1  C   UNL     1       1.995   1.813  19.474  0.00  0.00    +0.000 C 
ATOM      2  C   UNL     1       2.817   3.009  19.972  0.00  0.00    +0.000 C 
ATOM      3  C   UNL     1       4.067   2.513  20.705  0.00  0.00    +0.000 C 
ATOM      4  C   UNL     1       1.975   3.839  20.901  0.00  0.00    +0.000 C 
ATOM      5  C   UNL     1       1.729   5.136  20.697  0.00  0.00    +0.000 C 
ATOM      6  C   UNL     1       2.305   5.780  19.521  0.00  0.00    +0.000 A 
ATOM      7  C   UNL     1       3.055   5.024  18.610  0.00  0.00    +0.000 A 
ATOM      8  C   UNL     1       3.592   5.637  17.454  0.00  0.00    +0.000 A 
ATOM      9  C   UNL     1       3.409   7.010  17.249  0.00  0.00    +0.000 A 
ATOM     10  C   UNL     1       2.662   7.771  18.150  0.00  0.00    +0.000 A 
ATOM     11  C   UNL     1       2.425   9.190  17.939  0.00  0.00    +0.000 A 
ATOM     12  C   UNL     1       1.695   9.880  18.820  0.00  0.00    +0.000 A 
ATOM     13  C   UNL     1       1.111   9.256  20.018  0.00  0.00    +0.000 A 
ATOM     14  O   UNL     1       0.448   9.913  20.812  0.00  0.00    +0.000 OA
ATOM     15  O   UNL     1       1.349   7.901  20.191  0.00  0.00    +0.000 OA
ATOM     16  C   UNL     1       2.117   7.145  19.272  0.00  0.00    +0.000 A 
ATOM     17  O   UNL     1       3.293   3.691  18.801  0.00  0.00    +0.000 OA
ENDROOT
BRANCH   8  18
ATOM     18  O   UNL     1       4.313   5.028  16.448  0.00  0.00    +0.000 OA
BRANCH  18  19
ATOM     19  C   UNL     1       5.083   5.911  15.626  0.00  0.00    +0.000 C 
BRANCH  19  20
ATOM     20  C   UNL     1       6.512   5.381  15.418  0.00  0.00    +0.000 C 
BRANCH  20  21
ATOM     21  N   UNL     1       7.406   5.655  16.569  0.00  0.00    +0.000 NA
ATOM     22  C   UNL     1       7.111   6.950  17.204  0.00  0.00    +0.000 C 
ATOM     23  C   UNL     1       8.054   7.245  18.369  0.00  0.00    +0.000 C 
ATOM     24  C   UNL     1       8.018   6.131  19.402  0.00  0.00    +0.000 C 
ATOM     25  C   UNL     1       8.272   4.787  18.730  0.00  0.00    +0.000 C 
ATOM     26  C   UNL     1       7.321   4.561  17.550  0.00  0.00    +0.000 C 
ENDBRANCH  20  21
ENDBRANCH  19  20
ENDBRANCH  18  19
ENDBRANCH   8  18
TORSDOF 4
ENDMDL
