MODEL 1
REMARK VINA RESULT:      -7.8      0.000      0.000
REMARK  Name = 
REMARK  6 active torsions:
REMARK  status: ('A' for Active; 'I' for Inactive)
REMARK    1  A    between atoms: C_2  and  C_24
REMARK    2  A    between atoms: N_3  and  C_4
REMARK    3  A    between atoms: C_8  and  C_9
REMARK    4  A    between atoms: C_9  and  N_10
REMARK    5  A    between atoms: N_14  and  C_15
REMARK    6  A    between atoms: C_15  and  C_16
REMARK                            x       y       z     vdW  Elec       q    Type
REMARK                         _______ _______ _______ _____ _____    ______ ____
ROOT
ATOM      1  C   UNL     1       2.770   4.983  18.672  0.00  0.00    +0.000 A 
ATOM      2  C   UNL     1       1.952   3.918  19.051  0.00  0.00    +0.000 A 
ATOM      3  C   UNL     1       1.083   4.039  20.135  0.00  0.00    +0.000 A 
ATOM      4  C   UNL     1       1.007   5.236  20.840  0.00  0.00    +0.000 A 
ATOM      5  C   UNL     1       1.824   6.324  20.495  0.00  0.00    +0.000 A 
ATOM      6  C   UNL     1       2.749   6.159  19.441  0.00  0.00    +0.000 A 
ENDROOT
BRANCH   1   9
ATOM      7  O   UNL     1       5.577   4.223  18.470  0.00  0.00    +0.000 OA
ATOM      8  C   UNL     1       4.932   4.571  17.480  0.00  0.00    +0.000 C 
ATOM      9  N   UNL     1       3.590   4.940  17.521  0.00  0.00    +0.000 N 
ATOM     10  H   UNL     1       3.135   5.036  16.621  0.00  0.00    +0.000 HD
BRANCH   8  11
ATOM     11  C   UNL     1       5.551   4.552  16.156  0.00  0.00    +0.000 A 
ATOM     12  C   UNL     1       5.155   3.770  15.088  0.00  0.00    +0.000 A 
ATOM     13  C   UNL     1       5.954   3.954  13.913  0.00  0.00    +0.000 A 
ATOM     14  C   UNL     1       5.865   3.349  12.635  0.00  0.00    +0.000 A 
ATOM     15  C   UNL     1       6.775   3.685  11.629  0.00  0.00    +0.000 A 
ATOM     16  C   UNL     1       7.775   4.616  11.874  0.00  0.00    +0.000 A 
ATOM     17  C   UNL     1       7.885   5.230  13.125  0.00  0.00    +0.000 A 
ATOM     18  C   UNL     1       6.964   4.890  14.135  0.00  0.00    +0.000 A 
ATOM     19  S   UNL     1       6.897   5.516  15.741  0.00  0.00    +0.000 S 
ENDBRANCH   8  11
ENDBRANCH   1   9
BRANCH   5  20
ATOM     20  C   UNL     1       1.644   7.656  21.222  0.00  0.00    +0.000 C 
BRANCH  20  21
ATOM     21  N   UNL     1       0.779   8.676  20.555  0.00  0.00    +0.000 NA
ATOM     22  C   UNL     1       1.384   9.156  19.307  0.00  0.00    +0.000 C 
ATOM     23  C   UNL     1       0.553   9.980  18.317  0.00  0.00    +0.000 C 
ATOM     24  C   UNL     1      -0.150  11.271  18.740  0.00  0.00    +0.000 C 
ATOM     25  N   UNL     1       0.033  11.812  20.080  0.00  0.00    +0.000 NA
ATOM     26  C   UNL     1      -0.510  10.879  21.076  0.00  0.00    +0.000 C 
ATOM     27  C   UNL     1       0.375   9.701  21.526  0.00  0.00    +0.000 C 
BRANCH  25  28
ATOM     28  C   UNL     1       1.378  12.295  20.407  0.00  0.00    +0.000 C 
BRANCH  28  29
ATOM     29  C   UNL     1       1.753  13.536  19.637  0.00  0.00    +0.000 A 
ATOM     30  C   UNL     1       2.819  13.643  18.683  0.00  0.00    +0.000 A 
ATOM     31  C   UNL     1       2.888  14.891  18.094  0.00  0.00    +0.000 A 
ATOM     32  S   UNL     1       1.684  15.945  18.691  0.00  0.00    +0.000 S 
ATOM     33  C   UNL     1       1.057  14.731  19.718  0.00  0.00    +0.000 A 
ENDBRANCH  28  29
ENDBRANCH  25  28
ENDBRANCH  20  21
ENDBRANCH   5  20
TORSDOF 6
ENDMDL
MODEL 2
REMARK VINA RESULT:      -7.7      5.758      9.431
REMARK  Name = 
REMARK  6 active torsions:
REMARK  status: ('A' for Active; 'I' for Inactive)
REMARK    1  A    between atoms: C_2  and  C_24
REMARK    2  A    between atoms: N_3  and  C_4
REMARK    3  A    between atoms: C_8  and  C_9
REMARK    4  A    between atoms: C_9  and  N_10
REMARK    5  A    between atoms: N_14  and  C_15
REMARK    6  A    between atoms: C_15  and  C_16
REMARK                            x       y       z     vdW  Elec       q    Type
REMARK                         _______ _______ _______ _____ _____    ______ ____
ROOT
ATOM      1  C   UNL     1      -3.025  13.478  22.039  0.00  0.00    +0.000 A 
ATOM      2  C   UNL     1      -2.687  14.365  23.062  0.00  0.00    +0.000 A 
ATOM      3  C   UNL     1      -3.656  15.175  23.651  0.00  0.00    +0.000 A 
ATOM      4  C   UNL     1      -4.983  15.092  23.238  0.00  0.00    +0.000 A 
ATOM      5  C   UNL     1      -5.357  14.220  22.202  0.00  0.00    +0.000 A 
ATOM      6  C   UNL     1      -4.350  13.461  21.569  0.00  0.00    +0.000 A 
ENDROOT
BRANCH   1   9
ATOM      7  O   UNL     1      -1.691  11.231  23.332  0.00  0.00    +0.000 OA
ATOM      8  C   UNL     1      -1.485  11.508  22.149  0.00  0.00    +0.000 C 
ATOM      9  N   UNL     1      -2.097  12.567  21.484  0.00  0.00    +0.000 N 
ATOM     10  H   UNL     1      -1.976  12.581  20.479  0.00  0.00    +0.000 HD
BRANCH   8  11
ATOM     11  C   UNL     1      -0.602  10.669  21.342  0.00  0.00    +0.000 A 
ATOM     12  C   UNL     1      -0.343  10.828  19.994  0.00  0.00    +0.000 A 
ATOM     13  C   UNL     1       0.558   9.850  19.461  0.00  0.00    +0.000 A 
ATOM     14  C   UNL     1       1.064   9.681  18.148  0.00  0.00    +0.000 A 
ATOM     15  C   UNL     1       1.940   8.632  17.858  0.00  0.00    +0.000 A 
ATOM     16  C   UNL     1       2.322   7.745  18.854  0.00  0.00    +0.000 A 
ATOM     17  C   UNL     1       1.841   7.889  20.159  0.00  0.00    +0.000 A 
ATOM     18  C   UNL     1       0.960   8.950  20.448  0.00  0.00    +0.000 A 
ATOM     19  S   UNL     1       0.248   9.330  21.972  0.00  0.00    +0.000 S 
ENDBRANCH   8  11
ENDBRANCH   1   9
BRANCH   5  20
ATOM     20  C   UNL     1      -6.835  14.079  21.842  0.00  0.00    +0.000 C 
BRANCH  20  21
ATOM     21  N   UNL     1      -7.174  13.105  20.760  0.00  0.00    +0.000 NA
ATOM     22  C   UNL     1      -6.794  11.737  21.133  0.00  0.00    +0.000 C 
ATOM     23  C   UNL     1      -7.303  10.547  20.312  0.00  0.00    +0.000 C 
ATOM     24  C   UNL     1      -7.059  10.449  18.805  0.00  0.00    +0.000 C 
ATOM     25  N   UNL     1      -6.243  11.441  18.119  0.00  0.00    +0.000 NA
ATOM     26  C   UNL     1      -6.887  12.759  18.194  0.00  0.00    +0.000 C 
ATOM     27  C   UNL     1      -6.676  13.598  19.469  0.00  0.00    +0.000 C 
BRANCH  25  28
ATOM     28  C   UNL     1      -4.820  11.467  18.469  0.00  0.00    +0.000 C 
BRANCH  28  29
ATOM     29  C   UNL     1      -3.943  10.902  17.381  0.00  0.00    +0.000 A 
ATOM     30  C   UNL     1      -2.865   9.973  17.567  0.00  0.00    +0.000 A 
ATOM     31  C   UNL     1      -2.277   9.589  16.378  0.00  0.00    +0.000 A 
ATOM     32  S   UNL     1      -3.004  10.348  15.032  0.00  0.00    +0.000 S 
ATOM     33  C   UNL     1      -4.118  11.172  16.033  0.00  0.00    +0.000 A 
ENDBRANCH  28  29
ENDBRANCH  25  28
ENDBRANCH  20  21
ENDBRANCH   5  20
TORSDOF 6
ENDMDL
MODEL 3
REMARK VINA RESULT:      -7.7      2.558      4.570
REMARK  Name = 
REMARK  6 active torsions:
REMARK  status: ('A' for Active; 'I' for Inactive)
REMARK    1  A    between atoms: C_2  and  C_24
REMARK    2  A    between atoms: N_3  and  C_4
REMARK    3  A    between atoms: C_8  and  C_9
REMARK    4  A    between atoms: C_9  and  N_10
REMARK    5  A    between atoms: N_14  and  C_15
REMARK    6  A    between atoms: C_15  and  C_16
REMARK                            x       y       z     vdW  Elec       q    Type
REMARK                         _______ _______ _______ _____ _____    ______ ____
ROOT
ATOM      1  C   UNL     1       1.052   9.081  20.960  0.00  0.00    +0.000 A 
ATOM      2  C   UNL     1       0.923   8.767  22.313  0.00  0.00    +0.000 A 
ATOM      3  C   UNL     1       0.060   9.494  23.133  0.00  0.00    +0.000 A 
ATOM      4  C   UNL     1      -0.702  10.530  22.601  0.00  0.00    +0.000 A 
ATOM      5  C   UNL     1      -0.588  10.883  21.247  0.00  0.00    +0.000 A 
ATOM      6  C   UNL     1       0.344  10.183  20.449  0.00  0.00    +0.000 A 
ENDROOT
BRANCH   1   9
ATOM      7  O   UNL     1       1.395   6.186  20.887  0.00  0.00    +0.000 OA
ATOM      8  C   UNL     1       1.968   6.923  20.082  0.00  0.00    +0.000 C 
ATOM      9  N   UNL     1       1.836   8.309  20.071  0.00  0.00    +0.000 N 
ATOM     10  H   UNL     1       2.217   8.779  19.259  0.00  0.00    +0.000 HD
BRANCH   8  11
ATOM     11  C   UNL     1       2.794   6.350  19.022  0.00  0.00    +0.000 A 
ATOM     12  C   UNL     1       3.473   7.060  18.051  0.00  0.00    +0.000 A 
ATOM     13  C   UNL     1       4.198   6.233  17.133  0.00  0.00    +0.000 A 
ATOM     14  C   UNL     1       5.006   6.578  16.022  0.00  0.00    +0.000 A 
ATOM     15  C   UNL     1       5.618   5.583  15.255  0.00  0.00    +0.000 A 
ATOM     16  C   UNL     1       5.438   4.245  15.577  0.00  0.00    +0.000 A 
ATOM     17  C   UNL     1       4.649   3.875  16.670  0.00  0.00    +0.000 A 
ATOM     18  C   UNL     1       4.036   4.882  17.441  0.00  0.00    +0.000 A 
ATOM     19  S   UNL     1       3.032   4.671  18.827  0.00  0.00    +0.000 S 
ENDBRANCH   8  11
ENDBRANCH   1   9
BRANCH   5  20
ATOM     20  C   UNL     1      -1.510  11.956  20.673  0.00  0.00    +0.000 C 
BRANCH  20  21
ATOM     21  N   UNL     1      -0.945  13.335  20.551  0.00  0.00    +0.000 NA
ATOM     22  C   UNL     1      -0.401  13.573  19.209  0.00  0.00    +0.000 C 
ATOM     23  C   UNL     1      -0.039  14.996  18.768  0.00  0.00    +0.000 C 
ATOM     24  C   UNL     1       0.941  15.857  19.567  0.00  0.00    +0.000 C 
ATOM     25  N   UNL     1       1.639  15.311  20.723  0.00  0.00    +0.000 NA
ATOM     26  C   UNL     1       0.674  14.968  21.776  0.00  0.00    +0.000 C 
ATOM     27  C   UNL     1      -0.050  13.611  21.682  0.00  0.00    +0.000 C 
BRANCH  25  28
ATOM     28  C   UNL     1       2.609  14.247  20.452  0.00  0.00    +0.000 C 
BRANCH  28  29
ATOM     29  C   UNL     1       3.793  14.728  19.653  0.00  0.00    +0.000 A 
ATOM     30  C   UNL     1       4.095  14.366  18.297  0.00  0.00    +0.000 A 
ATOM     31  C   UNL     1       5.215  15.008  17.808  0.00  0.00    +0.000 A 
ATOM     32  S   UNL     1       5.919  16.040  18.973  0.00  0.00    +0.000 S 
ATOM     33  C   UNL     1       4.717  15.647  20.123  0.00  0.00    +0.000 A 
ENDBRANCH  28  29
ENDBRANCH  25  28
ENDBRANCH  20  21
ENDBRANCH   5  20
TORSDOF 6
ENDMDL
MODEL 4
REMARK VINA RESULT:      -7.7      2.017      3.078
REMARK  Name = 
REMARK  6 active torsions:
REMARK  status: ('A' for Active; 'I' for Inactive)
REMARK    1  A    between atoms: C_2  and  C_24
REMARK    2  A    between atoms: N_3  and  C_4
REMARK    3  A    between atoms: C_8  and  C_9
REMARK    4  A    between atoms: C_9  and  N_10
REMARK    5  A    between atoms: N_14  and  C_15
REMARK    6  A    between atoms: C_15  and  C_16
REMARK                            x       y       z     vdW  Elec       q    Type
REMARK                         _______ _______ _______ _____ _____    ______ ____
ROOT
ATOM      1  C   UNL     1       2.693   4.928  18.635  0.00  0.00    +0.000 A 
ATOM      2  C   UNL     1       1.821   3.883  18.939  0.00  0.00    +0.000 A 
ATOM      3  C   UNL     1       0.934   3.985  20.010  0.00  0.00    +0.000 A 
ATOM      4  C   UNL     1       0.895   5.145  20.778  0.00  0.00    +0.000 A 
ATOM      5  C   UNL     1       1.768   6.212  20.509  0.00  0.00    +0.000 A 
ATOM      6  C   UNL     1       2.708   6.061  19.467  0.00  0.00    +0.000 A 
ENDROOT
BRANCH   1   9
ATOM      7  O   UNL     1       5.498   4.147  18.469  0.00  0.00    +0.000 OA
ATOM      8  C   UNL     1       4.876   4.529  17.476  0.00  0.00    +0.000 C 
ATOM      9  N   UNL     1       3.537   4.910  17.500  0.00  0.00    +0.000 N 
ATOM     10  H   UNL     1       3.101   5.036  16.595  0.00  0.00    +0.000 HD
BRANCH   8  11
ATOM     11  C   UNL     1       5.522   4.541  16.166  0.00  0.00    +0.000 A 
ATOM     12  C   UNL     1       5.153   3.780  15.073  0.00  0.00    +0.000 A 
ATOM     13  C   UNL     1       5.974   3.992  13.919  0.00  0.00    +0.000 A 
ATOM     14  C   UNL     1       5.915   3.414  12.627  0.00  0.00    +0.000 A 
ATOM     15  C   UNL     1       6.843   3.776  11.647  0.00  0.00    +0.000 A 
ATOM     16  C   UNL     1       7.833   4.707  11.932  0.00  0.00    +0.000 A 
ATOM     17  C   UNL     1       7.913   5.295  13.197  0.00  0.00    +0.000 A 
ATOM     18  C   UNL     1       6.973   4.929  14.181  0.00  0.00    +0.000 A 
ATOM     19  S   UNL     1       6.870   5.521  15.798  0.00  0.00    +0.000 S 
ENDBRANCH   8  11
ENDBRANCH   1   9
BRANCH   5  20
ATOM     20  C   UNL     1       1.631   7.509  21.304  0.00  0.00    +0.000 C 
BRANCH  20  21
ATOM     21  N   UNL     1       1.507   8.773  20.515  0.00  0.00    +0.000 NA
ATOM     22  C   UNL     1       0.488   9.661  21.086  0.00  0.00    +0.000 C 
ATOM     23  C   UNL     1       0.393  11.120  20.623  0.00  0.00    +0.000 C 
ATOM     24  C   UNL     1       0.211  11.482  19.147  0.00  0.00    +0.000 C 
ATOM     25  N   UNL     1       0.022  10.442  18.145  0.00  0.00    +0.000 NA
ATOM     26  C   UNL     1       1.222   9.600  18.061  0.00  0.00    +0.000 C 
ATOM     27  C   UNL     1       1.382   8.461  19.086  0.00  0.00    +0.000 C 
BRANCH  25  28
ATOM     28  C   UNL     1      -1.223   9.674  18.234  0.00  0.00    +0.000 C 
BRANCH  28  29
ATOM     29  C   UNL     1      -2.341  10.282  17.424  0.00  0.00    +0.000 A 
ATOM     30  C   UNL     1      -2.501  10.176  16.002  0.00  0.00    +0.000 A 
ATOM     31  C   UNL     1      -3.653  10.788  15.546  0.00  0.00    +0.000 A 
ATOM     32  S   UNL     1      -4.543  11.502  16.818  0.00  0.00    +0.000 S 
ATOM     33  C   UNL     1      -3.403  10.976  17.979  0.00  0.00    +0.000 A 
ENDBRANCH  28  29
ENDBRANCH  25  28
ENDBRANCH  20  21
ENDBRANCH   5  20
TORSDOF 6
ENDMDL
MODEL 5
REMARK VINA RESULT:      -7.4      2.420      3.226
REMARK  Name = 
REMARK  6 active torsions:
REMARK  status: ('A' for Active; 'I' for Inactive)
REMARK    1  A    between atoms: C_2  and  C_24
REMARK    2  A    between atoms: N_3  and  C_4
REMARK    3  A    between atoms: C_8  and  C_9
REMARK    4  A    between atoms: C_9  and  N_10
REMARK    5  A    between atoms: N_14  and  C_15
REMARK    6  A    between atoms: C_15  and  C_16
REMARK                            x       y       z     vdW  Elec       q    Type
REMARK                         _______ _______ _______ _____ _____    ______ ____
ROOT
ATOM      1  C   UNL     1       2.808   6.042  18.949  0.00  0.00    +0.000 A 
ATOM      2  C   UNL     1       2.149   5.023  19.637  0.00  0.00    +0.000 A 
ATOM      3  C   UNL     1       1.302   5.317  20.705  0.00  0.00    +0.000 A 
ATOM      4  C   UNL     1       1.089   6.639  21.084  0.00  0.00    +0.000 A 
ATOM      5  C   UNL     1       1.746   7.690  20.424  0.00  0.00    +0.000 A 
ATOM      6  C   UNL     1       2.654   7.367  19.392  0.00  0.00    +0.000 A 
ENDROOT
BRANCH   1   9
ATOM      7  O   UNL     1       5.362   4.649  18.756  0.00  0.00    +0.000 OA
ATOM      8  C   UNL     1       4.814   5.128  17.762  0.00  0.00    +0.000 C 
ATOM      9  N   UNL     1       3.594   5.799  17.799  0.00  0.00    +0.000 N 
ATOM     10  H   UNL     1       3.172   5.990  16.898  0.00  0.00    +0.000 HD
BRANCH   8  11
ATOM     11  C   UNL     1       5.409   4.953  16.439  0.00  0.00    +0.000 A 
ATOM     12  C   UNL     1       4.934   4.126  15.440  0.00  0.00    +0.000 A 
ATOM     13  C   UNL     1       5.727   4.149  14.247  0.00  0.00    +0.000 A 
ATOM     14  C   UNL     1       5.569   3.456  13.022  0.00  0.00    +0.000 A 
ATOM     15  C   UNL     1       6.489   3.634  11.985  0.00  0.00    +0.000 A 
ATOM     16  C   UNL     1       7.567   4.493  12.147  0.00  0.00    +0.000 A 
ATOM     17  C   UNL     1       7.746   5.192  13.345  0.00  0.00    +0.000 A 
ATOM     18  C   UNL     1       6.815   5.011  14.386  0.00  0.00    +0.000 A 
ATOM     19  S   UNL     1       6.825   5.765  15.938  0.00  0.00    +0.000 S 
ENDBRANCH   8  11
ENDBRANCH   1   9
BRANCH   5  20
ATOM     20  C   UNL     1       1.412   9.133  20.796  0.00  0.00    +0.000 C 
BRANCH  20  21
ATOM     21  N   UNL     1       0.773   9.972  19.737  0.00  0.00    +0.000 NA
ATOM     22  C   UNL     1       1.166  11.381  19.863  0.00  0.00    +0.000 C 
ATOM     23  C   UNL     1       0.869  12.366  18.726  0.00  0.00    +0.000 C 
ATOM     24  C   UNL     1      -0.550  12.571  18.193  0.00  0.00    +0.000 C 
ATOM     25  N   UNL     1      -1.683  11.906  18.822  0.00  0.00    +0.000 NA
ATOM     26  C   UNL     1      -1.557  10.450  18.674  0.00  0.00    +0.000 C 
ATOM     27  C   UNL     1      -0.667   9.694  19.679  0.00  0.00    +0.000 C 
BRANCH  25  28
ATOM     28  C   UNL     1      -2.006  12.327  20.188  0.00  0.00    +0.000 C 
BRANCH  28  29
ATOM     29  C   UNL     1      -3.484  12.538  20.398  0.00  0.00    +0.000 A 
ATOM     30  C   UNL     1      -4.504  12.396  19.398  0.00  0.00    +0.000 A 
ATOM     31  C   UNL     1      -5.776  12.597  19.897  0.00  0.00    +0.000 A 
ATOM     32  S   UNL     1      -5.755  12.970  21.563  0.00  0.00    +0.000 S 
ATOM     33  C   UNL     1      -4.052  12.841  21.624  0.00  0.00    +0.000 A 
ENDBRANCH  28  29
ENDBRANCH  25  28
ENDBRANCH  20  21
ENDBRANCH   5  20
TORSDOF 6
ENDMDL
MODEL 6
REMARK VINA RESULT:      -7.4      0.910      1.058
REMARK  Name = 
REMARK  6 active torsions:
REMARK  status: ('A' for Active; 'I' for Inactive)
REMARK    1  A    between atoms: C_2  and  C_24
REMARK    2  A    between atoms: N_3  and  C_4
REMARK    3  A    between atoms: C_8  and  C_9
REMARK    4  A    between atoms: C_9  and  N_10
REMARK    5  A    between atoms: N_14  and  C_15
REMARK    6  A    between atoms: C_15  and  C_16
REMARK                            x       y       z     vdW  Elec       q    Type
REMARK                         _______ _______ _______ _____ _____    ______ ____
ROOT
ATOM      1  C   UNL     1       2.810   5.197  18.717  0.00  0.00    +0.000 A 
ATOM      2  C   UNL     1       1.995   4.140  19.123  0.00  0.00    +0.000 A 
ATOM      3  C   UNL     1       1.122   4.287  20.200  0.00  0.00    +0.000 A 
ATOM      4  C   UNL     1       1.040   5.503  20.872  0.00  0.00    +0.000 A 
ATOM      5  C   UNL     1       1.855   6.584  20.500  0.00  0.00    +0.000 A 
ATOM      6  C   UNL     1       2.784   6.394  19.454  0.00  0.00    +0.000 A 
ENDROOT
BRANCH   1   9
ATOM      7  O   UNL     1       5.494   4.082  18.476  0.00  0.00    +0.000 OA
ATOM      8  C   UNL     1       4.916   4.583  17.510  0.00  0.00    +0.000 C 
ATOM      9  N   UNL     1       3.634   5.126  17.570  0.00  0.00    +0.000 N 
ATOM     10  H   UNL     1       3.210   5.346  16.678  0.00  0.00    +0.000 HD
BRANCH   8  11
ATOM     11  C   UNL     1       5.546   4.575  16.192  0.00  0.00    +0.000 A 
ATOM     12  C   UNL     1       5.176   3.783  15.122  0.00  0.00    +0.000 A 
ATOM     13  C   UNL     1       5.980   3.981  13.953  0.00  0.00    +0.000 A 
ATOM     14  C   UNL     1       5.915   3.372  12.675  0.00  0.00    +0.000 A 
ATOM     15  C   UNL     1       6.826   3.726  11.676  0.00  0.00    +0.000 A 
ATOM     16  C   UNL     1       7.805   4.677  11.928  0.00  0.00    +0.000 A 
ATOM     17  C   UNL     1       7.891   5.296  13.179  0.00  0.00    +0.000 A 
ATOM     18  C   UNL     1       6.968   4.938  14.182  0.00  0.00    +0.000 A 
ATOM     19  S   UNL     1       6.875   5.566  15.786  0.00  0.00    +0.000 S 
ENDBRANCH   8  11
ENDBRANCH   1   9
BRANCH   5  20
ATOM     20  C   UNL     1       1.668   7.934  21.190  0.00  0.00    +0.000 C 
BRANCH  20  21
ATOM     21  N   UNL     1       0.678   8.873  20.578  0.00  0.00    +0.000 NA
ATOM     22  C   UNL     1       1.126   9.336  19.260  0.00  0.00    +0.000 C 
ATOM     23  C   UNL     1       0.151  10.067  18.330  0.00  0.00    +0.000 C 
ATOM     24  C   UNL     1      -0.589  11.330  18.777  0.00  0.00    +0.000 C 
ATOM     25  N   UNL     1      -0.310  11.935  20.071  0.00  0.00    +0.000 NA
ATOM     26  C   UNL     1      -0.693  11.013  21.149  0.00  0.00    +0.000 C 
ATOM     27  C   UNL     1       0.306   9.910  21.549  0.00  0.00    +0.000 C 
BRANCH  25  28
ATOM     28  C   UNL     1       1.026  12.512  20.245  0.00  0.00    +0.000 C 
BRANCH  28  29
ATOM     29  C   UNL     1       0.986  13.979  20.587  0.00  0.00    +0.000 A 
ATOM     30  C   UNL     1       1.079  15.063  19.650  0.00  0.00    +0.000 A 
ATOM     31  C   UNL     1       0.955  16.301  20.250  0.00  0.00    +0.000 A 
ATOM     32  S   UNL     1       0.739  16.173  21.940  0.00  0.00    +0.000 S 
ATOM     33  C   UNL     1       0.788  14.466  21.869  0.00  0.00    +0.000 A 
ENDBRANCH  28  29
ENDBRANCH  25  28
ENDBRANCH  20  21
ENDBRANCH   5  20
TORSDOF 6
ENDMDL
MODEL 7
REMARK VINA RESULT:      -7.4      3.568     11.333
REMARK  Name = 
REMARK  6 active torsions:
REMARK  status: ('A' for Active; 'I' for Inactive)
REMARK    1  A    between atoms: C_2  and  C_24
REMARK    2  A    between atoms: N_3  and  C_4
REMARK    3  A    between atoms: C_8  and  C_9
REMARK    4  A    between atoms: C_9  and  N_10
REMARK    5  A    between atoms: N_14  and  C_15
REMARK    6  A    between atoms: C_15  and  C_16
REMARK                            x       y       z     vdW  Elec       q    Type
REMARK                         _______ _______ _______ _____ _____    ______ ____
ROOT
ATOM      1  C   UNL     1       0.168  10.314  20.031  0.00  0.00    +0.000 A 
ATOM      2  C   UNL     1       0.599  10.569  18.729  0.00  0.00    +0.000 A 
ATOM      3  C   UNL     1       1.484   9.702  18.089  0.00  0.00    +0.000 A 
ATOM      4  C   UNL     1       1.931   8.555  18.739  0.00  0.00    +0.000 A 
ATOM      5  C   UNL     1       1.529   8.273  20.055  0.00  0.00    +0.000 A 
ATOM      6  C   UNL     1       0.691   9.200  20.712  0.00  0.00    +0.000 A 
ENDROOT
BRANCH   1   9
ATOM      7  O   UNL     1       0.575  12.595  21.802  0.00  0.00    +0.000 OA
ATOM      8  C   UNL     1      -0.555  12.190  21.522  0.00  0.00    +0.000 C 
ATOM      9  N   UNL     1      -0.805  11.109  20.681  0.00  0.00    +0.000 N 
ATOM     10  H   UNL     1      -1.769  10.988  20.397  0.00  0.00    +0.000 HD
BRANCH   8  11
ATOM     11  C   UNL     1      -1.732  12.891  22.030  0.00  0.00    +0.000 A 
ATOM     12  C   UNL     1      -2.870  12.298  22.542  0.00  0.00    +0.000 A 
ATOM     13  C   UNL     1      -3.871  13.235  22.958  0.00  0.00    +0.000 A 
ATOM     14  C   UNL     1      -5.151  13.024  23.527  0.00  0.00    +0.000 A 
ATOM     15  C   UNL     1      -5.969  14.110  23.850  0.00  0.00    +0.000 A 
ATOM     16  C   UNL     1      -5.534  15.406  23.615  0.00  0.00    +0.000 A 
ATOM     17  C   UNL     1      -4.274  15.644  23.057  0.00  0.00    +0.000 A 
ATOM     18  C   UNL     1      -3.452  14.546  22.736  0.00  0.00    +0.000 A 
ATOM     19  S   UNL     1      -1.870  14.592  22.051  0.00  0.00    +0.000 S 
ENDBRANCH   8  11
ENDBRANCH   1   9
BRANCH   5  20
ATOM     20  C   UNL     1       1.956   6.957  20.702  0.00  0.00    +0.000 C 
BRANCH  20  21
ATOM     21  N   UNL     1       1.634   5.703  19.955  0.00  0.00    +0.000 NA
ATOM     22  C   UNL     1       1.758   4.521  20.816  0.00  0.00    +0.000 C 
ATOM     23  C   UNL     1       1.201   3.171  20.353  0.00  0.00    +0.000 C 
ATOM     24  C   UNL     1       1.636   2.535  19.031  0.00  0.00    +0.000 C 
ATOM     25  N   UNL     1       2.674   3.152  18.217  0.00  0.00    +0.000 NA
ATOM     26  C   UNL     1       2.224   4.466  17.739  0.00  0.00    +0.000 C 
ATOM     27  C   UNL     1       2.373   5.672  18.686  0.00  0.00    +0.000 C 
BRANCH  25  28
ATOM     28  C   UNL     1       4.023   3.172  18.789  0.00  0.00    +0.000 C 
BRANCH  28  29
ATOM     29  C   UNL     1       5.036   3.805  17.870  0.00  0.00    +0.000 A 
ATOM     30  C   UNL     1       5.108   3.627  16.448  0.00  0.00    +0.000 A 
ATOM     31  C   UNL     1       6.108   4.379  15.864  0.00  0.00    +0.000 A 
ATOM     32  S   UNL     1       6.975   5.294  17.017  0.00  0.00    +0.000 S 
ATOM     33  C   UNL     1       6.002   4.704  18.292  0.00  0.00    +0.000 A 
ENDBRANCH  28  29
ENDBRANCH  25  28
ENDBRANCH  20  21
ENDBRANCH   5  20
TORSDOF 6
ENDMDL
MODEL 8
REMARK VINA RESULT:      -7.3      4.056      6.793
REMARK  Name = 
REMARK  6 active torsions:
REMARK  status: ('A' for Active; 'I' for Inactive)
REMARK    1  A    between atoms: C_2  and  C_24
REMARK    2  A    between atoms: N_3  and  C_4
REMARK    3  A    between atoms: C_8  and  C_9
REMARK    4  A    between atoms: C_9  and  N_10
REMARK    5  A    between atoms: N_14  and  C_15
REMARK    6  A    between atoms: C_15  and  C_16
REMARK                            x       y       z     vdW  Elec       q    Type
REMARK                         _______ _______ _______ _____ _____    ______ ____
ROOT
ATOM      1  C   UNL     1       0.291  10.281  19.955  0.00  0.00    +0.000 A 
ATOM      2  C   UNL     1      -0.851  10.610  19.225  0.00  0.00    +0.000 A 
ATOM      3  C   UNL     1      -1.270  11.936  19.119  0.00  0.00    +0.000 A 
ATOM      4  C   UNL     1      -0.536  12.951  19.725  0.00  0.00    +0.000 A 
ATOM      5  C   UNL     1       0.611  12.655  20.479  0.00  0.00    +0.000 A 
ATOM      6  C   UNL     1       0.978  11.301  20.636  0.00  0.00    +0.000 A 
ENDROOT
BRANCH   1   9
ATOM      7  O   UNL     1       2.313   9.058  18.246  0.00  0.00    +0.000 OA
ATOM      8  C   UNL     1       1.776   8.429  19.159  0.00  0.00    +0.000 C 
ATOM      9  N   UNL     1       0.809   8.966  20.006  0.00  0.00    +0.000 N 
ATOM     10  H   UNL     1       0.577   8.405  20.816  0.00  0.00    +0.000 HD
BRANCH   8  11
ATOM     11  C   UNL     1       2.191   7.058  19.448  0.00  0.00    +0.000 A 
ATOM     12  C   UNL     1       1.709   6.265  20.472  0.00  0.00    +0.000 A 
ATOM     13  C   UNL     1       2.305   4.963  20.521  0.00  0.00    +0.000 A 
ATOM     14  C   UNL     1       2.079   3.879  21.405  0.00  0.00    +0.000 A 
ATOM     15  C   UNL     1       2.796   2.688  21.262  0.00  0.00    +0.000 A 
ATOM     16  C   UNL     1       3.738   2.558  20.250  0.00  0.00    +0.000 A 
ATOM     17  C   UNL     1       3.979   3.610  19.362  0.00  0.00    +0.000 A 
ATOM     18  C   UNL     1       3.251   4.807  19.509  0.00  0.00    +0.000 A 
ATOM     19  S   UNL     1       3.371   6.227  18.537  0.00  0.00    +0.000 S 
ENDBRANCH   8  11
ENDBRANCH   1   9
BRANCH   5  20
ATOM     20  C   UNL     1       1.449  13.799  21.046  0.00  0.00    +0.000 C 
BRANCH  20  21
ATOM     21  N   UNL     1       1.951  14.815  20.070  0.00  0.00    +0.000 NA
ATOM     22  C   UNL     1       2.908  14.223  19.128  0.00  0.00    +0.000 C 
ATOM     23  C   UNL     1       3.328  14.996  17.872  0.00  0.00    +0.000 C 
ATOM     24  C   UNL     1       3.931  16.399  17.959  0.00  0.00    +0.000 C 
ATOM     25  N   UNL     1       4.218  17.006  19.251  0.00  0.00    +0.000 NA
ATOM     26  C   UNL     1       2.970  17.212  19.998  0.00  0.00    +0.000 C 
ATOM     27  C   UNL     1       2.391  16.020  20.785  0.00  0.00    +0.000 C 
BRANCH  25  28
ATOM     28  C   UNL     1       5.275  16.373  20.045  0.00  0.00    +0.000 C 
BRANCH  28  29
ATOM     29  C   UNL     1       6.575  16.249  19.292  0.00  0.00    +0.000 A 
ATOM     30  C   UNL     1       7.376  17.340  18.814  0.00  0.00    +0.000 A 
ATOM     31  C   UNL     1       8.544  16.921  18.207  0.00  0.00    +0.000 A 
ATOM     32  S   UNL     1       8.682  15.219  18.197  0.00  0.00    +0.000 S 
ATOM     33  C   UNL     1       7.195  15.041  19.020  0.00  0.00    +0.000 A 
ENDBRANCH  28  29
ENDBRANCH  25  28
ENDBRANCH  20  21
ENDBRANCH   5  20
TORSDOF 6
ENDMDL
MODEL 9
REMARK VINA RESULT:      -7.3      2.884      5.338
REMARK  Name = 
REMARK  6 active torsions:
REMARK  status: ('A' for Active; 'I' for Inactive)
REMARK    1  A    between atoms: C_2  and  C_24
REMARK    2  A    between atoms: N_3  and  C_4
REMARK    3  A    between atoms: C_8  and  C_9
REMARK    4  A    between atoms: C_9  and  N_10
REMARK    5  A    between atoms: N_14  and  C_15
REMARK    6  A    between atoms: C_15  and  C_16
REMARK                            x       y       z     vdW  Elec       q    Type
REMARK                         _______ _______ _______ _____ _____    ______ ____
ROOT
ATOM      1  C   UNL     1       0.825   9.269  21.289  0.00  0.00    +0.000 A 
ATOM      2  C   UNL     1      -0.060   8.865  22.288  0.00  0.00    +0.000 A 
ATOM      3  C   UNL     1      -0.817   9.802  22.990  0.00  0.00    +0.000 A 
ATOM      4  C   UNL     1      -0.712  11.156  22.685  0.00  0.00    +0.000 A 
ATOM      5  C   UNL     1       0.179  11.600  21.695  0.00  0.00    +0.000 A 
ATOM      6  C   UNL     1       0.990  10.644  21.045  0.00  0.00    +0.000 A 
ENDROOT
BRANCH   1   9
ATOM      7  O   UNL     1       1.388   9.414  18.431  0.00  0.00    +0.000 OA
ATOM      8  C   UNL     1       1.774   8.466  19.116  0.00  0.00    +0.000 C 
ATOM      9  N   UNL     1       1.536   8.349  20.483  0.00  0.00    +0.000 N 
ATOM     10  H   UNL     1       2.051   7.618  20.957  0.00  0.00    +0.000 HD
BRANCH   8  11
ATOM     11  C   UNL     1       2.586   7.409  18.515  0.00  0.00    +0.000 A 
ATOM     12  C   UNL     1       3.489   7.570  17.482  0.00  0.00    +0.000 A 
ATOM     13  C   UNL     1       4.137   6.354  17.089  0.00  0.00    +0.000 A 
ATOM     14  C   UNL     1       5.112   6.111  16.090  0.00  0.00    +0.000 A 
ATOM     15  C   UNL     1       5.601   4.819  15.879  0.00  0.00    +0.000 A 
ATOM     16  C   UNL     1       5.135   3.762  16.648  0.00  0.00    +0.000 A 
ATOM     17  C   UNL     1       4.176   3.973  17.643  0.00  0.00    +0.000 A 
ATOM     18  C   UNL     1       3.688   5.278  17.853  0.00  0.00    +0.000 A 
ATOM     19  S   UNL     1       2.518   5.779  19.017  0.00  0.00    +0.000 S 
ENDBRANCH   8  11
ENDBRANCH   1   9
BRANCH   5  20
ATOM     20  C   UNL     1       0.197  13.079  21.314  0.00  0.00    +0.000 C 
BRANCH  20  21
ATOM     21  N   UNL     1       1.439  13.592  20.659  0.00  0.00    +0.000 NA
ATOM     22  C   UNL     1       2.229  14.415  21.583  0.00  0.00    +0.000 C 
ATOM     23  C   UNL     1       3.669  14.802  21.227  0.00  0.00    +0.000 C 
ATOM     24  C   UNL     1       4.004  15.534  19.926  0.00  0.00    +0.000 C 
ATOM     25  N   UNL     1       2.946  15.976  19.029  0.00  0.00    +0.000 NA
ATOM     26  C   UNL     1       2.222  14.814  18.496  0.00  0.00    +0.000 C 
ATOM     27  C   UNL     1       1.108  14.194  19.361  0.00  0.00    +0.000 C 
BRANCH  25  28
ATOM     28  C   UNL     1       2.064  17.030  19.535  0.00  0.00    +0.000 C 
BRANCH  28  29
ATOM     29  C   UNL     1       1.133  17.568  18.477  0.00  0.00    +0.000 A 
ATOM     30  C   UNL     1      -0.286  17.736  18.613  0.00  0.00    +0.000 A 
ATOM     31  C   UNL     1      -0.867  18.304  17.497  0.00  0.00    +0.000 A 
ATOM     32  S   UNL     1       0.281  18.628  16.274  0.00  0.00    +0.000 S 
ATOM     33  C   UNL     1       1.557  18.031  17.243  0.00  0.00    +0.000 A 
ENDBRANCH  28  29
ENDBRANCH  25  28
ENDBRANCH  20  21
ENDBRANCH   5  20
TORSDOF 6
ENDMDL
