MODEL 1
REMARK VINA RESULT:      -7.5      0.000      0.000
REMARK  Name = 
REMARK  2 active torsions:
REMARK  status: ('A' for Active; 'I' for Inactive)
REMARK    1  A    between atoms: C_1  and  C_2
REMARK    2  A    between atoms: N_13  and  C_14
REMARK                            x       y       z     vdW  Elec       q    Type
REMARK                         _______ _______ _______ _____ _____    ______ ____
ROOT
ATOM      1  C   UNL     1       4.163   3.007  17.519  0.00  0.00    +0.000 C 
ATOM      2  C   UNL     1       4.203   4.494  17.315  0.00  0.00    +0.000 A 
ATOM      3  C   UNL     1       4.999   5.064  16.302  0.00  0.00    +0.000 A 
ATOM      4 BR   UNL     1       6.097   4.065  15.119  0.00  0.00    +0.000 Br
ATOM      5  C   UNL     1       5.007   6.446  16.134  0.00  0.00    +0.000 A 
ATOM      6  N   UNL     1       4.285   7.305  16.879  0.00  0.00    +0.000 NA
ATOM      7  C   UNL     1       3.520   6.780  17.852  0.00  0.00    +0.000 A 
ATOM      8  N   UNL     1       2.815   7.763  18.565  0.00  0.00    +0.000 NA
ATOM      9  C   UNL     1       2.089   7.434  19.598  0.00  0.00    +0.000 A 
ATOM     10  N   UNL     1       1.413   8.413  20.310  0.00  0.00    +0.000 N 
ATOM     11  C   UNL     1       1.726   8.602  21.736  0.00  0.00    +0.000 C 
ATOM     12  C   UNL     1       0.515   9.219  22.461  0.00  0.00    +0.000 C 
ATOM     13  N   UNL     1       0.094  10.500  21.849  0.00  0.00    +0.000 NA
ATOM     14  C   UNL     1      -1.082  11.028  22.535  0.00  0.00    +0.000 C 
ATOM     15  C   UNL     1      -0.185  10.287  20.409  0.00  0.00    +0.000 C 
ATOM     16  C   UNL     1       1.019   9.670  19.657  0.00  0.00    +0.000 C 
ATOM     17  C   UNL     1       1.997   6.032  19.937  0.00  0.00    +0.000 A 
ATOM     18  N   UNL     1       1.294   5.491  20.906  0.00  0.00    +0.000 NA
ATOM     19  N   UNL     1       1.458   4.131  20.816  0.00  0.00    +0.000 NA
ATOM     20  C   UNL     1       2.249   3.892  19.791  0.00  0.00    +0.000 A 
ATOM     21  N   UNL     1       2.628   5.065  19.202  0.00  0.00    +0.000 N 
ATOM     22  C   UNL     1       3.457   5.396  18.112  0.00  0.00    +0.000 A 
ENDROOT
TORSDOF 0
ENDMDL
MODEL 2
REMARK VINA RESULT:      -7.5      3.353      7.184
REMARK  Name = 
REMARK  2 active torsions:
REMARK  status: ('A' for Active; 'I' for Inactive)
REMARK    1  A    between atoms: C_1  and  C_2
REMARK    2  A    between atoms: N_13  and  C_14
REMARK                            x       y       z     vdW  Elec       q    Type
REMARK                         _______ _______ _______ _____ _____    ______ ____
ROOT
ATOM      1  C   UNL     1       0.168  12.172  19.884  0.00  0.00    +0.000 C 
ATOM      2  C   UNL     1       0.160  11.017  20.843  0.00  0.00    +0.000 A 
ATOM      3  C   UNL     1      -0.397  11.150  22.131  0.00  0.00    +0.000 A 
ATOM      4 BR   UNL     1      -1.164  12.753  22.801  0.00  0.00    +0.000 Br
ATOM      5  C   UNL     1      -0.397  10.058  22.993  0.00  0.00    +0.000 A 
ATOM      6  N   UNL     1       0.100   8.845  22.680  0.00  0.00    +0.000 NA
ATOM      7  C   UNL     1       0.637   8.698  21.457  0.00  0.00    +0.000 A 
ATOM      8  N   UNL     1       1.124   7.400  21.239  0.00  0.00    +0.000 NA
ATOM      9  C   UNL     1       1.753   7.107  20.135  0.00  0.00    +0.000 A 
ATOM     10  N   UNL     1       2.249   5.828  19.937  0.00  0.00    +0.000 N 
ATOM     11  C   UNL     1       3.696   5.648  19.737  0.00  0.00    +0.000 C 
ATOM     12  C   UNL     1       3.959   4.358  18.937  0.00  0.00    +0.000 C 
ATOM     13  N   UNL     1       3.376   3.168  19.596  0.00  0.00    +0.000 NA
ATOM     14  C   UNL     1       3.606   1.975  18.786  0.00  0.00    +0.000 C 
ATOM     15  C   UNL     1       1.926   3.388  19.813  0.00  0.00    +0.000 C 
ATOM     16  C   UNL     1       1.636   4.679  20.617  0.00  0.00    +0.000 C 
ATOM     17  C   UNL     1       1.874   8.145  19.136  0.00  0.00    +0.000 A 
ATOM     18  N   UNL     1       2.430   8.047  17.949  0.00  0.00    +0.000 NA
ATOM     19  N   UNL     1       2.262   9.257  17.322  0.00  0.00    +0.000 NA
ATOM     20  C   UNL     1       1.604  10.045  18.145  0.00  0.00    +0.000 A 
ATOM     21  N   UNL     1       1.339   9.392  19.316  0.00  0.00    +0.000 N 
ATOM     22  C   UNL     1       0.699   9.749  20.519  0.00  0.00    +0.000 A 
ENDROOT
TORSDOF 0
ENDMDL
MODEL 3
REMARK VINA RESULT:      -6.4      1.077      1.162
REMARK  Name = 
REMARK  2 active torsions:
REMARK  status: ('A' for Active; 'I' for Inactive)
REMARK    1  A    between atoms: C_1  and  C_2
REMARK    2  A    between atoms: N_13  and  C_14
REMARK                            x       y       z     vdW  Elec       q    Type
REMARK                         _______ _______ _______ _____ _____    ______ ____
ROOT
ATOM      1  C   UNL     1       4.820   3.568  18.394  0.00  0.00    +0.000 C 
ATOM      2  C   UNL     1       4.677   4.922  17.761  0.00  0.00    +0.000 A 
ATOM      3  C   UNL     1       5.452   5.281  16.641  0.00  0.00    +0.000 A 
ATOM      4 BR   UNL     1       6.744   4.150  15.829  0.00  0.00    +0.000 Br
ATOM      5  C   UNL     1       5.290   6.541  16.071  0.00  0.00    +0.000 A 
ATOM      6  N   UNL     1       4.416   7.466  16.514  0.00  0.00    +0.000 NA
ATOM      7  C   UNL     1       3.668   7.142  17.583  0.00  0.00    +0.000 A 
ATOM      8  N   UNL     1       2.797   8.177  17.959  0.00  0.00    +0.000 NA
ATOM      9  C   UNL     1       2.058   8.062  19.027  0.00  0.00    +0.000 A 
ATOM     10  N   UNL     1       1.216   9.097  19.403  0.00  0.00    +0.000 N 
ATOM     11  C   UNL     1       1.412   9.735  20.715  0.00  0.00    +0.000 C 
ATOM     12  C   UNL     1       0.088  10.354  21.201  0.00  0.00    +0.000 C 
ATOM     13  N   UNL     1      -0.459  11.328  20.229  0.00  0.00    +0.000 NA
ATOM     14  C   UNL     1      -1.734  11.857  20.703  0.00  0.00    +0.000 C 
ATOM     15  C   UNL     1      -0.618  10.669  18.911  0.00  0.00    +0.000 C 
ATOM     16  C   UNL     1       0.701  10.039  18.400  0.00  0.00    +0.000 C 
ATOM     17  C   UNL     1       2.130   6.820  19.763  0.00  0.00    +0.000 A 
ATOM     18  N   UNL     1       1.446   6.488  20.835  0.00  0.00    +0.000 NA
ATOM     19  N   UNL     1       1.792   5.199  21.155  0.00  0.00    +0.000 NA
ATOM     20  C   UNL     1       2.669   4.789  20.263  0.00  0.00    +0.000 A 
ATOM     21  N   UNL     1       2.927   5.782  19.361  0.00  0.00    +0.000 N 
ATOM     22  C   UNL     1       3.771   5.899  18.239  0.00  0.00    +0.000 A 
ENDROOT
TORSDOF 0
ENDMDL
MODEL 4
REMARK VINA RESULT:      -6.4      4.241      8.412
REMARK  Name = 
REMARK  2 active torsions:
REMARK  status: ('A' for Active; 'I' for Inactive)
REMARK    1  A    between atoms: C_1  and  C_2
REMARK    2  A    between atoms: N_13  and  C_14
REMARK                            x       y       z     vdW  Elec       q    Type
REMARK                         _______ _______ _______ _____ _____    ______ ____
ROOT
ATOM      1  C   UNL     1      -3.794  13.478  20.407  0.00  0.00    +0.000 C 
ATOM      2  C   UNL     1      -2.620  12.940  21.172  0.00  0.00    +0.000 A 
ATOM      3  C   UNL     1      -2.331  13.402  22.471  0.00  0.00    +0.000 A 
ATOM      4 BR   UNL     1      -3.338  14.730  23.381  0.00  0.00    +0.000 Br
ATOM      5  C   UNL     1      -1.240  12.877  23.158  0.00  0.00    +0.000 A 
ATOM      6  N   UNL     1      -0.422  11.925  22.667  0.00  0.00    +0.000 NA
ATOM      7  C   UNL     1      -0.681  11.472  21.428  0.00  0.00    +0.000 A 
ATOM      8  N   UNL     1       0.232  10.488  21.018  0.00  0.00    +0.000 NA
ATOM      9  C   UNL     1       0.177  10.000  19.809  0.00  0.00    +0.000 A 
ATOM     10  N   UNL     1       1.095   9.044  19.405  0.00  0.00    +0.000 N 
ATOM     11  C   UNL     1       1.978   9.340  18.265  0.00  0.00    +0.000 C 
ATOM     12  C   UNL     1       2.427   8.028  17.594  0.00  0.00    +0.000 C 
ATOM     13  N   UNL     1       3.103   7.120  18.549  0.00  0.00    +0.000 NA
ATOM     14  C   UNL     1       3.472   5.872  17.887  0.00  0.00    +0.000 C 
ATOM     15  C   UNL     1       2.205   6.862  19.700  0.00  0.00    +0.000 C 
ATOM     16  C   UNL     1       1.740   8.167  20.393  0.00  0.00    +0.000 C 
ATOM     17  C   UNL     1      -0.884  10.466  18.945  0.00  0.00    +0.000 A 
ATOM     18  N   UNL     1      -1.139  10.076  17.716  0.00  0.00    +0.000 NA
ATOM     19  N   UNL     1      -2.269  10.738  17.306  0.00  0.00    +0.000 NA
ATOM     20  C   UNL     1      -2.667  11.501  18.302  0.00  0.00    +0.000 A 
ATOM     21  N   UNL     1      -1.817  11.374  19.365  0.00  0.00    +0.000 N 
ATOM     22  C   UNL     1      -1.751  11.953  20.647  0.00  0.00    +0.000 A 
ENDROOT
TORSDOF 0
ENDMDL
MODEL 5
REMARK VINA RESULT:      -6.2      3.079      4.869
REMARK  Name = 
REMARK  2 active torsions:
REMARK  status: ('A' for Active; 'I' for Inactive)
REMARK    1  A    between atoms: C_1  and  C_2
REMARK    2  A    between atoms: N_13  and  C_14
REMARK                            x       y       z     vdW  Elec       q    Type
REMARK                         _______ _______ _______ _____ _____    ______ ____
ROOT
ATOM      1  C   UNL     1       1.606   6.387  20.826  0.00  0.00    +0.000 C 
ATOM      2  C   UNL     1       1.827   7.371  19.713  0.00  0.00    +0.000 A 
ATOM      3  C   UNL     1       2.365   6.957  18.479  0.00  0.00    +0.000 A 
ATOM      4 BR   UNL     1       2.878   5.172  18.083  0.00  0.00    +0.000 Br
ATOM      5  C   UNL     1       2.549   7.892  17.464  0.00  0.00    +0.000 A 
ATOM      6  N   UNL     1       2.235   9.198  17.571  0.00  0.00    +0.000 NA
ATOM      7  C   UNL     1       1.722   9.612  18.742  0.00  0.00    +0.000 A 
ATOM      8  N   UNL     1       1.434  10.987  18.742  0.00  0.00    +0.000 NA
ATOM      9  C   UNL     1       1.008  11.571  19.828  0.00  0.00    +0.000 A 
ATOM     10  N   UNL     1       0.747  12.932  19.826  0.00  0.00    +0.000 N 
ATOM     11  C   UNL     1       1.500  13.804  20.742  0.00  0.00    +0.000 C 
ATOM     12  C   UNL     1       0.680  15.071  21.052  0.00  0.00    +0.000 C 
ATOM     13  N   UNL     1       0.312  15.809  19.822  0.00  0.00    +0.000 NA
ATOM     14  C   UNL     1      -0.501  16.976  20.155  0.00  0.00    +0.000 C 
ATOM     15  C   UNL     1      -0.417  14.901  18.906  0.00  0.00    +0.000 C 
ATOM     16  C   UNL     1       0.387  13.619  18.577  0.00  0.00    +0.000 C 
ATOM     17  C   UNL     1       0.793  10.746  20.995  0.00  0.00    +0.000 A 
ATOM     18  N   UNL     1       0.334  11.126  22.166  0.00  0.00    +0.000 NA
ATOM     19  N   UNL     1       0.238  10.003  22.948  0.00  0.00    +0.000 NA
ATOM     20  C   UNL     1       0.634   8.977  22.224  0.00  0.00    +0.000 A 
ATOM     21  N   UNL     1       1.006   9.394  20.977  0.00  0.00    +0.000 N 
ATOM     22  C   UNL     1       1.513   8.746  19.834  0.00  0.00    +0.000 A 
ENDROOT
TORSDOF 0
ENDMDL
MODEL 6
REMARK VINA RESULT:      -6.2      3.483      5.518
REMARK  Name = 
REMARK  2 active torsions:
REMARK  status: ('A' for Active; 'I' for Inactive)
REMARK    1  A    between atoms: C_1  and  C_2
REMARK    2  A    between atoms: N_13  and  C_14
REMARK                            x       y       z     vdW  Elec       q    Type
REMARK                         _______ _______ _______ _____ _____    ______ ____
ROOT
ATOM      1  C   UNL     1       1.453   7.036  20.913  0.00  0.00    +0.000 C 
ATOM      2  C   UNL     1       1.544   8.196  19.964  0.00  0.00    +0.000 A 
ATOM      3  C   UNL     1       2.119   8.041  18.687  0.00  0.00    +0.000 A 
ATOM      4 BR   UNL     1       2.843   6.412  18.033  0.00  0.00    +0.000 Br
ATOM      5  C   UNL     1       2.180   9.134  17.826  0.00  0.00    +0.000 A 
ATOM      6  N   UNL     1       1.709  10.361  18.125  0.00  0.00    +0.000 NA
ATOM      7  C   UNL     1       1.158  10.528  19.339  0.00  0.00    +0.000 A 
ATOM      8  N   UNL     1       0.704  11.841  19.543  0.00  0.00    +0.000 NA
ATOM      9  C   UNL     1       0.218  12.199  20.699  0.00  0.00    +0.000 A 
ATOM     10  N   UNL     1      -0.208  13.503  20.899  0.00  0.00    +0.000 N 
ATOM     11  C   UNL     1       0.439  14.312  21.945  0.00  0.00    +0.000 C 
ATOM     12  C   UNL     1      -0.527  15.408  22.432  0.00  0.00    +0.000 C 
ATOM     13  N   UNL     1      -0.992  16.272  21.323  0.00  0.00    +0.000 NA
ATOM     14  C   UNL     1      -1.939  17.267  21.818  0.00  0.00    +0.000 C 
ATOM     15  C   UNL     1      -1.612  15.430  20.272  0.00  0.00    +0.000 C 
ATOM     16  C   UNL     1      -0.659  14.321  19.764  0.00  0.00    +0.000 C 
ATOM     17  C   UNL     1       0.113  11.187  21.726  0.00  0.00    +0.000 A 
ATOM     18  N   UNL     1      -0.380  11.328  22.936  0.00  0.00    +0.000 NA
ATOM     19  N   UNL     1      -0.332  10.096  23.540  0.00  0.00    +0.000 NA
ATOM     20  C   UNL     1       0.181   9.248  22.674  0.00  0.00    +0.000 A 
ATOM     21  N   UNL     1       0.491   9.890  21.508  0.00  0.00    +0.000 N 
ATOM     22  C   UNL     1       1.064   9.488  20.286  0.00  0.00    +0.000 A 
ENDROOT
TORSDOF 0
ENDMDL
MODEL 7
REMARK VINA RESULT:      -6.2      1.640      3.404
REMARK  Name = 
REMARK  2 active torsions:
REMARK  status: ('A' for Active; 'I' for Inactive)
REMARK    1  A    between atoms: C_1  and  C_2
REMARK    2  A    between atoms: N_13  and  C_14
REMARK                            x       y       z     vdW  Elec       q    Type
REMARK                         _______ _______ _______ _____ _____    ______ ____
ROOT
ATOM      1  C   UNL     1       4.108   4.592  17.312  0.00  0.00    +0.000 C 
ATOM      2  C   UNL     1       3.258   4.557  18.548  0.00  0.00    +0.000 A 
ATOM      3  C   UNL     1       3.045   3.352  19.247  0.00  0.00    +0.000 A 
ATOM      4 BR   UNL     1       3.764   1.674  18.723  0.00  0.00    +0.000 Br
ATOM      5  C   UNL     1       2.259   3.356  20.395  0.00  0.00    +0.000 A 
ATOM      6  N   UNL     1       1.677   4.456  20.912  0.00  0.00    +0.000 NA
ATOM      7  C   UNL     1       1.867   5.615  20.259  0.00  0.00    +0.000 A 
ATOM      8  N   UNL     1       1.216   6.692  20.882  0.00  0.00    +0.000 NA
ATOM      9  C   UNL     1       1.227   7.875  20.334  0.00  0.00    +0.000 A 
ATOM     10  N   UNL     1       0.563   8.928  20.945  0.00  0.00    +0.000 N 
ATOM     11  C   UNL     1      -0.525   9.602  20.218  0.00  0.00    +0.000 C 
ATOM     12  C   UNL     1      -0.683  11.046  20.732  0.00  0.00    +0.000 C 
ATOM     13  N   UNL     1      -0.929  11.092  22.191  0.00  0.00    +0.000 NA
ATOM     14  C   UNL     1      -1.027  12.477  22.646  0.00  0.00    +0.000 C 
ATOM     15  C   UNL     1       0.165  10.382  22.895  0.00  0.00    +0.000 C 
ATOM     16  C   UNL     1       0.343   8.926  22.398  0.00  0.00    +0.000 C 
ATOM     17  C   UNL     1       1.975   8.042  19.108  0.00  0.00    +0.000 A 
ATOM     18  N   UNL     1       2.144   9.150  18.423  0.00  0.00    +0.000 NA
ATOM     19  N   UNL     1       2.971   8.852  17.369  0.00  0.00    +0.000 NA
ATOM     20  C   UNL     1       3.282   7.576  17.453  0.00  0.00    +0.000 A 
ATOM     21  N   UNL     1       2.668   7.010  18.535  0.00  0.00    +0.000 N 
ATOM     22  C   UNL     1       2.632   5.711  19.079  0.00  0.00    +0.000 A 
ENDROOT
TORSDOF 0
ENDMDL
MODEL 8
REMARK VINA RESULT:      -6.0      1.785      3.851
REMARK  Name = 
REMARK  2 active torsions:
REMARK  status: ('A' for Active; 'I' for Inactive)
REMARK    1  A    between atoms: C_1  and  C_2
REMARK    2  A    between atoms: N_13  and  C_14
REMARK                            x       y       z     vdW  Elec       q    Type
REMARK                         _______ _______ _______ _____ _____    ______ ____
ROOT
ATOM      1  C   UNL     1       4.077   5.803  17.658  0.00  0.00    +0.000 C 
ATOM      2  C   UNL     1       3.213   5.758  18.886  0.00  0.00    +0.000 A 
ATOM      3  C   UNL     1       3.139   4.594  19.676  0.00  0.00    +0.000 A 
ATOM      4 BR   UNL     1       4.072   2.985  19.294  0.00  0.00    +0.000 Br
ATOM      5  C   UNL     1       2.336   4.588  20.812  0.00  0.00    +0.000 A 
ATOM      6  N   UNL     1       1.610   5.642  21.234  0.00  0.00    +0.000 NA
ATOM      7  C   UNL     1       1.667   6.762  20.492  0.00  0.00    +0.000 A 
ATOM      8  N   UNL     1       0.873   7.793  21.021  0.00  0.00    +0.000 NA
ATOM      9  C   UNL     1       0.747   8.922  20.381  0.00  0.00    +0.000 A 
ATOM     10  N   UNL     1      -0.055   9.927  20.899  0.00  0.00    +0.000 N 
ATOM     11  C   UNL     1      -1.205  10.399  20.110  0.00  0.00    +0.000 C 
ATOM     12  C   UNL     1      -1.552  11.847  20.505  0.00  0.00    +0.000 C 
ATOM     13  N   UNL     1      -1.831  11.975  21.954  0.00  0.00    +0.000 NA
ATOM     14  C   UNL     1      -2.111  13.367  22.295  0.00  0.00    +0.000 C 
ATOM     15  C   UNL     1      -0.671  11.466  22.723  0.00  0.00    +0.000 C 
ATOM     16  C   UNL     1      -0.303  10.010  22.345  0.00  0.00    +0.000 C 
ATOM     17  C   UNL     1       1.493   9.085  19.153  0.00  0.00    +0.000 A 
ATOM     18  N   UNL     1       1.536  10.150  18.383  0.00  0.00    +0.000 NA
ATOM     19  N   UNL     1       2.414   9.877  17.364  0.00  0.00    +0.000 NA
ATOM     20  C   UNL     1       2.880   8.661  17.553  0.00  0.00    +0.000 A 
ATOM     21  N   UNL     1       2.321   8.108  18.671  0.00  0.00    +0.000 N 
ATOM     22  C   UNL     1       2.437   6.862  19.316  0.00  0.00    +0.000 A 
ENDROOT
TORSDOF 0
ENDMDL
MODEL 9
REMARK VINA RESULT:      -6.0      2.968      6.599
REMARK  Name = 
REMARK  2 active torsions:
REMARK  status: ('A' for Active; 'I' for Inactive)
REMARK    1  A    between atoms: C_1  and  C_2
REMARK    2  A    between atoms: N_13  and  C_14
REMARK                            x       y       z     vdW  Elec       q    Type
REMARK                         _______ _______ _______ _____ _____    ______ ____
ROOT
ATOM      1  C   UNL     1      -0.256   8.787  21.799  0.00  0.00    +0.000 C 
ATOM      2  C   UNL     1       0.407   9.224  20.525  0.00  0.00    +0.000 A 
ATOM      3  C   UNL     1       0.120  10.480  19.955  0.00  0.00    +0.000 A 
ATOM      4 BR   UNL     1      -1.111  11.728  20.686  0.00  0.00    +0.000 Br
ATOM      5  C   UNL     1       0.759  10.860  18.778  0.00  0.00    +0.000 A 
ATOM      6  N   UNL     1       1.664  10.103  18.128  0.00  0.00    +0.000 NA
ATOM      7  C   UNL     1       1.950   8.900  18.656  0.00  0.00    +0.000 A 
ATOM      8  N   UNL     1       2.901   8.197  17.899  0.00  0.00    +0.000 NA
ATOM      9  C   UNL     1       3.232   6.978  18.223  0.00  0.00    +0.000 A 
ATOM     10  N   UNL     1       4.155   6.283  17.458  0.00  0.00    +0.000 N 
ATOM     11  C   UNL     1       3.744   5.028  16.809  0.00  0.00    +0.000 C 
ATOM     12  C   UNL     1       4.973   4.130  16.576  0.00  0.00    +0.000 C 
ATOM     13  N   UNL     1       6.013   4.811  15.771  0.00  0.00    +0.000 NA
ATOM     14  C   UNL     1       7.179   3.946  15.611  0.00  0.00    +0.000 C 
ATOM     15  C   UNL     1       6.388   6.084  16.431  0.00  0.00    +0.000 C 
ATOM     16  C   UNL     1       5.168   7.006  16.675  0.00  0.00    +0.000 C 
ATOM     17  C   UNL     1       2.631   6.412  19.410  0.00  0.00    +0.000 A 
ATOM     18  N   UNL     1       2.856   5.225  19.928  0.00  0.00    +0.000 NA
ATOM     19  N   UNL     1       2.116   5.139  21.081  0.00  0.00    +0.000 NA
ATOM     20  C   UNL     1       1.472   6.278  21.228  0.00  0.00    +0.000 A 
ATOM     21  N   UNL     1       1.756   7.119  20.189  0.00  0.00    +0.000 N 
ATOM     22  C   UNL     1       1.345   8.419  19.835  0.00  0.00    +0.000 A 
ENDROOT
TORSDOF 0
ENDMDL
