MODEL 1
REMARK VINA RESULT:      -7.9      0.000      0.000
REMARK  Name = 
REMARK  3 active torsions:
REMARK  status: ('A' for Active; 'I' for Inactive)
REMARK    1  A    between atoms: O_1  and  C_2
REMARK    2  A    between atoms: C_5  and  C_6
REMARK    3  A    between atoms: C_12  and  C_13
REMARK                            x       y       z     vdW  Elec       q    Type
REMARK                         _______ _______ _______ _____ _____    ______ ____
ROOT
ATOM      1  C   UNL     1       3.976   3.261  17.753  0.00  0.00    +0.000 A 
ATOM      2  N   UNL     1       3.705   1.946  17.800  0.00  0.00    +0.000 NA
ATOM      3  N   UNL     1       2.720   1.840  18.708  0.00  0.00    +0.000 N 
ATOM      4  C   UNL     1       2.310   3.031  19.240  0.00  0.00    +0.000 A 
ATOM      5  C   UNL     1       1.341   3.346  20.198  0.00  0.00    +0.000 A 
ATOM      6  C   UNL     1       1.182   4.702  20.526  0.00  0.00    +0.000 A 
ATOM      7  C   UNL     1       1.929   5.706  19.897  0.00  0.00    +0.000 A 
ATOM      8  C   UNL     1       2.878   5.347  18.929  0.00  0.00    +0.000 A 
ATOM      9  C   UNL     1       3.095   3.989  18.613  0.00  0.00    +0.000 A 
ATOM     10  H   UNL     1       2.363   0.915  18.922  0.00  0.00    +0.000 HD
ENDROOT
BRANCH   1  14
ATOM     11  C   UNL     1       6.982   4.963  15.247  0.00  0.00    +0.000 A 
ATOM     12  C   UNL     1       5.868   4.361  14.671  0.00  0.00    +0.000 A 
ATOM     13  C   UNL     1       4.894   3.781  15.495  0.00  0.00    +0.000 A 
ATOM     14  C   UNL     1       5.033   3.802  16.889  0.00  0.00    +0.000 A 
ATOM     15  C   UNL     1       6.191   4.373  17.441  0.00  0.00    +0.000 A 
ATOM     16  C   UNL     1       7.152   4.970  16.624  0.00  0.00    +0.000 A 
BRANCH  11  17
ATOM     17  O   UNL     1       7.945   5.560  14.492  0.00  0.00    +0.000 OA
ATOM     18  H   UNL     1       7.525   6.229  13.927  0.00  0.00    +0.000 HD
ENDBRANCH  11  17
ENDBRANCH   1  14
BRANCH   7  19
ATOM     19  C   UNL     1       1.751   7.107  20.269  0.00  0.00    +0.000 A 
ATOM     20  N   UNL     1       1.763   8.162  19.476  0.00  0.00    +0.000 NA
ATOM     21  C   UNL     1       1.474   9.200  20.315  0.00  0.00    +0.000 A 
ATOM     22  N   UNL     1       1.317   8.869  21.598  0.00  0.00    +0.000 NA
ATOM     23  N   UNL     1       1.515   7.544  21.549  0.00  0.00    +0.000 N 
ATOM     24  H   UNL     1       1.471   7.003  22.405  0.00  0.00    +0.000 HD
ENDBRANCH   7  19
TORSDOF 3
ENDMDL
MODEL 2
REMARK VINA RESULT:      -7.9      0.488      1.158
REMARK  Name = 
REMARK  3 active torsions:
REMARK  status: ('A' for Active; 'I' for Inactive)
REMARK    1  A    between atoms: O_1  and  C_2
REMARK    2  A    between atoms: C_5  and  C_6
REMARK    3  A    between atoms: C_12  and  C_13
REMARK                            x       y       z     vdW  Elec       q    Type
REMARK                         _______ _______ _______ _____ _____    ______ ____
ROOT
ATOM      1  C   UNL     1       4.154   3.653  18.055  0.00  0.00    +0.000 A 
ATOM      2  N   UNL     1       3.997   2.332  18.243  0.00  0.00    +0.000 NA
ATOM      3  N   UNL     1       3.068   2.241  19.211  0.00  0.00    +0.000 N 
ATOM      4  C   UNL     1       2.587   3.444  19.648  0.00  0.00    +0.000 A 
ATOM      5  C   UNL     1       1.643   3.776  20.625  0.00  0.00    +0.000 A 
ATOM      6  C   UNL     1       1.386   5.142  20.829  0.00  0.00    +0.000 A 
ATOM      7  C   UNL     1       2.016   6.133  20.065  0.00  0.00    +0.000 A 
ATOM      8  C   UNL     1       2.944   5.754  19.084  0.00  0.00    +0.000 A 
ATOM      9  C   UNL     1       3.257   4.393  18.888  0.00  0.00    +0.000 A 
ATOM     10  H   UNL     1       2.801   1.317  19.533  0.00  0.00    +0.000 HD
ENDROOT
BRANCH   1  14
ATOM     11  C   UNL     1       7.026   5.077  15.238  0.00  0.00    +0.000 A 
ATOM     12  C   UNL     1       7.230   5.295  16.597  0.00  0.00    +0.000 A 
ATOM     13  C   UNL     1       6.275   4.848  17.518  0.00  0.00    +0.000 A 
ATOM     14  C   UNL     1       5.118   4.186  17.084  0.00  0.00    +0.000 A 
ATOM     15  C   UNL     1       4.915   4.024  15.705  0.00  0.00    +0.000 A 
ATOM     16  C   UNL     1       5.875   4.448  14.785  0.00  0.00    +0.000 A 
BRANCH  11  17
ATOM     17  O   UNL     1       7.935   5.471  14.304  0.00  0.00    +0.000 OA
ATOM     18  H   UNL     1       7.591   5.251  13.424  0.00  0.00    +0.000 HD
ENDBRANCH  11  17
ENDBRANCH   1  14
BRANCH   7  19
ATOM     19  C   UNL     1       1.739   7.547  20.310  0.00  0.00    +0.000 A 
ATOM     20  N   UNL     1       1.616   8.512  19.419  0.00  0.00    +0.000 NA
ATOM     21  C   UNL     1       1.287   9.604  20.170  0.00  0.00    +0.000 A 
ATOM     22  N   UNL     1       1.231   9.394  21.486  0.00  0.00    +0.000 NA
ATOM     23  N   UNL     1       1.538   8.091  21.554  0.00  0.00    +0.000 N 
ATOM     24  H   UNL     1       1.589   7.639  22.459  0.00  0.00    +0.000 HD
ENDBRANCH   7  19
TORSDOF 3
ENDMDL
MODEL 3
REMARK VINA RESULT:      -7.9      1.139      1.266
REMARK  Name = 
REMARK  3 active torsions:
REMARK  status: ('A' for Active; 'I' for Inactive)
REMARK    1  A    between atoms: O_1  and  C_2
REMARK    2  A    between atoms: C_5  and  C_6
REMARK    3  A    between atoms: C_12  and  C_13
REMARK                            x       y       z     vdW  Elec       q    Type
REMARK                         _______ _______ _______ _____ _____    ______ ____
ROOT
ATOM      1  C   UNL     1       4.417   3.982  18.438  0.00  0.00    +0.000 A 
ATOM      2  N   UNL     1       4.384   2.776  19.030  0.00  0.00    +0.000 NA
ATOM      3  N   UNL     1       3.497   2.919  20.030  0.00  0.00    +0.000 N 
ATOM      4  C   UNL     1       2.923   4.158  20.104  0.00  0.00    +0.000 A 
ATOM      5  C   UNL     1       1.982   4.703  20.984  0.00  0.00    +0.000 A 
ATOM      6  C   UNL     1       1.611   6.042  20.775  0.00  0.00    +0.000 A 
ATOM      7  C   UNL     1       2.127   6.792  19.711  0.00  0.00    +0.000 A 
ATOM      8  C   UNL     1       3.055   6.200  18.842  0.00  0.00    +0.000 A 
ATOM      9  C   UNL     1       3.483   4.873  19.055  0.00  0.00    +0.000 A 
ATOM     10  H   UNL     1       3.323   2.122  20.633  0.00  0.00    +0.000 HD
ENDROOT
BRANCH   1  14
ATOM     11  C   UNL     1       6.946   4.929  15.134  0.00  0.00    +0.000 A 
ATOM     12  C   UNL     1       5.640   4.508  14.901  0.00  0.00    +0.000 A 
ATOM     13  C   UNL     1       4.820   4.174  15.985  0.00  0.00    +0.000 A 
ATOM     14  C   UNL     1       5.301   4.260  17.299  0.00  0.00    +0.000 A 
ATOM     15  C   UNL     1       6.637   4.640  17.502  0.00  0.00    +0.000 A 
ATOM     16  C   UNL     1       7.451   4.994  16.424  0.00  0.00    +0.000 A 
BRANCH  11  17
ATOM     17  O   UNL     1       7.776   5.286  14.115  0.00  0.00    +0.000 OA
ATOM     18  H   UNL     1       8.225   4.490  13.788  0.00  0.00    +0.000 HD
ENDBRANCH  11  17
ENDBRANCH   1  14
BRANCH   7  19
ATOM     19  C   UNL     1       1.732   8.187  19.527  0.00  0.00    +0.000 A 
ATOM     20  N   UNL     1       1.845   8.922  18.437  0.00  0.00    +0.000 NA
ATOM     21  C   UNL     1       1.261  10.106  18.784  0.00  0.00    +0.000 A 
ATOM     22  N   UNL     1       0.820  10.177  20.041  0.00  0.00    +0.000 NA
ATOM     23  N   UNL     1       1.145   8.960  20.498  0.00  0.00    +0.000 N 
ATOM     24  H   UNL     1       0.939   8.718  21.461  0.00  0.00    +0.000 HD
ENDBRANCH   7  19
TORSDOF 3
ENDMDL
MODEL 4
REMARK VINA RESULT:      -7.7      3.331      6.384
REMARK  Name = 
REMARK  3 active torsions:
REMARK  status: ('A' for Active; 'I' for Inactive)
REMARK    1  A    between atoms: O_1  and  C_2
REMARK    2  A    between atoms: C_5  and  C_6
REMARK    3  A    between atoms: C_12  and  C_13
REMARK                            x       y       z     vdW  Elec       q    Type
REMARK                         _______ _______ _______ _____ _____    ______ ____
ROOT
ATOM      1  C   UNL     1       2.473   6.357  19.688  0.00  0.00    +0.000 A 
ATOM      2  N   UNL     1       1.970   5.702  20.748  0.00  0.00    +0.000 NA
ATOM      3  N   UNL     1       2.564   4.496  20.707  0.00  0.00    +0.000 N 
ATOM      4  C   UNL     1       3.457   4.339  19.684  0.00  0.00    +0.000 A 
ATOM      5  C   UNL     1       4.257   3.259  19.296  0.00  0.00    +0.000 A 
ATOM      6  C   UNL     1       5.070   3.440  18.165  0.00  0.00    +0.000 A 
ATOM      7  C   UNL     1       5.113   4.657  17.474  0.00  0.00    +0.000 A 
ATOM      8  C   UNL     1       4.307   5.719  17.908  0.00  0.00    +0.000 A 
ATOM      9  C   UNL     1       3.444   5.553  19.012  0.00  0.00    +0.000 A 
ATOM     10  H   UNL     1       2.315   3.816  21.418  0.00  0.00    +0.000 HD
ENDROOT
BRANCH   1  14
ATOM     11  C   UNL     1       1.122  10.274  18.667  0.00  0.00    +0.000 A 
ATOM     12  C   UNL     1       1.829   9.526  17.732  0.00  0.00    +0.000 A 
ATOM     13  C   UNL     1       2.292   8.250  18.076  0.00  0.00    +0.000 A 
ATOM     14  C   UNL     1       2.052   7.723  19.352  0.00  0.00    +0.000 A 
ATOM     15  C   UNL     1       1.379   8.519  20.293  0.00  0.00    +0.000 A 
ATOM     16  C   UNL     1       0.897   9.782  19.945  0.00  0.00    +0.000 A 
BRANCH  11  17
ATOM     17  O   UNL     1       0.631  11.510  18.374  0.00  0.00    +0.000 OA
ATOM     18  H   UNL     1       0.699  11.651  17.416  0.00  0.00    +0.000 HD
ENDBRANCH  11  17
ENDBRANCH   1  14
BRANCH   7  19
ATOM     19  C   UNL     1       5.959   4.809  16.292  0.00  0.00    +0.000 A 
ATOM     20  N   UNL     1       5.806   4.242  15.111  0.00  0.00    +0.000 NA
ATOM     21  C   UNL     1       6.812   4.780  14.361  0.00  0.00    +0.000 A 
ATOM     22  N   UNL     1       7.615   5.626  15.009  0.00  0.00    +0.000 NA
ATOM     23  N   UNL     1       7.068   5.616  16.233  0.00  0.00    +0.000 N 
ATOM     24  H   UNL     1       7.486   6.173  16.970  0.00  0.00    +0.000 HD
ENDBRANCH   7  19
TORSDOF 3
ENDMDL
MODEL 5
REMARK VINA RESULT:      -7.7      3.270      6.410
REMARK  Name = 
REMARK  3 active torsions:
REMARK  status: ('A' for Active; 'I' for Inactive)
REMARK    1  A    between atoms: O_1  and  C_2
REMARK    2  A    between atoms: C_5  and  C_6
REMARK    3  A    between atoms: C_12  and  C_13
REMARK                            x       y       z     vdW  Elec       q    Type
REMARK                         _______ _______ _______ _____ _____    ______ ____
ROOT
ATOM      1  C   UNL     1       2.348   6.448  19.713  0.00  0.00    +0.000 A 
ATOM      2  N   UNL     1       1.831   5.821  20.782  0.00  0.00    +0.000 NA
ATOM      3  N   UNL     1       2.425   4.614  20.781  0.00  0.00    +0.000 N 
ATOM      4  C   UNL     1       3.331   4.430  19.773  0.00  0.00    +0.000 A 
ATOM      5  C   UNL     1       4.135   3.341  19.424  0.00  0.00    +0.000 A 
ATOM      6  C   UNL     1       4.963   3.492  18.300  0.00  0.00    +0.000 A 
ATOM      7  C   UNL     1       5.016   4.690  17.578  0.00  0.00    +0.000 A 
ATOM      8  C   UNL     1       4.205   5.764  17.973  0.00  0.00    +0.000 A 
ATOM      9  C   UNL     1       3.327   5.627  19.070  0.00  0.00    +0.000 A 
ATOM     10  H   UNL     1       2.166   3.953  21.505  0.00  0.00    +0.000 HD
ENDROOT
BRANCH   1  14
ATOM     11  C   UNL     1       1.266  10.440  18.662  0.00  0.00    +0.000 A 
ATOM     12  C   UNL     1       0.952   9.954  19.927  0.00  0.00    +0.000 A 
ATOM     13  C   UNL     1       1.286   8.636  20.262  0.00  0.00    +0.000 A 
ATOM     14  C   UNL     1       1.932   7.805  19.336  0.00  0.00    +0.000 A 
ATOM     15  C   UNL     1       2.192   8.306  18.050  0.00  0.00    +0.000 A 
ATOM     16  C   UNL     1       1.880   9.626  17.721  0.00  0.00    +0.000 A 
BRANCH  11  17
ATOM     17  O   UNL     1       0.983  11.721  18.295  0.00  0.00    +0.000 OA
ATOM     18  H   UNL     1       0.139  11.979  18.700  0.00  0.00    +0.000 HD
ENDBRANCH  11  17
ENDBRANCH   1  14
BRANCH   7  19
ATOM     19  C   UNL     1       5.877   4.812  16.403  0.00  0.00    +0.000 A 
ATOM     20  N   UNL     1       5.661   4.338  15.191  0.00  0.00    +0.000 NA
ATOM     21  C   UNL     1       6.727   4.798  14.471  0.00  0.00    +0.000 A 
ATOM     22  N   UNL     1       7.622   5.502  15.165  0.00  0.00    +0.000 NA
ATOM     23  N   UNL     1       7.075   5.483  16.388  0.00  0.00    +0.000 N 
ATOM     24  H   UNL     1       7.553   5.941  17.155  0.00  0.00    +0.000 HD
ENDBRANCH   7  19
TORSDOF 3
ENDMDL
MODEL 6
REMARK VINA RESULT:      -7.6      1.010      1.692
REMARK  Name = 
REMARK  3 active torsions:
REMARK  status: ('A' for Active; 'I' for Inactive)
REMARK    1  A    between atoms: O_1  and  C_2
REMARK    2  A    between atoms: C_5  and  C_6
REMARK    3  A    between atoms: C_12  and  C_13
REMARK                            x       y       z     vdW  Elec       q    Type
REMARK                         _______ _______ _______ _____ _____    ______ ____
ROOT
ATOM      1  C   UNL     1       4.388   3.939  18.461  0.00  0.00    +0.000 A 
ATOM      2  N   UNL     1       4.387   2.687  18.949  0.00  0.00    +0.000 NA
ATOM      3  N   UNL     1       3.500   2.724  19.959  0.00  0.00    +0.000 N 
ATOM      4  C   UNL     1       2.897   3.938  20.140  0.00  0.00    +0.000 A 
ATOM      5  C   UNL     1       1.948   4.384  21.064  0.00  0.00    +0.000 A 
ATOM      6  C   UNL     1       1.544   5.726  20.970  0.00  0.00    +0.000 A 
ATOM      7  C   UNL     1       2.037   6.576  19.972  0.00  0.00    +0.000 A 
ATOM      8  C   UNL     1       2.976   6.082  19.055  0.00  0.00    +0.000 A 
ATOM      9  C   UNL     1       3.436   4.752  19.153  0.00  0.00    +0.000 A 
ATOM     10  H   UNL     1       3.348   1.874  20.493  0.00  0.00    +0.000 HD
ENDROOT
BRANCH   1  14
ATOM     11  C   UNL     1       6.962   4.949  15.210  0.00  0.00    +0.000 A 
ATOM     12  C   UNL     1       7.447   5.004  16.513  0.00  0.00    +0.000 A 
ATOM     13  C   UNL     1       6.594   4.696  17.580  0.00  0.00    +0.000 A 
ATOM     14  C   UNL     1       5.260   4.334  17.348  0.00  0.00    +0.000 A 
ATOM     15  C   UNL     1       4.784   4.335  16.027  0.00  0.00    +0.000 A 
ATOM     16  C   UNL     1       5.637   4.620  14.960  0.00  0.00    +0.000 A 
BRANCH  11  17
ATOM     17  O   UNL     1       7.756   5.218  14.137  0.00  0.00    +0.000 OA
ATOM     18  H   UNL     1       7.901   6.177  14.092  0.00  0.00    +0.000 HD
ENDBRANCH  11  17
ENDBRANCH   1  14
BRANCH   7  19
ATOM     19  C   UNL     1       1.609   7.972  19.908  0.00  0.00    +0.000 A 
ATOM     20  N   UNL     1       1.093   8.703  20.878  0.00  0.00    +0.000 NA
ATOM     21  C   UNL     1       0.950   9.937  20.309  0.00  0.00    +0.000 A 
ATOM     22  N   UNL     1       1.310  10.019  19.027  0.00  0.00    +0.000 NA
ATOM     23  N   UNL     1       1.706   8.760  18.789  0.00  0.00    +0.000 N 
ATOM     24  H   UNL     1       2.031   8.508  17.863  0.00  0.00    +0.000 HD
ENDBRANCH   7  19
TORSDOF 3
ENDMDL
MODEL 7
REMARK VINA RESULT:      -7.4      3.728      7.458
REMARK  Name = 
REMARK  3 active torsions:
REMARK  status: ('A' for Active; 'I' for Inactive)
REMARK    1  A    between atoms: O_1  and  C_2
REMARK    2  A    between atoms: C_5  and  C_6
REMARK    3  A    between atoms: C_12  and  C_13
REMARK                            x       y       z     vdW  Elec       q    Type
REMARK                         _______ _______ _______ _____ _____    ______ ____
ROOT
ATOM      1  C   UNL     1       4.888   4.712  17.949  0.00  0.00    +0.000 A 
ATOM      2  N   UNL     1       5.666   5.455  18.753  0.00  0.00    +0.000 NA
ATOM      3  N   UNL     1       6.719   5.786  17.985  0.00  0.00    +0.000 N 
ATOM      4  C   UNL     1       6.654   5.318  16.702  0.00  0.00    +0.000 A 
ATOM      5  C   UNL     1       7.529   5.431  15.618  0.00  0.00    +0.000 A 
ATOM      6  C   UNL     1       7.147   4.806  14.419  0.00  0.00    +0.000 A 
ATOM      7  C   UNL     1       5.928   4.129  14.296  0.00  0.00    +0.000 A 
ATOM      8  C   UNL     1       5.072   4.054  15.404  0.00  0.00    +0.000 A 
ATOM      9  C   UNL     1       5.449   4.632  16.635  0.00  0.00    +0.000 A 
ATOM     10  H   UNL     1       7.458   6.344  18.401  0.00  0.00    +0.000 HD
ENDROOT
BRANCH   1  14
ATOM     11  C   UNL     1       1.220   3.097  19.416  0.00  0.00    +0.000 A 
ATOM     12  C   UNL     1       2.423   2.704  19.993  0.00  0.00    +0.000 A 
ATOM     13  C   UNL     1       3.627   3.216  19.495  0.00  0.00    +0.000 A 
ATOM     14  C   UNL     1       3.631   4.118  18.422  0.00  0.00    +0.000 A 
ATOM     15  C   UNL     1       2.406   4.459  17.827  0.00  0.00    +0.000 A 
ATOM     16  C   UNL     1       1.203   3.967  18.335  0.00  0.00    +0.000 A 
BRANCH  11  17
ATOM     17  O   UNL     1       0.021   2.645  19.878  0.00  0.00    +0.000 OA
ATOM     18  H   UNL     1      -0.018   1.684  19.750  0.00  0.00    +0.000 HD
ENDBRANCH  11  17
ENDBRANCH   1  14
BRANCH   7  19
ATOM     19  C   UNL     1       5.565   3.476  13.040  0.00  0.00    +0.000 A 
ATOM     20  N   UNL     1       4.459   3.635  12.337  0.00  0.00    +0.000 NA
ATOM     21  C   UNL     1       4.667   2.861  11.232  0.00  0.00    +0.000 A 
ATOM     22  N   UNL     1       5.821   2.193  11.212  0.00  0.00    +0.000 NA
ATOM     23  N   UNL     1       6.365   2.582  12.373  0.00  0.00    +0.000 N 
ATOM     24  H   UNL     1       7.269   2.215  12.647  0.00  0.00    +0.000 HD
ENDBRANCH   7  19
TORSDOF 3
ENDMDL
MODEL 8
REMARK VINA RESULT:      -7.1      3.684      7.422
REMARK  Name = 
REMARK  3 active torsions:
REMARK  status: ('A' for Active; 'I' for Inactive)
REMARK    1  A    between atoms: O_1  and  C_2
REMARK    2  A    between atoms: C_5  and  C_6
REMARK    3  A    between atoms: C_12  and  C_13
REMARK                            x       y       z     vdW  Elec       q    Type
REMARK                         _______ _______ _______ _____ _____    ______ ____
ROOT
ATOM      1  C   UNL     1       4.859   4.731  17.881  0.00  0.00    +0.000 A 
ATOM      2  N   UNL     1       5.599   5.499  18.698  0.00  0.00    +0.000 NA
ATOM      3  N   UNL     1       6.656   5.859  17.951  0.00  0.00    +0.000 N 
ATOM      4  C   UNL     1       6.632   5.384  16.668  0.00  0.00    +0.000 A 
ATOM      5  C   UNL     1       7.525   5.520  15.602  0.00  0.00    +0.000 A 
ATOM      6  C   UNL     1       7.187   4.880  14.398  0.00  0.00    +0.000 A 
ATOM      7  C   UNL     1       5.991   4.167  14.253  0.00  0.00    +0.000 A 
ATOM      8  C   UNL     1       5.115   4.071  15.344  0.00  0.00    +0.000 A 
ATOM      9  C   UNL     1       5.449   4.663  16.580  0.00  0.00    +0.000 A 
ATOM     10  H   UNL     1       7.370   6.439  18.379  0.00  0.00    +0.000 HD
ENDROOT
BRANCH   1  14
ATOM     11  C   UNL     1       1.173   2.932  19.061  0.00  0.00    +0.000 A 
ATOM     12  C   UNL     1       1.395   4.279  19.325  0.00  0.00    +0.000 A 
ATOM     13  C   UNL     1       2.615   4.862  18.959  0.00  0.00    +0.000 A 
ATOM     14  C   UNL     1       3.611   4.102  18.331  0.00  0.00    +0.000 A 
ATOM     15  C   UNL     1       3.379   2.733  18.122  0.00  0.00    +0.000 A 
ATOM     16  C   UNL     1       2.157   2.154  18.465  0.00  0.00    +0.000 A 
BRANCH  11  17
ATOM     17  O   UNL     1      -0.003   2.324  19.376  0.00  0.00    +0.000 OA
ATOM     18  H   UNL     1       0.183   1.575  19.965  0.00  0.00    +0.000 HD
ENDBRANCH  11  17
ENDBRANCH   1  14
BRANCH   7  19
ATOM     19  C   UNL     1       5.673   3.500  12.992  0.00  0.00    +0.000 A 
ATOM     20  N   UNL     1       6.437   2.678  12.298  0.00  0.00    +0.000 NA
ATOM     21  C   UNL     1       5.636   2.289  11.263  0.00  0.00    +0.000 A 
ATOM     22  N   UNL     1       4.424   2.845  11.241  0.00  0.00    +0.000 NA
ATOM     23  N   UNL     1       4.475   3.621  12.333  0.00  0.00    +0.000 N 
ATOM     24  H   UNL     1       3.675   4.194  12.574  0.00  0.00    +0.000 HD
ENDBRANCH   7  19
TORSDOF 3
ENDMDL
MODEL 9
REMARK VINA RESULT:      -7.1      4.004      7.510
REMARK  Name = 
REMARK  3 active torsions:
REMARK  status: ('A' for Active; 'I' for Inactive)
REMARK    1  A    between atoms: O_1  and  C_2
REMARK    2  A    between atoms: C_5  and  C_6
REMARK    3  A    between atoms: C_12  and  C_13
REMARK                            x       y       z     vdW  Elec       q    Type
REMARK                         _______ _______ _______ _____ _____    ______ ____
ROOT
ATOM      1  C   UNL     1       1.613   8.878  19.308  0.00  0.00    +0.000 A 
ATOM      2  N   UNL     1       1.921   9.609  18.224  0.00  0.00    +0.000 NA
ATOM      3  N   UNL     1       2.673   8.788  17.471  0.00  0.00    +0.000 N 
ATOM      4  C   UNL     1       2.850   7.539  17.998  0.00  0.00    +0.000 A 
ATOM      5  C   UNL     1       3.556   6.422  17.542  0.00  0.00    +0.000 A 
ATOM      6  C   UNL     1       3.536   5.277  18.356  0.00  0.00    +0.000 A 
ATOM      7  C   UNL     1       2.811   5.235  19.553  0.00  0.00    +0.000 A 
ATOM      8  C   UNL     1       2.102   6.374  19.963  0.00  0.00    +0.000 A 
ATOM      9  C   UNL     1       2.142   7.554  19.192  0.00  0.00    +0.000 A 
ATOM     10  H   UNL     1       3.039   9.145  16.594  0.00  0.00    +0.000 HD
ENDROOT
BRANCH   1  14
ATOM     11  C   UNL     1      -0.606  10.571  22.536  0.00  0.00    +0.000 A 
ATOM     12  C   UNL     1       0.242   9.495  22.776  0.00  0.00    +0.000 A 
ATOM     13  C   UNL     1       0.951   8.925  21.711  0.00  0.00    +0.000 A 
ATOM     14  C   UNL     1       0.814   9.428  20.410  0.00  0.00    +0.000 A 
ATOM     15  C   UNL     1      -0.087  10.482  20.189  0.00  0.00    +0.000 A 
ATOM     16  C   UNL     1      -0.779  11.066  21.251  0.00  0.00    +0.000 A 
BRANCH  11  17
ATOM     17  O   UNL     1      -1.301  11.175  23.540  0.00  0.00    +0.000 OA
ATOM     18  H   UNL     1      -2.122  11.539  23.173  0.00  0.00    +0.000 HD
ENDBRANCH  11  17
ENDBRANCH   1  14
BRANCH   7  19
ATOM     19  C   UNL     1       2.821   4.034  20.385  0.00  0.00    +0.000 A 
ATOM     20  N   UNL     1       3.495   2.918  20.185  0.00  0.00    +0.000 NA
ATOM     21  C   UNL     1       3.208   2.165  21.287  0.00  0.00    +0.000 A 
ATOM     22  N   UNL     1       2.362   2.724  22.154  0.00  0.00    +0.000 NA
ATOM     23  N   UNL     1       2.115   3.898  21.555  0.00  0.00    +0.000 N 
ATOM     24  H   UNL     1       1.474   4.552  21.987  0.00  0.00    +0.000 HD
ENDBRANCH   7  19
TORSDOF 3
ENDMDL
