MODEL 1
REMARK VINA RESULT:      -9.7      0.000      0.000
REMARK  Name = 
REMARK  8 active torsions:
REMARK  status: ('A' for Active; 'I' for Inactive)
REMARK    1  A    between atoms: C_1  and  C_2
REMARK    2  A    between atoms: C_2  and  C_3
REMARK    3  A    between atoms: C_3  and  C_4
REMARK    4  A    between atoms: C_4  and  C_5
REMARK    5  A    between atoms: N_14  and  C_15
REMARK    6  A    between atoms: C_15  and  C_16
REMARK    7  A    between atoms: C_19  and  C_20
REMARK    8  A    between atoms: C_25  and  C_26
REMARK                            x       y       z     vdW  Elec       q    Type
REMARK                         _______ _______ _______ _____ _____    ______ ____
ROOT
ATOM      1  C   UNL     1       0.980   9.141  20.124  0.00  0.00    +0.000 A 
ATOM      2  C   UNL     1       1.492   8.011  20.764  0.00  0.00    +0.000 A 
ATOM      3  C   UNL     1       2.227   7.058  20.048  0.00  0.00    +0.000 A 
ATOM      4  C   UNL     1       2.574   7.235  18.699  0.00  0.00    +0.000 A 
ATOM      5  C   UNL     1       2.062   8.388  18.074  0.00  0.00    +0.000 A 
ATOM      6  C   UNL     1       1.272   9.319  18.768  0.00  0.00    +0.000 A 
ENDROOT
BRANCH   4   7
ATOM      7  C   UNL     1       3.413   6.246  17.954  0.00  0.00    +0.000 A 
ATOM      8  C   UNL     1       4.355   6.732  17.012  0.00  0.00    +0.000 A 
ATOM      9  C   UNL     1       5.141   5.882  16.228  0.00  0.00    +0.000 A 
ATOM     10  C   UNL     1       5.002   4.508  16.343  0.00  0.00    +0.000 A 
ATOM     11  C   UNL     1       4.094   3.986  17.261  0.00  0.00    +0.000 A 
ATOM     12  C   UNL     1       3.316   4.833  18.077  0.00  0.00    +0.000 A 
BRANCH  12  13
ATOM     13  C   UNL     1       2.412   4.157  19.039  0.00  0.00    +0.000 C 
ATOM     14  N   UNL     1       1.216   3.740  18.778  0.00  0.00    +0.000 NA
ATOM     15  O   UNL     1       0.750   3.004  19.909  0.00  0.00    +0.000 OA
ATOM     16  C   UNL     1       1.721   2.990  20.879  0.00  0.00    +0.000 C 
ATOM     17  O   UNL     1       1.666   2.383  21.937  0.00  0.00    +0.000 OA
ATOM     18  C   UNL     1       2.834   3.869  20.434  0.00  0.00    +0.000 C 
ENDBRANCH  12  13
ENDBRANCH   4   7
BRANCH   1  19
ATOM     19  C   UNL     1       0.080  10.107  20.856  0.00  0.00    +0.000 C 
BRANCH  19  29
ATOM     20  C   UNL     1      -0.901  11.758  19.213  0.00  0.00    +0.000 C 
ATOM     21  N   UNL     1      -0.792  12.979  18.781  0.00  0.00    +0.000 NA
ATOM     22  C   UNL     1       0.373  13.545  19.495  0.00  0.00    +0.000 C 
ATOM     23  C   UNL     1      -0.002  14.843  20.196  0.00  0.00    +0.000 C 
ATOM     24  C   UNL     1       1.189  15.757  19.941  0.00  0.00    +0.000 C 
ATOM     25  C   UNL     1       1.598  15.402  18.521  0.00  0.00    +0.000 C 
ATOM     26  C   UNL     1       1.473  13.883  18.476  0.00  0.00    +0.000 C 
ATOM     27  C   UNL     1       0.781  12.432  20.453  0.00  0.00    +0.000 C 
ATOM     28  O   UNL     1       1.715  12.459  21.233  0.00  0.00    +0.000 OA
ATOM     29  N   UNL     1      -0.068  11.397  20.199  0.00  0.00    +0.000 N 
BRANCH  20  30
ATOM     30  C   UNL     1      -1.937  10.828  18.624  0.00  0.00    +0.000 C 
BRANCH  30  31
ATOM     31  C   UNL     1      -2.085  11.101  17.128  0.00  0.00    +0.000 C 
BRANCH  31  33
ATOM     32  C   UNL     1      -2.876  10.281  14.907  0.00  0.00    +0.000 C 
ATOM     33  C   UNL     1      -2.624   9.902  16.359  0.00  0.00    +0.000 C 
ENDBRANCH  31  33
ENDBRANCH  30  31
ENDBRANCH  20  30
ENDBRANCH  19  29
ENDBRANCH   1  19
TORSDOF 7
ENDMDL
MODEL 2
REMARK VINA RESULT:      -9.6      2.562      3.620
REMARK  Name = 
REMARK  8 active torsions:
REMARK  status: ('A' for Active; 'I' for Inactive)
REMARK    1  A    between atoms: C_1  and  C_2
REMARK    2  A    between atoms: C_2  and  C_3
REMARK    3  A    between atoms: C_3  and  C_4
REMARK    4  A    between atoms: C_4  and  C_5
REMARK    5  A    between atoms: N_14  and  C_15
REMARK    6  A    between atoms: C_15  and  C_16
REMARK    7  A    between atoms: C_19  and  C_20
REMARK    8  A    between atoms: C_25  and  C_26
REMARK                            x       y       z     vdW  Elec       q    Type
REMARK                         _______ _______ _______ _____ _____    ______ ____
ROOT
ATOM      1  C   UNL     1       1.867   9.177  18.790  0.00  0.00    +0.000 A 
ATOM      2  C   UNL     1       1.752   8.457  19.980  0.00  0.00    +0.000 A 
ATOM      3  C   UNL     1       1.908   7.065  19.989  0.00  0.00    +0.000 A 
ATOM      4  C   UNL     1       2.287   6.345  18.845  0.00  0.00    +0.000 A 
ATOM      5  C   UNL     1       2.413   7.089  17.657  0.00  0.00    +0.000 A 
ATOM      6  C   UNL     1       2.199   8.477  17.626  0.00  0.00    +0.000 A 
ENDROOT
BRANCH   4   7
ATOM      7  C   UNL     1       2.515   4.867  18.871  0.00  0.00    +0.000 A 
ATOM      8  C   UNL     1       1.415   4.018  19.151  0.00  0.00    +0.000 A 
ATOM      9  C   UNL     1       1.545   2.628  19.253  0.00  0.00    +0.000 A 
ATOM     10  C   UNL     1       2.788   2.035  19.097  0.00  0.00    +0.000 A 
ATOM     11  C   UNL     1       3.896   2.830  18.814  0.00  0.00    +0.000 A 
ATOM     12  C   UNL     1       3.771   4.229  18.680  0.00  0.00    +0.000 A 
BRANCH  12  13
ATOM     13  C   UNL     1       5.017   4.961  18.343  0.00  0.00    +0.000 C 
ATOM     14  N   UNL     1       5.908   5.356  19.192  0.00  0.00    +0.000 NA
ATOM     15  O   UNL     1       7.020   5.868  18.458  0.00  0.00    +0.000 OA
ATOM     16  C   UNL     1       6.767   5.767  17.112  0.00  0.00    +0.000 C 
ATOM     17  O   UNL     1       7.546   6.047  16.215  0.00  0.00    +0.000 OA
ATOM     18  C   UNL     1       5.369   5.293  16.938  0.00  0.00    +0.000 C 
ENDBRANCH  12  13
ENDBRANCH   4   7
BRANCH   1  19
ATOM     19  C   UNL     1       1.574  10.658  18.747  0.00  0.00    +0.000 C 
BRANCH  19  29
ATOM     20  C   UNL     1      -0.920  10.868  19.090  0.00  0.00    +0.000 C 
ATOM     21  N   UNL     1      -1.818  11.357  19.894  0.00  0.00    +0.000 NA
ATOM     22  C   UNL     1      -1.060  12.090  20.930  0.00  0.00    +0.000 C 
ATOM     23  C   UNL     1      -1.453  11.617  22.323  0.00  0.00    +0.000 C 
ATOM     24  C   UNL     1      -1.537  12.901  23.138  0.00  0.00    +0.000 C 
ATOM     25  C   UNL     1      -2.127  13.896  22.154  0.00  0.00    +0.000 C 
ATOM     26  C   UNL     1      -1.408  13.585  20.846  0.00  0.00    +0.000 C 
ATOM     27  C   UNL     1       0.395  11.804  20.579  0.00  0.00    +0.000 C 
ATOM     28  O   UNL     1       1.374  12.227  21.165  0.00  0.00    +0.000 OA
ATOM     29  N   UNL     1       0.360  11.045  19.447  0.00  0.00    +0.000 N 
BRANCH  20  30
ATOM     30  C   UNL     1      -1.335  10.130  17.839  0.00  0.00    +0.000 C 
BRANCH  30  31
ATOM     31  C   UNL     1      -2.852  10.208  17.671  0.00  0.00    +0.000 C 
BRANCH  31  33
ATOM     32  C   UNL     1      -3.111  10.250  15.189  0.00  0.00    +0.000 C 
ATOM     33  C   UNL     1      -3.272  11.050  16.473  0.00  0.00    +0.000 C 
ENDBRANCH  31  33
ENDBRANCH  30  31
ENDBRANCH  20  30
ENDBRANCH  19  29
ENDBRANCH   1  19
TORSDOF 7
ENDMDL
MODEL 3
REMARK VINA RESULT:      -9.5      0.995      1.151
REMARK  Name = 
REMARK  8 active torsions:
REMARK  status: ('A' for Active; 'I' for Inactive)
REMARK    1  A    between atoms: C_1  and  C_2
REMARK    2  A    between atoms: C_2  and  C_3
REMARK    3  A    between atoms: C_3  and  C_4
REMARK    4  A    between atoms: C_4  and  C_5
REMARK    5  A    between atoms: N_14  and  C_15
REMARK    6  A    between atoms: C_15  and  C_16
REMARK    7  A    between atoms: C_19  and  C_20
REMARK    8  A    between atoms: C_25  and  C_26
REMARK                            x       y       z     vdW  Elec       q    Type
REMARK                         _______ _______ _______ _____ _____    ______ ____
ROOT
ATOM      1  C   UNL     1       1.227   8.634  19.858  0.00  0.00    +0.000 A 
ATOM      2  C   UNL     1       1.824   7.488  20.384  0.00  0.00    +0.000 A 
ATOM      3  C   UNL     1       2.649   6.684  19.587  0.00  0.00    +0.000 A 
ATOM      4  C   UNL     1       2.999   7.038  18.274  0.00  0.00    +0.000 A 
ATOM      5  C   UNL     1       2.399   8.205  17.765  0.00  0.00    +0.000 A 
ATOM      6  C   UNL     1       1.523   8.985  18.537  0.00  0.00    +0.000 A 
ENDROOT
BRANCH   4   7
ATOM      7  C   UNL     1       3.932   6.211  17.446  0.00  0.00    +0.000 A 
ATOM      8  C   UNL     1       4.859   6.876  16.604  0.00  0.00    +0.000 A 
ATOM      9  C   UNL     1       5.729   6.187  15.753  0.00  0.00    +0.000 A 
ATOM     10  C   UNL     1       5.692   4.802  15.696  0.00  0.00    +0.000 A 
ATOM     11  C   UNL     1       4.801   4.108  16.511  0.00  0.00    +0.000 A 
ATOM     12  C   UNL     1       3.940   4.790  17.394  0.00  0.00    +0.000 A 
BRANCH  12  13
ATOM     13  C   UNL     1       3.064   3.938  18.234  0.00  0.00    +0.000 C 
ATOM     14  N   UNL     1       3.382   3.439  19.385  0.00  0.00    +0.000 NA
ATOM     15  O   UNL     1       2.217   2.825  19.936  0.00  0.00    +0.000 OA
ATOM     16  C   UNL     1       1.165   2.973  19.066  0.00  0.00    +0.000 C 
ATOM     17  O   UNL     1       0.012   2.628  19.272  0.00  0.00    +0.000 OA
ATOM     18  C   UNL     1       1.680   3.592  17.817  0.00  0.00    +0.000 C 
ENDBRANCH  12  13
ENDBRANCH   4   7
BRANCH   1  19
ATOM     19  C   UNL     1       0.236   9.435  20.668  0.00  0.00    +0.000 C 
BRANCH  19  29
ATOM     20  C   UNL     1      -0.966  11.086  19.181  0.00  0.00    +0.000 C 
ATOM     21  N   UNL     1      -0.997  12.340  18.837  0.00  0.00    +0.000 NA
ATOM     22  C   UNL     1       0.128  12.972  19.558  0.00  0.00    +0.000 C 
ATOM     23  C   UNL     1      -0.353  14.172  20.364  0.00  0.00    +0.000 C 
ATOM     24  C   UNL     1       0.729  15.221  20.144  0.00  0.00    +0.000 C 
ATOM     25  C   UNL     1       1.122  15.012  18.691  0.00  0.00    +0.000 C 
ATOM     26  C   UNL     1       1.151  13.495  18.536  0.00  0.00    +0.000 C 
ATOM     27  C   UNL     1       0.681  11.843  20.420  0.00  0.00    +0.000 C 
ATOM     28  O   UNL     1       1.635  11.913  21.173  0.00  0.00    +0.000 OA
ATOM     29  N   UNL     1      -0.066  10.745  20.114  0.00  0.00    +0.000 N 
BRANCH  20  30
ATOM     30  C   UNL     1      -1.922  10.098  18.554  0.00  0.00    +0.000 C 
BRANCH  30  31
ATOM     31  C   UNL     1      -1.791  10.147  17.031  0.00  0.00    +0.000 C 
BRANCH  31  33
ATOM     32  C   UNL     1      -2.939  10.160  14.815  0.00  0.00    +0.000 C 
ATOM     33  C   UNL     1      -3.139  10.183  16.324  0.00  0.00    +0.000 C 
ENDBRANCH  31  33
ENDBRANCH  30  31
ENDBRANCH  20  30
ENDBRANCH  19  29
ENDBRANCH   1  19
TORSDOF 7
ENDMDL
MODEL 4
REMARK VINA RESULT:      -9.5      0.818      1.196
REMARK  Name = 
REMARK  8 active torsions:
REMARK  status: ('A' for Active; 'I' for Inactive)
REMARK    1  A    between atoms: C_1  and  C_2
REMARK    2  A    between atoms: C_2  and  C_3
REMARK    3  A    between atoms: C_3  and  C_4
REMARK    4  A    between atoms: C_4  and  C_5
REMARK    5  A    between atoms: N_14  and  C_15
REMARK    6  A    between atoms: C_15  and  C_16
REMARK    7  A    between atoms: C_19  and  C_20
REMARK    8  A    between atoms: C_25  and  C_26
REMARK                            x       y       z     vdW  Elec       q    Type
REMARK                         _______ _______ _______ _____ _____    ______ ____
ROOT
ATOM      1  C   UNL     1       1.039   8.843  19.871  0.00  0.00    +0.000 A 
ATOM      2  C   UNL     1       1.403   9.184  18.567  0.00  0.00    +0.000 A 
ATOM      3  C   UNL     1       2.355   8.427  17.871  0.00  0.00    +0.000 A 
ATOM      4  C   UNL     1       2.904   7.246  18.396  0.00  0.00    +0.000 A 
ATOM      5  C   UNL     1       2.514   6.909  19.706  0.00  0.00    +0.000 A 
ATOM      6  C   UNL     1       1.606   7.695  20.434  0.00  0.00    +0.000 A 
ENDROOT
BRANCH   4   7
ATOM      7  C   UNL     1       3.872   6.405  17.625  0.00  0.00    +0.000 A 
ATOM      8  C   UNL     1       5.004   7.033  17.050  0.00  0.00    +0.000 A 
ATOM      9  C   UNL     1       5.932   6.339  16.265  0.00  0.00    +0.000 A 
ATOM     10  C   UNL     1       5.750   4.989  16.011  0.00  0.00    +0.000 A 
ATOM     11  C   UNL     1       4.655   4.329  16.562  0.00  0.00    +0.000 A 
ATOM     12  C   UNL     1       3.730   5.012  17.378  0.00  0.00    +0.000 A 
BRANCH  12  13
ATOM     13  C   UNL     1       2.626   4.192  17.935  0.00  0.00    +0.000 C 
ATOM     14  N   UNL     1       1.456   4.047  17.402  0.00  0.00    +0.000 NA
ATOM     15  O   UNL     1       0.751   3.057  18.151  0.00  0.00    +0.000 OA
ATOM     16  C   UNL     1       1.547   2.601  19.172  0.00  0.00    +0.000 C 
ATOM     17  O   UNL     1       1.269   1.700  19.947  0.00  0.00    +0.000 OA
ATOM     18  C   UNL     1       2.789   3.417  19.192  0.00  0.00    +0.000 C 
ENDBRANCH  12  13
ENDBRANCH   4   7
BRANCH   1  19
ATOM     19  C   UNL     1       0.114   9.724  20.674  0.00  0.00    +0.000 C 
BRANCH  19  29
ATOM     20  C   UNL     1      -0.970  11.453  19.183  0.00  0.00    +0.000 C 
ATOM     21  N   UNL     1      -0.903  12.701  18.825  0.00  0.00    +0.000 NA
ATOM     22  C   UNL     1       0.281  13.247  19.524  0.00  0.00    +0.000 C 
ATOM     23  C   UNL     1      -0.089  14.490  20.321  0.00  0.00    +0.000 C 
ATOM     24  C   UNL     1       1.072  15.444  20.075  0.00  0.00    +0.000 C 
ATOM     25  C   UNL     1       1.426  15.188  18.620  0.00  0.00    +0.000 C 
ATOM     26  C   UNL     1       1.328  13.672  18.483  0.00  0.00    +0.000 C 
ATOM     27  C   UNL     1       0.752  12.085  20.391  0.00  0.00    +0.000 C 
ATOM     28  O   UNL     1       1.718  12.084  21.131  0.00  0.00    +0.000 OA
ATOM     29  N   UNL     1      -0.088  11.049  20.108  0.00  0.00    +0.000 N 
BRANCH  20  30
ATOM     30  C   UNL     1      -2.012  10.539  18.581  0.00  0.00    +0.000 C 
BRANCH  30  31
ATOM     31  C   UNL     1      -1.696  10.297  17.105  0.00  0.00    +0.000 C 
BRANCH  31  33
ATOM     32  C   UNL     1      -2.958  10.043  14.967  0.00  0.00    +0.000 C 
ATOM     33  C   UNL     1      -2.710  10.942  16.170  0.00  0.00    +0.000 C 
ENDBRANCH  31  33
ENDBRANCH  30  31
ENDBRANCH  20  30
ENDBRANCH  19  29
ENDBRANCH   1  19
TORSDOF 7
ENDMDL
MODEL 5
REMARK VINA RESULT:      -9.4      2.696      3.685
REMARK  Name = 
REMARK  8 active torsions:
REMARK  status: ('A' for Active; 'I' for Inactive)
REMARK    1  A    between atoms: C_1  and  C_2
REMARK    2  A    between atoms: C_2  and  C_3
REMARK    3  A    between atoms: C_3  and  C_4
REMARK    4  A    between atoms: C_4  and  C_5
REMARK    5  A    between atoms: N_14  and  C_15
REMARK    6  A    between atoms: C_15  and  C_16
REMARK    7  A    between atoms: C_19  and  C_20
REMARK    8  A    between atoms: C_25  and  C_26
REMARK                            x       y       z     vdW  Elec       q    Type
REMARK                         _______ _______ _______ _____ _____    ______ ____
ROOT
ATOM      1  C   UNL     1       1.856   9.265  18.803  0.00  0.00    +0.000 A 
ATOM      2  C   UNL     1       2.139   8.734  17.544  0.00  0.00    +0.000 A 
ATOM      3  C   UNL     1       2.418   7.370  17.392  0.00  0.00    +0.000 A 
ATOM      4  C   UNL     1       2.325   6.462  18.458  0.00  0.00    +0.000 A 
ATOM      5  C   UNL     1       2.025   7.013  19.718  0.00  0.00    +0.000 A 
ATOM      6  C   UNL     1       1.803   8.389  19.891  0.00  0.00    +0.000 A 
ENDROOT
BRANCH   4   7
ATOM      7  C   UNL     1       2.562   4.995  18.280  0.00  0.00    +0.000 A 
ATOM      8  C   UNL     1       1.575   4.090  18.745  0.00  0.00    +0.000 A 
ATOM      9  C   UNL     1       1.735   2.702  18.674  0.00  0.00    +0.000 A 
ATOM     10  C   UNL     1       2.900   2.165  18.150  0.00  0.00    +0.000 A 
ATOM     11  C   UNL     1       3.894   3.017  17.675  0.00  0.00    +0.000 A 
ATOM     12  C   UNL     1       3.731   4.417  17.716  0.00  0.00    +0.000 A 
BRANCH  12  13
ATOM     13  C   UNL     1       4.845   5.216  17.147  0.00  0.00    +0.000 C 
ATOM     14  N   UNL     1       5.079   5.385  15.886  0.00  0.00    +0.000 NA
ATOM     15  O   UNL     1       6.129   6.345  15.759  0.00  0.00    +0.000 OA
ATOM     16  C   UNL     1       6.528   6.757  17.007  0.00  0.00    +0.000 C 
ATOM     17  O   UNL     1       7.352   7.625  17.243  0.00  0.00    +0.000 OA
ATOM     18  C   UNL     1       5.809   5.938  18.018  0.00  0.00    +0.000 C 
ENDBRANCH  12  13
ENDBRANCH   4   7
BRANCH   1  19
ATOM     19  C   UNL     1       1.682  10.752  18.997  0.00  0.00    +0.000 C 
BRANCH  19  29
ATOM     20  C   UNL     1      -0.829  10.916  19.234  0.00  0.00    +0.000 C 
ATOM     21  N   UNL     1      -1.769  11.399  19.992  0.00  0.00    +0.000 NA
ATOM     22  C   UNL     1      -1.069  12.165  21.046  0.00  0.00    +0.000 C 
ATOM     23  C   UNL     1      -1.511  11.707  22.429  0.00  0.00    +0.000 C 
ATOM     24  C   UNL     1      -1.654  13.002  23.218  0.00  0.00    +0.000 C 
ATOM     25  C   UNL     1      -2.223  13.968  22.193  0.00  0.00    +0.000 C 
ATOM     26  C   UNL     1      -1.444  13.651  20.921  0.00  0.00    +0.000 C 
ATOM     27  C   UNL     1       0.404  11.904  20.760  0.00  0.00    +0.000 C 
ATOM     28  O   UNL     1       1.350  12.356  21.379  0.00  0.00    +0.000 OA
ATOM     29  N   UNL     1       0.431  11.126  19.641  0.00  0.00    +0.000 N 
BRANCH  20  30
ATOM     30  C   UNL     1      -1.176  10.150  17.979  0.00  0.00    +0.000 C 
BRANCH  30  31
ATOM     31  C   UNL     1      -2.286  10.876  17.220  0.00  0.00    +0.000 C 
BRANCH  31  33
ATOM     32  C   UNL     1      -3.033  10.372  14.892  0.00  0.00    +0.000 C 
ATOM     33  C   UNL     1      -3.116   9.942  16.350  0.00  0.00    +0.000 C 
ENDBRANCH  31  33
ENDBRANCH  30  31
ENDBRANCH  20  30
ENDBRANCH  19  29
ENDBRANCH   1  19
TORSDOF 7
ENDMDL
MODEL 6
REMARK VINA RESULT:      -9.3      2.343      3.499
REMARK  Name = 
REMARK  8 active torsions:
REMARK  status: ('A' for Active; 'I' for Inactive)
REMARK    1  A    between atoms: C_1  and  C_2
REMARK    2  A    between atoms: C_2  and  C_3
REMARK    3  A    between atoms: C_3  and  C_4
REMARK    4  A    between atoms: C_4  and  C_5
REMARK    5  A    between atoms: N_14  and  C_15
REMARK    6  A    between atoms: C_15  and  C_16
REMARK    7  A    between atoms: C_19  and  C_20
REMARK    8  A    between atoms: C_25  and  C_26
REMARK                            x       y       z     vdW  Elec       q    Type
REMARK                         _______ _______ _______ _____ _____    ______ ____
ROOT
ATOM      1  C   UNL     1       1.827   8.895  18.765  0.00  0.00    +0.000 A 
ATOM      2  C   UNL     1       1.639   8.516  20.095  0.00  0.00    +0.000 A 
ATOM      3  C   UNL     1       1.796   7.180  20.485  0.00  0.00    +0.000 A 
ATOM      4  C   UNL     1       2.247   6.188  19.599  0.00  0.00    +0.000 A 
ATOM      5  C   UNL     1       2.446   6.591  18.265  0.00  0.00    +0.000 A 
ATOM      6  C   UNL     1       2.232   7.916  17.852  0.00  0.00    +0.000 A 
ENDROOT
BRANCH   4   7
ATOM      7  C   UNL     1       2.475   4.775  20.033  0.00  0.00    +0.000 A 
ATOM      8  C   UNL     1       1.518   4.165  20.882  0.00  0.00    +0.000 A 
ATOM      9  C   UNL     1       1.676   2.869  21.384  0.00  0.00    +0.000 A 
ATOM     10  C   UNL     1       2.811   2.138  21.071  0.00  0.00    +0.000 A 
ATOM     11  C   UNL     1       3.775   2.695  20.234  0.00  0.00    +0.000 A 
ATOM     12  C   UNL     1       3.612   3.989  19.699  0.00  0.00    +0.000 A 
BRANCH  12  13
ATOM     13  C   UNL     1       4.690   4.456  18.793  0.00  0.00    +0.000 C 
ATOM     14  N   UNL     1       4.767   4.206  17.526  0.00  0.00    +0.000 NA
ATOM     15  O   UNL     1       5.850   4.967  16.992  0.00  0.00    +0.000 OA
ATOM     16  C   UNL     1       6.435   5.699  17.995  0.00  0.00    +0.000 C 
ATOM     17  O   UNL     1       7.338   6.509  17.856  0.00  0.00    +0.000 OA
ATOM     18  C   UNL     1       5.805   5.308  19.283  0.00  0.00    +0.000 C 
ENDBRANCH  12  13
ENDBRANCH   4   7
BRANCH   1  19
ATOM     19  C   UNL     1       1.535  10.305  18.310  0.00  0.00    +0.000 C 
BRANCH  19  29
ATOM     20  C   UNL     1      -0.938  10.756  18.563  0.00  0.00    +0.000 C 
ATOM     21  N   UNL     1      -1.802  11.435  19.258  0.00  0.00    +0.000 NA
ATOM     22  C   UNL     1      -0.998  12.268  20.179  0.00  0.00    +0.000 C 
ATOM     23  C   UNL     1      -1.438  12.058  21.621  0.00  0.00    +0.000 C 
ATOM     24  C   UNL     1      -1.429  13.460  22.216  0.00  0.00    +0.000 C 
ATOM     25  C   UNL     1      -1.931  14.324  21.072  0.00  0.00    +0.000 C 
ATOM     26  C   UNL     1      -1.228  13.751  19.847  0.00  0.00    +0.000 C 
ATOM     27  C   UNL     1       0.434  11.819  19.909  0.00  0.00    +0.000 C 
ATOM     28  O   UNL     1       1.438  12.256  20.439  0.00  0.00    +0.000 OA
ATOM     29  N   UNL     1       0.348  10.892  18.913  0.00  0.00    +0.000 N 
BRANCH  20  30
ATOM     30  C   UNL     1      -1.399   9.858  17.439  0.00  0.00    +0.000 C 
BRANCH  30  31
ATOM     31  C   UNL     1      -2.826  10.227  17.034  0.00  0.00    +0.000 C 
BRANCH  31  33
ATOM     32  C   UNL     1      -3.120  10.057  14.561  0.00  0.00    +0.000 C 
ATOM     33  C   UNL     1      -2.887  11.007  15.727  0.00  0.00    +0.000 C 
ENDBRANCH  31  33
ENDBRANCH  30  31
ENDBRANCH  20  30
ENDBRANCH  19  29
ENDBRANCH   1  19
TORSDOF 7
ENDMDL
MODEL 7
REMARK VINA RESULT:      -9.3      2.472      3.649
REMARK  Name = 
REMARK  8 active torsions:
REMARK  status: ('A' for Active; 'I' for Inactive)
REMARK    1  A    between atoms: C_1  and  C_2
REMARK    2  A    between atoms: C_2  and  C_3
REMARK    3  A    between atoms: C_3  and  C_4
REMARK    4  A    between atoms: C_4  and  C_5
REMARK    5  A    between atoms: N_14  and  C_15
REMARK    6  A    between atoms: C_15  and  C_16
REMARK    7  A    between atoms: C_19  and  C_20
REMARK    8  A    between atoms: C_25  and  C_26
REMARK                            x       y       z     vdW  Elec       q    Type
REMARK                         _______ _______ _______ _____ _____    ______ ____
ROOT
ATOM      1  C   UNL     1       1.588   9.269  18.986  0.00  0.00    +0.000 A 
ATOM      2  C   UNL     1       2.059   8.465  17.947  0.00  0.00    +0.000 A 
ATOM      3  C   UNL     1       2.410   7.130  18.183  0.00  0.00    +0.000 A 
ATOM      4  C   UNL     1       2.210   6.509  19.426  0.00  0.00    +0.000 A 
ATOM      5  C   UNL     1       1.720   7.331  20.458  0.00  0.00    +0.000 A 
ATOM      6  C   UNL     1       1.422   8.688  20.247  0.00  0.00    +0.000 A 
ENDROOT
BRANCH   4   7
ATOM      7  C   UNL     1       2.526   5.065  19.658  0.00  0.00    +0.000 A 
ATOM      8  C   UNL     1       1.515   4.229  20.195  0.00  0.00    +0.000 A 
ATOM      9  C   UNL     1       1.736   2.882  20.498  0.00  0.00    +0.000 A 
ATOM     10  C   UNL     1       2.987   2.322  20.293  0.00  0.00    +0.000 A 
ATOM     11  C   UNL     1       4.009   3.104  19.760  0.00  0.00    +0.000 A 
ATOM     12  C   UNL     1       3.789   4.456  19.424  0.00  0.00    +0.000 A 
BRANCH  12  13
ATOM     13  C   UNL     1       4.945   5.173  18.832  0.00  0.00    +0.000 C 
ATOM     14  N   UNL     1       5.945   5.659  19.492  0.00  0.00    +0.000 NA
ATOM     15  O   UNL     1       6.914   6.118  18.550  0.00  0.00    +0.000 OA
ATOM     16  C   UNL     1       6.458   5.889  17.275  0.00  0.00    +0.000 C 
ATOM     17  O   UNL     1       7.081   6.096  16.246  0.00  0.00    +0.000 OA
ATOM     18  C   UNL     1       5.065   5.379  17.365  0.00  0.00    +0.000 C 
ENDBRANCH  12  13
ENDBRANCH   4   7
BRANCH   1  19
ATOM     19  C   UNL     1       1.329  10.741  18.772  0.00  0.00    +0.000 C 
BRANCH  19  29
ATOM     20  C   UNL     1      -1.092  11.164  19.360  0.00  0.00    +0.000 C 
ATOM     21  N   UNL     1      -1.860  11.781  20.208  0.00  0.00    +0.000 NA
ATOM     22  C   UNL     1      -0.943  12.537  21.089  0.00  0.00    +0.000 C 
ATOM     23  C   UNL     1      -1.208  12.209  22.552  0.00  0.00    +0.000 C 
ATOM     24  C   UNL     1      -1.116  13.557  23.255  0.00  0.00    +0.000 C 
ATOM     25  C   UNL     1      -1.747  14.511  22.255  0.00  0.00    +0.000 C 
ATOM     26  C   UNL     1      -1.201  14.042  20.910  0.00  0.00    +0.000 C 
ATOM     27  C   UNL     1       0.441  12.116  20.612  0.00  0.00    +0.000 C 
ATOM     28  O   UNL     1       1.505  12.511  21.051  0.00  0.00    +0.000 OA
ATOM     29  N   UNL     1       0.229  11.274  19.561  0.00  0.00    +0.000 N 
BRANCH  20  30
ATOM     30  C   UNL     1      -1.692  10.361  18.230  0.00  0.00    +0.000 C 
BRANCH  30  31
ATOM     31  C   UNL     1      -2.264  11.304  17.171  0.00  0.00    +0.000 C 
BRANCH  31  33
ATOM     32  C   UNL     1      -2.946  10.321  14.981  0.00  0.00    +0.000 C 
ATOM     33  C   UNL     1      -3.411  10.683  16.384  0.00  0.00    +0.000 C 
ENDBRANCH  31  33
ENDBRANCH  30  31
ENDBRANCH  20  30
ENDBRANCH  19  29
ENDBRANCH   1  19
TORSDOF 7
ENDMDL
MODEL 8
REMARK VINA RESULT:      -9.3      0.997      1.118
REMARK  Name = 
REMARK  8 active torsions:
REMARK  status: ('A' for Active; 'I' for Inactive)
REMARK    1  A    between atoms: C_1  and  C_2
REMARK    2  A    between atoms: C_2  and  C_3
REMARK    3  A    between atoms: C_3  and  C_4
REMARK    4  A    between atoms: C_4  and  C_5
REMARK    5  A    between atoms: N_14  and  C_15
REMARK    6  A    between atoms: C_15  and  C_16
REMARK    7  A    between atoms: C_19  and  C_20
REMARK    8  A    between atoms: C_25  and  C_26
REMARK                            x       y       z     vdW  Elec       q    Type
REMARK                         _______ _______ _______ _____ _____    ______ ____
ROOT
ATOM      1  C   UNL     1       1.168   8.927  19.682  0.00  0.00    +0.000 A 
ATOM      2  C   UNL     1       1.730   7.811  20.305  0.00  0.00    +0.000 A 
ATOM      3  C   UNL     1       2.566   6.943  19.592  0.00  0.00    +0.000 A 
ATOM      4  C   UNL     1       2.963   7.200  18.270  0.00  0.00    +0.000 A 
ATOM      5  C   UNL     1       2.398   8.337  17.663  0.00  0.00    +0.000 A 
ATOM      6  C   UNL     1       1.511   9.181  18.351  0.00  0.00    +0.000 A 
ENDROOT
BRANCH   4   7
ATOM      7  C   UNL     1       3.906   6.304  17.531  0.00  0.00    +0.000 A 
ATOM      8  C   UNL     1       5.043   6.882  16.912  0.00  0.00    +0.000 A 
ATOM      9  C   UNL     1       5.948   6.133  16.153  0.00  0.00    +0.000 A 
ATOM     10  C   UNL     1       5.740   4.775  15.968  0.00  0.00    +0.000 A 
ATOM     11  C   UNL     1       4.640   4.163  16.564  0.00  0.00    +0.000 A 
ATOM     12  C   UNL     1       3.737   4.903  17.355  0.00  0.00    +0.000 A 
BRANCH  12  13
ATOM     13  C   UNL     1       2.626   4.132  17.965  0.00  0.00    +0.000 C 
ATOM     14  N   UNL     1       1.465   3.936  17.429  0.00  0.00    +0.000 NA
ATOM     15  O   UNL     1       0.750   3.015  18.251  0.00  0.00    +0.000 OA
ATOM     16  C   UNL     1       1.531   2.652  19.321  0.00  0.00    +0.000 C 
ATOM     17  O   UNL     1       1.242   1.822  20.168  0.00  0.00    +0.000 OA
ATOM     18  C   UNL     1       2.771   3.471  19.288  0.00  0.00    +0.000 C 
ENDBRANCH  12  13
ENDBRANCH   4   7
BRANCH   1  19
ATOM     19  C   UNL     1       0.166   9.796  20.403  0.00  0.00    +0.000 C 
BRANCH  19  29
ATOM     20  C   UNL     1      -0.723  11.535  18.800  0.00  0.00    +0.000 C 
ATOM     21  N   UNL     1      -0.634  12.792  18.480  0.00  0.00    +0.000 NA
ATOM     22  C   UNL     1       0.417  13.347  19.360  0.00  0.00    +0.000 C 
ATOM     23  C   UNL     1      -0.100  14.563  20.117  0.00  0.00    +0.000 C 
ATOM     24  C   UNL     1       1.061  15.548  20.067  0.00  0.00    +0.000 C 
ATOM     25  C   UNL     1       1.636  15.333  18.678  0.00  0.00    +0.000 C 
ATOM     26  C   UNL     1       1.598  13.820  18.498  0.00  0.00    +0.000 C 
ATOM     27  C   UNL     1       0.780  12.177  20.266  0.00  0.00    +0.000 C 
ATOM     28  O   UNL     1       1.624  12.180  21.143  0.00  0.00    +0.000 OA
ATOM     29  N   UNL     1       0.019  11.130  19.839  0.00  0.00    +0.000 N 
BRANCH  20  30
ATOM     30  C   UNL     1      -1.639  10.613  18.029  0.00  0.00    +0.000 C 
BRANCH  30  31
ATOM     31  C   UNL     1      -2.691  11.435  17.283  0.00  0.00    +0.000 C 
BRANCH  31  33
ATOM     32  C   UNL     1      -5.150  11.807  17.070  0.00  0.00    +0.000 C 
ATOM     33  C   UNL     1      -4.009  11.536  18.040  0.00  0.00    +0.000 C 
ENDBRANCH  31  33
ENDBRANCH  30  31
ENDBRANCH  20  30
ENDBRANCH  19  29
ENDBRANCH   1  19
TORSDOF 7
ENDMDL
MODEL 9
REMARK VINA RESULT:      -9.1      1.363      3.635
REMARK  Name = 
REMARK  8 active torsions:
REMARK  status: ('A' for Active; 'I' for Inactive)
REMARK    1  A    between atoms: C_1  and  C_2
REMARK    2  A    between atoms: C_2  and  C_3
REMARK    3  A    between atoms: C_3  and  C_4
REMARK    4  A    between atoms: C_4  and  C_5
REMARK    5  A    between atoms: N_14  and  C_15
REMARK    6  A    between atoms: C_15  and  C_16
REMARK    7  A    between atoms: C_19  and  C_20
REMARK    8  A    between atoms: C_25  and  C_26
REMARK                            x       y       z     vdW  Elec       q    Type
REMARK                         _______ _______ _______ _____ _____    ______ ____
ROOT
ATOM      1  C   UNL     1       1.236   9.184  19.457  0.00  0.00    +0.000 A 
ATOM      2  C   UNL     1       1.597   9.187  18.109  0.00  0.00    +0.000 A 
ATOM      3  C   UNL     1       2.414   8.177  17.587  0.00  0.00    +0.000 A 
ATOM      4  C   UNL     1       2.820   7.070  18.350  0.00  0.00    +0.000 A 
ATOM      5  C   UNL     1       2.435   7.076  19.704  0.00  0.00    +0.000 A 
ATOM      6  C   UNL     1       1.666   8.116  20.251  0.00  0.00    +0.000 A 
ENDROOT
BRANCH   4   7
ATOM      7  C   UNL     1       3.641   5.960  17.773  0.00  0.00    +0.000 A 
ATOM      8  C   UNL     1       4.659   6.285  16.842  0.00  0.00    +0.000 A 
ATOM      9  C   UNL     1       5.437   5.310  16.209  0.00  0.00    +0.000 A 
ATOM     10  C   UNL     1       5.213   3.968  16.469  0.00  0.00    +0.000 A 
ATOM     11  C   UNL     1       4.227   3.602  17.382  0.00  0.00    +0.000 A 
ATOM     12  C   UNL     1       3.456   4.577  18.049  0.00  0.00    +0.000 A 
BRANCH  12  13
ATOM     13  C   UNL     1       2.463   4.064  19.024  0.00  0.00    +0.000 C 
ATOM     14  N   UNL     1       1.227   3.788  18.761  0.00  0.00    +0.000 NA
ATOM     15  O   UNL     1       0.659   3.169  19.915  0.00  0.00    +0.000 OA
ATOM     16  C   UNL     1       1.610   3.078  20.901  0.00  0.00    +0.000 C 
ATOM     17  O   UNL     1       1.467   2.532  21.984  0.00  0.00    +0.000 OA
ATOM     18  C   UNL     1       2.829   3.790  20.438  0.00  0.00    +0.000 C 
ENDBRANCH  12  13
ENDBRANCH   4   7
BRANCH   1  19
ATOM     19  C   UNL     1       0.464  10.334  20.057  0.00  0.00    +0.000 C 
BRANCH  19  29
ATOM     20  C   UNL     1      -0.387  12.280  18.689  0.00  0.00    +0.000 C 
ATOM     21  N   UNL     1      -1.334  12.639  17.874  0.00  0.00    +0.000 NA
ATOM     22  C   UNL     1      -2.245  11.476  17.796  0.00  0.00    +0.000 C 
ATOM     23  C   UNL     1      -2.468  11.061  16.349  0.00  0.00    +0.000 C 
ATOM     24  C   UNL     1      -3.957  10.751  16.279  0.00  0.00    +0.000 C 
ATOM     25  C   UNL     1      -4.572  11.807  17.181  0.00  0.00    +0.000 C 
ATOM     26  C   UNL     1      -3.616  11.872  18.368  0.00  0.00    +0.000 C 
ATOM     27  C   UNL     1      -1.543  10.414  18.634  0.00  0.00    +0.000 C 
ATOM     28  O   UNL     1      -1.950   9.289  18.859  0.00  0.00    +0.000 OA
ATOM     29  N   UNL     1      -0.419  11.011  19.121  0.00  0.00    +0.000 N 
BRANCH  20  30
ATOM     30  C   UNL     1       0.687  13.263  19.092  0.00  0.00    +0.000 C 
BRANCH  30  31
ATOM     31  C   UNL     1       1.906  13.100  18.184  0.00  0.00    +0.000 C 
BRANCH  31  33
ATOM     32  C   UNL     1       3.202  14.156  20.038  0.00  0.00    +0.000 C 
ATOM     33  C   UNL     1       3.033  14.065  18.528  0.00  0.00    +0.000 C 
ENDBRANCH  31  33
ENDBRANCH  30  31
ENDBRANCH  20  30
ENDBRANCH  19  29
ENDBRANCH   1  19
TORSDOF 7
ENDMDL
