MODEL 1
REMARK VINA RESULT:      -7.1      0.000      0.000
REMARK  Name = 
REMARK  3 active torsions:
REMARK  status: ('A' for Active; 'I' for Inactive)
REMARK    1  A    between atoms: C_1  and  N_2
REMARK    2  A    between atoms: C_3  and  C_4
REMARK    3  A    between atoms: C_5  and  C_6
REMARK                            x       y       z     vdW  Elec       q    Type
REMARK                         _______ _______ _______ _____ _____    ______ ____
ROOT
ATOM      1  C   UNL     1       5.163   5.198  19.254  0.00  0.00    +0.000 C 
ATOM      2  N   UNL     1       4.054   4.391  18.695  0.00  0.00    +0.000 N 
ATOM      3  C   UNL     1       3.923   4.188  17.326  0.00  0.00    +0.000 A 
ATOM      4  C   UNL     1       2.805   3.474  16.841  0.00  0.00    +0.000 A 
ATOM      5  C   UNL     1       1.850   2.975  17.705  0.00  0.00    +0.000 A 
ATOM      6  C   UNL     1       1.986   3.162  19.071  0.00  0.00    +0.000 A 
ATOM      7  C   UNL     1       1.010   2.649  19.939  0.00  0.00    +0.000 A 
ATOM      8  C   UNL     1       1.131   2.828  21.314  0.00  0.00    +0.000 A 
ATOM      9  C   UNL     1       2.225   3.516  21.832  0.00  0.00    +0.000 A 
ATOM     10  C   UNL     1       3.202   4.036  20.979  0.00  0.00    +0.000 A 
ATOM     11  C   UNL     1       3.108   3.874  19.572  0.00  0.00    +0.000 A 
ENDROOT
BRANCH   3  12
ATOM     12  C   UNL     1       4.952   4.651  16.327  0.00  0.00    +0.000 C 
ATOM     13  C   UNL     1       5.233   3.980  15.192  0.00  0.00    +0.000 C 
BRANCH  13  14
ATOM     14  C   UNL     1       6.273   4.383  14.226  0.00  0.00    +0.000 A 
ATOM     15  C   UNL     1       6.465   3.961  12.920  0.00  0.00    +0.000 A 
ATOM     16  C   UNL     1       7.560   4.660  12.447  0.00  0.00    +0.000 A 
ATOM     17  N   UNL     1       8.034   5.475  13.407  0.00  0.00    +0.000 N 
ATOM     18  C   UNL     1       7.256   5.314  14.492  0.00  0.00    +0.000 A 
ATOM     19  H   UNL     1       8.851   6.119  13.328  0.00  0.00    +0.000 HD
ENDBRANCH  13  14
ENDBRANCH   3  12
TORSDOF 2
ENDMDL
MODEL 2
REMARK VINA RESULT:      -7.1      1.048      1.075
REMARK  Name = 
REMARK  3 active torsions:
REMARK  status: ('A' for Active; 'I' for Inactive)
REMARK    1  A    between atoms: C_1  and  N_2
REMARK    2  A    between atoms: C_3  and  C_4
REMARK    3  A    between atoms: C_5  and  C_6
REMARK                            x       y       z     vdW  Elec       q    Type
REMARK                         _______ _______ _______ _____ _____    ______ ____
ROOT
ATOM      1  C   UNL     1       3.621   6.392  17.844  0.00  0.00    +0.000 C 
ATOM      2  N   UNL     1       3.526   4.918  17.960  0.00  0.00    +0.000 N 
ATOM      3  C   UNL     1       4.090   4.076  17.009  0.00  0.00    +0.000 A 
ATOM      4  C   UNL     1       3.904   2.682  17.128  0.00  0.00    +0.000 A 
ATOM      5  C   UNL     1       3.178   2.148  18.174  0.00  0.00    +0.000 A 
ATOM      6  C   UNL     1       2.627   2.982  19.133  0.00  0.00    +0.000 A 
ATOM      7  C   UNL     1       1.892   2.427  20.192  0.00  0.00    +0.000 A 
ATOM      8  C   UNL     1       1.332   3.252  21.164  0.00  0.00    +0.000 A 
ATOM      9  C   UNL     1       1.502   4.631  21.088  0.00  0.00    +0.000 A 
ATOM     10  C   UNL     1       2.228   5.198  20.036  0.00  0.00    +0.000 A 
ATOM     11  C   UNL     1       2.811   4.387  19.027  0.00  0.00    +0.000 A 
ENDROOT
BRANCH   3  12
ATOM     12  C   UNL     1       4.944   4.582  15.874  0.00  0.00    +0.000 C 
ATOM     13  C   UNL     1       5.550   3.765  14.988  0.00  0.00    +0.000 C 
BRANCH  13  14
ATOM     14  C   UNL     1       6.433   4.232  13.901  0.00  0.00    +0.000 A 
ATOM     15  C   UNL     1       6.477   3.829  12.576  0.00  0.00    +0.000 A 
ATOM     16  C   UNL     1       7.461   4.590  11.975  0.00  0.00    +0.000 A 
ATOM     17  N   UNL     1       8.012   5.424  12.876  0.00  0.00    +0.000 N 
ATOM     18  C   UNL     1       7.392   5.213  14.051  0.00  0.00    +0.000 A 
ATOM     19  H   UNL     1       8.776   6.112  12.701  0.00  0.00    +0.000 HD
ENDBRANCH  13  14
ENDBRANCH   3  12
TORSDOF 2
ENDMDL
MODEL 3
REMARK VINA RESULT:      -7.0      4.425      4.980
REMARK  Name = 
REMARK  3 active torsions:
REMARK  status: ('A' for Active; 'I' for Inactive)
REMARK    1  A    between atoms: C_1  and  N_2
REMARK    2  A    between atoms: C_3  and  C_4
REMARK    3  A    between atoms: C_5  and  C_6
REMARK                            x       y       z     vdW  Elec       q    Type
REMARK                         _______ _______ _______ _____ _____    ______ ____
ROOT
ATOM      1  C   UNL     1       2.169   6.209  20.621  0.00  0.00    +0.000 C 
ATOM      2  N   UNL     1       1.961   7.387  19.748  0.00  0.00    +0.000 N 
ATOM      3  C   UNL     1       2.534   7.466  18.484  0.00  0.00    +0.000 A 
ATOM      4  C   UNL     1       2.365   8.644  17.725  0.00  0.00    +0.000 A 
ATOM      5  C   UNL     1       1.638   9.710  18.218  0.00  0.00    +0.000 A 
ATOM      6  C   UNL     1       1.052   9.630  19.471  0.00  0.00    +0.000 A 
ATOM      7  C   UNL     1       0.315  10.718  19.960  0.00  0.00    +0.000 A 
ATOM      8  C   UNL     1      -0.280  10.654  21.217  0.00  0.00    +0.000 A 
ATOM      9  C   UNL     1      -0.147   9.505  21.992  0.00  0.00    +0.000 A 
ATOM     10  C   UNL     1       0.589   8.415  21.519  0.00  0.00    +0.000 A 
ATOM     11  C   UNL     1       1.211   8.447  20.243  0.00  0.00    +0.000 A 
ENDROOT
BRANCH   3  12
ATOM     12  C   UNL     1       3.290   6.323  17.857  0.00  0.00    +0.000 C 
ATOM     13  C   UNL     1       4.333   6.500  17.021  0.00  0.00    +0.000 C 
BRANCH  13  14
ATOM     14  C   UNL     1       5.056   5.401  16.352  0.00  0.00    +0.000 A 
ATOM     15  C   UNL     1       5.662   5.383  15.105  0.00  0.00    +0.000 A 
ATOM     16  C   UNL     1       6.218   4.125  14.967  0.00  0.00    +0.000 A 
ATOM     17  N   UNL     1       5.969   3.389  16.066  0.00  0.00    +0.000 N 
ATOM     18  C   UNL     1       5.263   4.158  16.914  0.00  0.00    +0.000 A 
ATOM     19  H   UNL     1       6.269   2.404  16.236  0.00  0.00    +0.000 HD
ENDBRANCH  13  14
ENDBRANCH   3  12
TORSDOF 2
ENDMDL
MODEL 4
REMARK VINA RESULT:      -6.8      4.728      8.056
REMARK  Name = 
REMARK  3 active torsions:
REMARK  status: ('A' for Active; 'I' for Inactive)
REMARK    1  A    between atoms: C_1  and  N_2
REMARK    2  A    between atoms: C_3  and  C_4
REMARK    3  A    between atoms: C_5  and  C_6
REMARK                            x       y       z     vdW  Elec       q    Type
REMARK                         _______ _______ _______ _____ _____    ______ ____
ROOT
ATOM      1  C   UNL     1       1.758   4.877  20.668  0.00  0.00    +0.000 C 
ATOM      2  N   UNL     1       2.396   5.752  19.656  0.00  0.00    +0.000 N 
ATOM      3  C   UNL     1       2.152   7.120  19.622  0.00  0.00    +0.000 A 
ATOM      4  C   UNL     1       2.726   7.894  18.590  0.00  0.00    +0.000 A 
ATOM      5  C   UNL     1       3.525   7.314  17.625  0.00  0.00    +0.000 A 
ATOM      6  C   UNL     1       3.782   5.953  17.665  0.00  0.00    +0.000 A 
ATOM      7  C   UNL     1       4.597   5.375  16.679  0.00  0.00    +0.000 A 
ATOM      8  C   UNL     1       4.866   4.009  16.705  0.00  0.00    +0.000 A 
ATOM      9  C   UNL     1       4.328   3.213  17.712  0.00  0.00    +0.000 A 
ATOM     10  C   UNL     1       3.511   3.775  18.697  0.00  0.00    +0.000 A 
ATOM     11  C   UNL     1       3.215   5.163  18.701  0.00  0.00    +0.000 A 
ENDROOT
BRANCH   3  12
ATOM     12  C   UNL     1       1.340   7.833  20.673  0.00  0.00    +0.000 C 
ATOM     13  C   UNL     1       0.891   9.096  20.526  0.00  0.00    +0.000 C 
BRANCH  13  14
ATOM     14  C   UNL     1       0.140   9.834  21.561  0.00  0.00    +0.000 A 
ATOM     15  C   UNL     1      -0.191  11.179  21.609  0.00  0.00    +0.000 A 
ATOM     16  C   UNL     1      -0.918  11.354  22.772  0.00  0.00    +0.000 A 
ATOM     17  N   UNL     1      -1.031  10.183  23.423  0.00  0.00    +0.000 N 
ATOM     18  C   UNL     1      -0.392   9.252  22.693  0.00  0.00    +0.000 A 
ATOM     19  H   UNL     1      -1.528  10.019  24.327  0.00  0.00    +0.000 HD
ENDBRANCH  13  14
ENDBRANCH   3  12
TORSDOF 2
ENDMDL
MODEL 5
REMARK VINA RESULT:      -6.7      1.144      1.950
REMARK  Name = 
REMARK  3 active torsions:
REMARK  status: ('A' for Active; 'I' for Inactive)
REMARK    1  A    between atoms: C_1  and  N_2
REMARK    2  A    between atoms: C_3  and  C_4
REMARK    3  A    between atoms: C_5  and  C_6
REMARK                            x       y       z     vdW  Elec       q    Type
REMARK                         _______ _______ _______ _____ _____    ______ ____
ROOT
ATOM      1  C   UNL     1       4.005   1.780  17.513  0.00  0.00    +0.000 C 
ATOM      2  N   UNL     1       3.943   3.126  18.127  0.00  0.00    +0.000 N 
ATOM      3  C   UNL     1       4.734   4.172  17.665  0.00  0.00    +0.000 A 
ATOM      4  C   UNL     1       4.691   5.414  18.336  0.00  0.00    +0.000 A 
ATOM      5  C   UNL     1       3.874   5.602  19.433  0.00  0.00    +0.000 A 
ATOM      6  C   UNL     1       3.073   4.567  19.887  0.00  0.00    +0.000 A 
ATOM      7  C   UNL     1       2.246   4.770  21.002  0.00  0.00    +0.000 A 
ATOM      8  C   UNL     1       1.434   3.740  21.470  0.00  0.00    +0.000 A 
ATOM      9  C   UNL     1       1.440   2.504  20.830  0.00  0.00    +0.000 A 
ATOM     10  C   UNL     1       2.262   2.286  19.721  0.00  0.00    +0.000 A 
ATOM     11  C   UNL     1       3.104   3.314  19.218  0.00  0.00    +0.000 A 
ENDROOT
BRANCH   3  12
ATOM     12  C   UNL     1       5.605   4.060  16.441  0.00  0.00    +0.000 C 
ATOM     13  C   UNL     1       5.203   4.447  15.213  0.00  0.00    +0.000 C 
BRANCH  13  14
ATOM     14  C   UNL     1       6.016   4.298  13.990  0.00  0.00    +0.000 A 
ATOM     15  C   UNL     1       5.790   3.499  12.880  0.00  0.00    +0.000 A 
ATOM     16  C   UNL     1       6.833   3.748  12.008  0.00  0.00    +0.000 A 
ATOM     17  N   UNL     1       7.674   4.651  12.544  0.00  0.00    +0.000 N 
ATOM     18  C   UNL     1       7.184   4.992  13.749  0.00  0.00    +0.000 A 
ATOM     19  H   UNL     1       8.545   5.025  12.107  0.00  0.00    +0.000 HD
ENDBRANCH  13  14
ENDBRANCH   3  12
TORSDOF 2
ENDMDL
MODEL 6
REMARK VINA RESULT:      -6.7      0.773      1.067
REMARK  Name = 
REMARK  3 active torsions:
REMARK  status: ('A' for Active; 'I' for Inactive)
REMARK    1  A    between atoms: C_1  and  N_2
REMARK    2  A    between atoms: C_3  and  C_4
REMARK    3  A    between atoms: C_5  and  C_6
REMARK                            x       y       z     vdW  Elec       q    Type
REMARK                         _______ _______ _______ _____ _____    ______ ____
ROOT
ATOM      1  C   UNL     1       5.532   4.039  19.091  0.00  0.00    +0.000 C 
ATOM      2  N   UNL     1       4.124   3.946  18.641  0.00  0.00    +0.000 N 
ATOM      3  C   UNL     1       3.748   4.309  17.352  0.00  0.00    +0.000 A 
ATOM      4  C   UNL     1       2.381   4.274  17.000  0.00  0.00    +0.000 A 
ATOM      5  C   UNL     1       1.421   3.881  17.911  0.00  0.00    +0.000 A 
ATOM      6  C   UNL     1       1.793   3.504  19.191  0.00  0.00    +0.000 A 
ATOM      7  C   UNL     1       0.808   3.106  20.108  0.00  0.00    +0.000 A 
ATOM      8  C   UNL     1       1.166   2.724  21.399  0.00  0.00    +0.000 A 
ATOM      9  C   UNL     1       2.504   2.735  21.782  0.00  0.00    +0.000 A 
ATOM     10  C   UNL     1       3.494   3.133  20.880  0.00  0.00    +0.000 A 
ATOM     11  C   UNL     1       3.166   3.531  19.557  0.00  0.00    +0.000 A 
ENDROOT
BRANCH   3  12
ATOM     12  C   UNL     1       4.743   4.691  16.287  0.00  0.00    +0.000 C 
ATOM     13  C   UNL     1       5.050   3.893  15.245  0.00  0.00    +0.000 C 
BRANCH  13  14
ATOM     14  C   UNL     1       6.059   4.221  14.219  0.00  0.00    +0.000 A 
ATOM     15  C   UNL     1       7.137   5.090  14.298  0.00  0.00    +0.000 A 
ATOM     16  C   UNL     1       7.781   5.014  13.077  0.00  0.00    +0.000 A 
ATOM     17  N   UNL     1       7.139   4.148  12.271  0.00  0.00    +0.000 N 
ATOM     18  C   UNL     1       6.091   3.661  12.959  0.00  0.00    +0.000 A 
ATOM     19  H   UNL     1       7.403   3.894  11.294  0.00  0.00    +0.000 HD
ENDBRANCH  13  14
ENDBRANCH   3  12
TORSDOF 2
ENDMDL
MODEL 7
REMARK VINA RESULT:      -6.6      4.722      7.835
REMARK  Name = 
REMARK  3 active torsions:
REMARK  status: ('A' for Active; 'I' for Inactive)
REMARK    1  A    between atoms: C_1  and  N_2
REMARK    2  A    between atoms: C_3  and  C_4
REMARK    3  A    between atoms: C_5  and  C_6
REMARK                            x       y       z     vdW  Elec       q    Type
REMARK                         _______ _______ _______ _____ _____    ______ ____
ROOT
ATOM      1  C   UNL     1       3.122   7.680  17.917  0.00  0.00    +0.000 C 
ATOM      2  N   UNL     1       2.715   6.569  18.808  0.00  0.00    +0.000 N 
ATOM      3  C   UNL     1       2.013   6.801  19.985  0.00  0.00    +0.000 A 
ATOM      4  C   UNL     1       1.716   5.713  20.834  0.00  0.00    +0.000 A 
ATOM      5  C   UNL     1       2.107   4.430  20.509  0.00  0.00    +0.000 A 
ATOM      6  C   UNL     1       2.793   4.191  19.330  0.00  0.00    +0.000 A 
ATOM      7  C   UNL     1       3.184   2.882  19.010  0.00  0.00    +0.000 A 
ATOM      8  C   UNL     1       3.874   2.626  17.828  0.00  0.00    +0.000 A 
ATOM      9  C   UNL     1       4.176   3.670  16.958  0.00  0.00    +0.000 A 
ATOM     10  C   UNL     1       3.796   4.979  17.266  0.00  0.00    +0.000 A 
ATOM     11  C   UNL     1       3.094   5.277  18.464  0.00  0.00    +0.000 A 
ENDROOT
BRANCH   3  12
ATOM     12  C   UNL     1       1.503   8.164  20.377  0.00  0.00    +0.000 C 
ATOM     13  C   UNL     1       0.770   8.385  21.487  0.00  0.00    +0.000 C 
BRANCH  13  14
ATOM     14  C   UNL     1       0.214   9.699  21.865  0.00  0.00    +0.000 A 
ATOM     15  C   UNL     1       0.373  10.929  21.243  0.00  0.00    +0.000 A 
ATOM     16  C   UNL     1      -0.373  11.830  21.979  0.00  0.00    +0.000 A 
ATOM     17  N   UNL     1      -0.964  11.203  23.012  0.00  0.00    +0.000 N 
ATOM     18  C   UNL     1      -0.614   9.906  22.949  0.00  0.00    +0.000 A 
ATOM     19  H   UNL     1      -1.586  11.636  23.729  0.00  0.00    +0.000 HD
ENDBRANCH  13  14
ENDBRANCH   3  12
TORSDOF 2
ENDMDL
MODEL 8
REMARK VINA RESULT:      -6.6      4.419      7.477
REMARK  Name = 
REMARK  3 active torsions:
REMARK  status: ('A' for Active; 'I' for Inactive)
REMARK    1  A    between atoms: C_1  and  N_2
REMARK    2  A    between atoms: C_3  and  C_4
REMARK    3  A    between atoms: C_5  and  C_6
REMARK                            x       y       z     vdW  Elec       q    Type
REMARK                         _______ _______ _______ _____ _____    ______ ____
ROOT
ATOM      1  C   UNL     1       3.413   7.012  18.072  0.00  0.00    +0.000 C 
ATOM      2  N   UNL     1       2.799   5.975  18.932  0.00  0.00    +0.000 N 
ATOM      3  C   UNL     1       2.058   6.311  20.060  0.00  0.00    +0.000 A 
ATOM      4  C   UNL     1       1.560   5.281  20.887  0.00  0.00    +0.000 A 
ATOM      5  C   UNL     1       1.793   3.953  20.588  0.00  0.00    +0.000 A 
ATOM      6  C   UNL     1       2.518   3.613  19.457  0.00  0.00    +0.000 A 
ATOM      7  C   UNL     1       2.747   2.261  19.164  0.00  0.00    +0.000 A 
ATOM      8  C   UNL     1       3.474   1.902  18.031  0.00  0.00    +0.000 A 
ATOM      9  C   UNL     1       3.972   2.888  17.184  0.00  0.00    +0.000 A 
ATOM     10  C   UNL     1       3.755   4.240  17.467  0.00  0.00    +0.000 A 
ATOM     11  C   UNL     1       3.021   4.640  18.614  0.00  0.00    +0.000 A 
ENDROOT
BRANCH   3  12
ATOM     12  C   UNL     1       1.713   7.734  20.417  0.00  0.00    +0.000 C 
ATOM     13  C   UNL     1       0.718   8.060  21.266  0.00  0.00    +0.000 C 
BRANCH  13  14
ATOM     14  C   UNL     1       0.326   9.445  21.591  0.00  0.00    +0.000 A 
ATOM     15  C   UNL     1      -0.520   9.904  22.590  0.00  0.00    +0.000 A 
ATOM     16  C   UNL     1      -0.529  11.282  22.481  0.00  0.00    +0.000 A 
ATOM     17  N   UNL     1       0.263  11.668  21.464  0.00  0.00    +0.000 N 
ATOM     18  C   UNL     1       0.787  10.557  20.918  0.00  0.00    +0.000 A 
ATOM     19  H   UNL     1       0.444  12.648  21.155  0.00  0.00    +0.000 HD
ENDBRANCH  13  14
ENDBRANCH   3  12
TORSDOF 2
ENDMDL
MODEL 9
REMARK VINA RESULT:      -6.6      7.894     10.312
REMARK  Name = 
REMARK  3 active torsions:
REMARK  status: ('A' for Active; 'I' for Inactive)
REMARK    1  A    between atoms: C_1  and  N_2
REMARK    2  A    between atoms: C_3  and  C_4
REMARK    3  A    between atoms: C_5  and  C_6
REMARK                            x       y       z     vdW  Elec       q    Type
REMARK                         _______ _______ _______ _____ _____    ______ ____
ROOT
ATOM      1  C   UNL     1       8.990  11.207  21.433  0.00  0.00    +0.000 C 
ATOM      2  N   UNL     1       9.548  11.698  20.151  0.00  0.00    +0.000 N 
ATOM      3  C   UNL     1       9.635  10.874  19.034  0.00  0.00    +0.000 A 
ATOM      4  C   UNL     1      10.245  11.370  17.861  0.00  0.00    +0.000 A 
ATOM      5  C   UNL     1      10.746  12.656  17.809  0.00  0.00    +0.000 A 
ATOM      6  C   UNL     1      10.647  13.484  18.915  0.00  0.00    +0.000 A 
ATOM      7  C   UNL     1      11.159  14.789  18.849  0.00  0.00    +0.000 A 
ATOM      8  C   UNL     1      11.066  15.635  19.951  0.00  0.00    +0.000 A 
ATOM      9  C   UNL     1      10.463  15.187  21.123  0.00  0.00    +0.000 A 
ATOM     10  C   UNL     1       9.952  13.888  21.203  0.00  0.00    +0.000 A 
ATOM     11  C   UNL     1      10.031  12.999  20.100  0.00  0.00    +0.000 A 
ENDROOT
BRANCH   3  12
ATOM     12  C   UNL     1       9.059   9.482  18.997  0.00  0.00    +0.000 C 
ATOM     13  C   UNL     1       8.303   9.024  17.979  0.00  0.00    +0.000 C 
BRANCH  13  14
ATOM     14  C   UNL     1       7.683   7.685  17.944  0.00  0.00    +0.000 A 
ATOM     15  C   UNL     1       7.996   6.556  18.685  0.00  0.00    +0.000 A 
ATOM     16  C   UNL     1       7.103   5.578  18.290  0.00  0.00    +0.000 A 
ATOM     17  N   UNL     1       6.277   6.064  17.346  0.00  0.00    +0.000 N 
ATOM     18  C   UNL     1       6.622   7.345  17.130  0.00  0.00    +0.000 A 
ATOM     19  H   UNL     1       5.506   5.547  16.869  0.00  0.00    +0.000 HD
ENDBRANCH  13  14
ENDBRANCH   3  12
TORSDOF 2
ENDMDL
