MODEL 1
REMARK VINA RESULT:      -8.1      0.000      0.000
REMARK  Name = 
REMARK  7 active torsions:
REMARK  status: ('A' for Active; 'I' for Inactive)
REMARK    1  A    between atoms: C_1  and  C_2
REMARK    2  A    between atoms: C_5  and  S_6
REMARK    3  A    between atoms: S_6  and  N_9
REMARK    4  A    between atoms: N_9  and  C_10
REMARK    5  A    between atoms: C_13  and  O_14
REMARK    6  A    between atoms: C_15  and  C_16
REMARK    7  A    between atoms: C_21  and  O_22
REMARK                            x       y       z     vdW  Elec       q    Type
REMARK                         _______ _______ _______ _____ _____    ______ ____
ROOT
ATOM      1  C   UNL     1       4.949   4.291  19.137  0.00  0.00    +0.000 A 
ATOM      2  C   UNL     1       4.236   3.203  19.621  0.00  0.00    +0.000 A 
ATOM      3  C   UNL     1       2.905   3.366  19.994  0.00  0.00    +0.000 A 
ATOM      4  C   UNL     1       2.286   4.615  19.849  0.00  0.00    +0.000 A 
ATOM      5  C   UNL     1       2.981   5.747  19.365  0.00  0.00    +0.000 A 
ATOM      6  C   UNL     1       4.336   5.541  19.026  0.00  0.00    +0.000 A 
ENDROOT
BRANCH   5   7
ATOM      7  C   UNL     1       2.371   7.109  19.236  0.00  0.00    +0.000 A 
ATOM      8  C   UNL     1       2.340   7.764  17.987  0.00  0.00    +0.000 A 
ATOM      9  C   UNL     1       1.764   9.028  17.818  0.00  0.00    +0.000 A 
ATOM     10  C   UNL     1       1.169   9.672  18.894  0.00  0.00    +0.000 A 
ATOM     11  C   UNL     1       1.161   9.056  20.141  0.00  0.00    +0.000 A 
ATOM     12  C   UNL     1       1.758   7.799  20.307  0.00  0.00    +0.000 A 
BRANCH  12  13
ATOM     13  O   UNL     1       1.737   7.246  21.561  0.00  0.00    +0.000 OA
ATOM     14  H   UNL     1       1.038   6.575  21.612  0.00  0.00    +0.000 HD
ENDBRANCH  12  13
ENDBRANCH   5   7
BRANCH   1  15
ATOM     15  N   UNL     1       6.301   4.126  18.723  0.00  0.00    +0.000 N 
ATOM     16  H   UNL     1       7.011   4.240  19.443  0.00  0.00    +0.000 HD
BRANCH  15  17
ATOM     17  S   UNL     1       6.793   4.833  17.263  0.00  0.00    +0.000 S 
ATOM     18  O   UNL     1       5.650   5.012  16.400  0.00  0.00    +0.000 OA
ATOM     19  O   UNL     1       7.947   4.073  16.829  0.00  0.00    +0.000 OA
BRANCH  17  24
ATOM     20  C   UNL     1       8.964  10.295  18.842  0.00  0.00    +0.000 C 
ATOM     21  C   UNL     1       8.423   8.946  18.467  0.00  0.00    +0.000 A 
ATOM     22  C   UNL     1       8.713   7.814  19.238  0.00  0.00    +0.000 A 
ATOM     23  C   UNL     1       8.200   6.564  18.881  0.00  0.00    +0.000 A 
ATOM     24  C   UNL     1       7.386   6.444  17.749  0.00  0.00    +0.000 A 
ATOM     25  C   UNL     1       7.108   7.561  16.959  0.00  0.00    +0.000 A 
ATOM     26  C   UNL     1       7.621   8.808  17.323  0.00  0.00    +0.000 A 
ENDBRANCH  17  24
ENDBRANCH  15  17
ENDBRANCH   1  15
BRANCH   4  27
ATOM     27  O   UNL     1       0.960   4.708  20.189  0.00  0.00    +0.000 OA
ATOM     28  H   UNL     1       0.845   4.453  21.119  0.00  0.00    +0.000 HD
ENDBRANCH   4  27
TORSDOF 6
ENDMDL
MODEL 2
REMARK VINA RESULT:      -7.8      3.525      7.644
REMARK  Name = 
REMARK  7 active torsions:
REMARK  status: ('A' for Active; 'I' for Inactive)
REMARK    1  A    between atoms: C_1  and  C_2
REMARK    2  A    between atoms: C_5  and  S_6
REMARK    3  A    between atoms: S_6  and  N_9
REMARK    4  A    between atoms: N_9  and  C_10
REMARK    5  A    between atoms: C_13  and  O_14
REMARK    6  A    between atoms: C_15  and  C_16
REMARK    7  A    between atoms: C_21  and  O_22
REMARK                            x       y       z     vdW  Elec       q    Type
REMARK                         _______ _______ _______ _____ _____    ______ ____
ROOT
ATOM      1  C   UNL     1       2.390   8.159  17.736  0.00  0.00    +0.000 A 
ATOM      2  C   UNL     1       3.684   8.195  17.234  0.00  0.00    +0.000 A 
ATOM      3  C   UNL     1       4.534   7.115  17.451  0.00  0.00    +0.000 A 
ATOM      4  C   UNL     1       4.072   5.989  18.146  0.00  0.00    +0.000 A 
ATOM      5  C   UNL     1       2.763   5.918  18.676  0.00  0.00    +0.000 A 
ATOM      6  C   UNL     1       1.945   7.048  18.455  0.00  0.00    +0.000 A 
ENDROOT
BRANCH   5   7
ATOM      7  C   UNL     1       2.243   4.753  19.461  0.00  0.00    +0.000 A 
ATOM      8  C   UNL     1       2.504   4.648  20.843  0.00  0.00    +0.000 A 
ATOM      9  C   UNL     1       2.022   3.587  21.618  0.00  0.00    +0.000 A 
ATOM     10  C   UNL     1       1.233   2.604  21.038  0.00  0.00    +0.000 A 
ATOM     11  C   UNL     1       0.935   2.676  19.682  0.00  0.00    +0.000 A 
ATOM     12  C   UNL     1       1.439   3.730  18.908  0.00  0.00    +0.000 A 
BRANCH  12  13
ATOM     13  O   UNL     1       1.129   3.742  17.573  0.00  0.00    +0.000 OA
ATOM     14  H   UNL     1       1.104   4.657  17.250  0.00  0.00    +0.000 HD
ENDBRANCH  12  13
ENDBRANCH   5   7
BRANCH   1  15
ATOM     15  N   UNL     1       1.504   9.245  17.490  0.00  0.00    +0.000 N 
ATOM     16  H   UNL     1       1.692   9.803  16.660  0.00  0.00    +0.000 HD
BRANCH  15  17
ATOM     17  S   UNL     1       1.044  10.227  18.794  0.00  0.00    +0.000 S 
ATOM     18  O   UNL     1       1.797  11.458  18.764  0.00  0.00    +0.000 OA
ATOM     19  O   UNL     1       1.062   9.367  19.958  0.00  0.00    +0.000 OA
BRANCH  17  24
ATOM     20  C   UNL     1      -4.837  11.396  17.747  0.00  0.00    +0.000 C 
ATOM     21  C   UNL     1      -3.384  11.109  17.990  0.00  0.00    +0.000 A 
ATOM     22  C   UNL     1      -2.713  10.120  17.260  0.00  0.00    +0.000 A 
ATOM     23  C   UNL     1      -1.359   9.865  17.493  0.00  0.00    +0.000 A 
ATOM     24  C   UNL     1      -0.666  10.608  18.456  0.00  0.00    +0.000 A 
ATOM     25  C   UNL     1      -1.329  11.581  19.206  0.00  0.00    +0.000 A 
ATOM     26  C   UNL     1      -2.682  11.833  18.967  0.00  0.00    +0.000 A 
ENDBRANCH  17  24
ENDBRANCH  15  17
ENDBRANCH   1  15
BRANCH   4  27
ATOM     27  O   UNL     1       4.938   4.934  18.291  0.00  0.00    +0.000 OA
ATOM     28  H   UNL     1       4.476   4.106  18.085  0.00  0.00    +0.000 HD
ENDBRANCH   4  27
TORSDOF 6
ENDMDL
MODEL 3
REMARK VINA RESULT:      -7.7      3.314      4.974
REMARK  Name = 
REMARK  7 active torsions:
REMARK  status: ('A' for Active; 'I' for Inactive)
REMARK    1  A    between atoms: C_1  and  C_2
REMARK    2  A    between atoms: C_5  and  S_6
REMARK    3  A    between atoms: S_6  and  N_9
REMARK    4  A    between atoms: N_9  and  C_10
REMARK    5  A    between atoms: C_13  and  O_14
REMARK    6  A    between atoms: C_15  and  C_16
REMARK    7  A    between atoms: C_21  and  O_22
REMARK                            x       y       z     vdW  Elec       q    Type
REMARK                         _______ _______ _______ _____ _____    ______ ____
ROOT
ATOM      1  C   UNL     1       2.328   7.005  19.742  0.00  0.00    +0.000 A 
ATOM      2  C   UNL     1       2.945   7.142  18.506  0.00  0.00    +0.000 A 
ATOM      3  C   UNL     1       2.705   8.280  17.741  0.00  0.00    +0.000 A 
ATOM      4  C   UNL     1       1.869   9.291  18.234  0.00  0.00    +0.000 A 
ATOM      5  C   UNL     1       1.220   9.186  19.486  0.00  0.00    +0.000 A 
ATOM      6  C   UNL     1       1.471   8.002  20.214  0.00  0.00    +0.000 A 
ENDROOT
BRANCH   5   7
ATOM      7  C   UNL     1       0.286  10.222  20.031  0.00  0.00    +0.000 A 
ATOM      8  C   UNL     1       0.577  10.880  21.244  0.00  0.00    +0.000 A 
ATOM      9  C   UNL     1      -0.258  11.867  21.781  0.00  0.00    +0.000 A 
ATOM     10  C   UNL     1      -1.405  12.252  21.102  0.00  0.00    +0.000 A 
ATOM     11  C   UNL     1      -1.723  11.643  19.893  0.00  0.00    +0.000 A 
ATOM     12  C   UNL     1      -0.893  10.640  19.373  0.00  0.00    +0.000 A 
BRANCH  12  13
ATOM     13  O   UNL     1      -1.263  10.061  18.187  0.00  0.00    +0.000 OA
ATOM     14  H   UNL     1      -1.561  10.745  17.567  0.00  0.00    +0.000 HD
ENDBRANCH  12  13
ENDBRANCH   5   7
BRANCH   1  15
ATOM     15  N   UNL     1       2.593   5.861  20.545  0.00  0.00    +0.000 N 
ATOM     16  H   UNL     1       3.399   5.921  21.164  0.00  0.00    +0.000 HD
BRANCH  15  17
ATOM     17  S   UNL     1       2.486   4.327  19.831  0.00  0.00    +0.000 S 
ATOM     18  O   UNL     1       1.257   4.226  19.080  0.00  0.00    +0.000 OA
ATOM     19  O   UNL     1       2.800   3.382  20.883  0.00  0.00    +0.000 OA
BRANCH  17  24
ATOM     20  C   UNL     1       7.100   4.389  15.863  0.00  0.00    +0.000 C 
ATOM     21  C   UNL     1       5.958   4.359  16.836  0.00  0.00    +0.000 A 
ATOM     22  C   UNL     1       4.655   4.073  16.410  0.00  0.00    +0.000 A 
ATOM     23  C   UNL     1       3.600   4.045  17.326  0.00  0.00    +0.000 A 
ATOM     24  C   UNL     1       3.849   4.297  18.681  0.00  0.00    +0.000 A 
ATOM     25  C   UNL     1       5.139   4.606  19.115  0.00  0.00    +0.000 A 
ATOM     26  C   UNL     1       6.189   4.629  18.195  0.00  0.00    +0.000 A 
ENDBRANCH  17  24
ENDBRANCH  15  17
ENDBRANCH   1  15
BRANCH   4  27
ATOM     27  O   UNL     1       1.704  10.411  17.459  0.00  0.00    +0.000 OA
ATOM     28  H   UNL     1       2.233  11.139  17.824  0.00  0.00    +0.000 HD
ENDBRANCH   4  27
TORSDOF 6
ENDMDL
MODEL 4
REMARK VINA RESULT:      -7.6      3.459      7.143
REMARK  Name = 
REMARK  7 active torsions:
REMARK  status: ('A' for Active; 'I' for Inactive)
REMARK    1  A    between atoms: C_1  and  C_2
REMARK    2  A    between atoms: C_5  and  S_6
REMARK    3  A    between atoms: S_6  and  N_9
REMARK    4  A    between atoms: N_9  and  C_10
REMARK    5  A    between atoms: C_13  and  O_14
REMARK    6  A    between atoms: C_15  and  C_16
REMARK    7  A    between atoms: C_21  and  O_22
REMARK                            x       y       z     vdW  Elec       q    Type
REMARK                         _______ _______ _______ _____ _____    ______ ____
ROOT
ATOM      1  C   UNL     1       4.962   6.637  17.348  0.00  0.00    +0.000 A 
ATOM      2  C   UNL     1       5.848   6.315  18.367  0.00  0.00    +0.000 A 
ATOM      3  C   UNL     1       6.899   5.440  18.110  0.00  0.00    +0.000 A 
ATOM      4  C   UNL     1       7.075   4.914  16.823  0.00  0.00    +0.000 A 
ATOM      5  C   UNL     1       6.191   5.215  15.762  0.00  0.00    +0.000 A 
ATOM      6  C   UNL     1       5.123   6.085  16.075  0.00  0.00    +0.000 A 
ENDROOT
BRANCH   5   7
ATOM      7  C   UNL     1       6.316   4.642  14.383  0.00  0.00    +0.000 A 
ATOM      8  C   UNL     1       5.319   3.785  13.872  0.00  0.00    +0.000 A 
ATOM      9  C   UNL     1       5.387   3.243  12.583  0.00  0.00    +0.000 A 
ATOM     10  C   UNL     1       6.447   3.565  11.747  0.00  0.00    +0.000 A 
ATOM     11  C   UNL     1       7.445   4.419  12.204  0.00  0.00    +0.000 A 
ATOM     12  C   UNL     1       7.380   4.942  13.503  0.00  0.00    +0.000 A 
BRANCH  12  13
ATOM     13  O   UNL     1       8.399   5.765  13.907  0.00  0.00    +0.000 OA
ATOM     14  H   UNL     1       9.108   5.760  13.245  0.00  0.00    +0.000 HD
ENDBRANCH  12  13
ENDBRANCH   5   7
BRANCH   1  15
ATOM     15  N   UNL     1       3.904   7.557  17.592  0.00  0.00    +0.000 N 
ATOM     16  H   UNL     1       4.174   8.474  17.938  0.00  0.00    +0.000 HD
BRANCH  15  17
ATOM     17  S   UNL     1       2.507   6.997  18.373  0.00  0.00    +0.000 S 
ATOM     18  O   UNL     1       1.357   7.217  17.528  0.00  0.00    +0.000 OA
ATOM     19  O   UNL     1       2.565   7.537  19.715  0.00  0.00    +0.000 OA
BRANCH  17  24
ATOM     20  C   UNL     1       3.563   1.015  18.754  0.00  0.00    +0.000 C 
ATOM     21  C   UNL     1       3.288   2.487  18.656  0.00  0.00    +0.000 A 
ATOM     22  C   UNL     1       2.715   3.038  17.503  0.00  0.00    +0.000 A 
ATOM     23  C   UNL     1       2.459   4.409  17.425  0.00  0.00    +0.000 A 
ATOM     24  C   UNL     1       2.772   5.238  18.509  0.00  0.00    +0.000 A 
ATOM     25  C   UNL     1       3.365   4.705  19.655  0.00  0.00    +0.000 A 
ATOM     26  C   UNL     1       3.615   3.333  19.728  0.00  0.00    +0.000 A 
ENDBRANCH  17  24
ENDBRANCH  15  17
ENDBRANCH   1  15
BRANCH   4  27
ATOM     27  O   UNL     1       8.154   4.093  16.616  0.00  0.00    +0.000 OA
ATOM     28  H   UNL     1       8.214   3.870  15.672  0.00  0.00    +0.000 HD
ENDBRANCH   4  27
TORSDOF 6
ENDMDL
MODEL 5
REMARK VINA RESULT:      -7.6      3.541      7.549
REMARK  Name = 
REMARK  7 active torsions:
REMARK  status: ('A' for Active; 'I' for Inactive)
REMARK    1  A    between atoms: C_1  and  C_2
REMARK    2  A    between atoms: C_5  and  S_6
REMARK    3  A    between atoms: S_6  and  N_9
REMARK    4  A    between atoms: N_9  and  C_10
REMARK    5  A    between atoms: C_13  and  O_14
REMARK    6  A    between atoms: C_15  and  C_16
REMARK    7  A    between atoms: C_21  and  O_22
REMARK                            x       y       z     vdW  Elec       q    Type
REMARK                         _______ _______ _______ _____ _____    ______ ____
ROOT
ATOM      1  C   UNL     1       2.352   8.189  17.694  0.00  0.00    +0.000 A 
ATOM      2  C   UNL     1       3.691   8.252  17.335  0.00  0.00    +0.000 A 
ATOM      3  C   UNL     1       4.505   7.140  17.526  0.00  0.00    +0.000 A 
ATOM      4  C   UNL     1       3.964   5.957  18.049  0.00  0.00    +0.000 A 
ATOM      5  C   UNL     1       2.606   5.856  18.430  0.00  0.00    +0.000 A 
ATOM      6  C   UNL     1       1.825   7.018  18.245  0.00  0.00    +0.000 A 
ENDROOT
BRANCH   5   7
ATOM      7  C   UNL     1       1.998   4.628  19.033  0.00  0.00    +0.000 A 
ATOM      8  C   UNL     1       1.485   3.605  18.208  0.00  0.00    +0.000 A 
ATOM      9  C   UNL     1       0.925   2.432  18.728  0.00  0.00    +0.000 A 
ATOM     10  C   UNL     1       0.884   2.230  20.100  0.00  0.00    +0.000 A 
ATOM     11  C   UNL     1       1.393   3.204  20.952  0.00  0.00    +0.000 A 
ATOM     12  C   UNL     1       1.934   4.385  20.424  0.00  0.00    +0.000 A 
BRANCH  12  13
ATOM     13  O   UNL     1       2.405   5.319  21.309  0.00  0.00    +0.000 OA
ATOM     14  H   UNL     1       1.775   6.053  21.378  0.00  0.00    +0.000 HD
ENDBRANCH  12  13
ENDBRANCH   5   7
BRANCH   1  15
ATOM     15  N   UNL     1       1.504   9.310  17.471  0.00  0.00    +0.000 N 
ATOM     16  H   UNL     1       1.729   9.894  16.669  0.00  0.00    +0.000 HD
BRANCH  15  17
ATOM     17  S   UNL     1       1.042  10.254  18.802  0.00  0.00    +0.000 S 
ATOM     18  O   UNL     1       1.744  11.515  18.770  0.00  0.00    +0.000 OA
ATOM     19  O   UNL     1       1.127   9.379  19.952  0.00  0.00    +0.000 OA
BRANCH  17  24
ATOM     20  C   UNL     1      -4.824  11.465  17.727  0.00  0.00    +0.000 C 
ATOM     21  C   UNL     1      -3.381  11.165  18.007  0.00  0.00    +0.000 A 
ATOM     22  C   UNL     1      -2.677  11.868  18.992  0.00  0.00    +0.000 A 
ATOM     23  C   UNL     1      -1.334  11.577  19.247  0.00  0.00    +0.000 A 
ATOM     24  C   UNL     1      -0.690  10.571  18.518  0.00  0.00    +0.000 A 
ATOM     25  C   UNL     1      -1.374   9.878  17.517  0.00  0.00    +0.000 A 
ATOM     26  C   UNL     1      -2.717  10.172  17.269  0.00  0.00    +0.000 A 
ENDBRANCH  17  24
ENDBRANCH  15  17
ENDBRANCH   1  15
BRANCH   4  27
ATOM     27  O   UNL     1       4.802   4.878  18.173  0.00  0.00    +0.000 OA
ATOM     28  H   UNL     1       4.947   4.479  17.300  0.00  0.00    +0.000 HD
ENDBRANCH   4  27
TORSDOF 6
ENDMDL
MODEL 6
REMARK VINA RESULT:      -7.6      3.251      4.788
REMARK  Name = 
REMARK  7 active torsions:
REMARK  status: ('A' for Active; 'I' for Inactive)
REMARK    1  A    between atoms: C_1  and  C_2
REMARK    2  A    between atoms: C_5  and  S_6
REMARK    3  A    between atoms: S_6  and  N_9
REMARK    4  A    between atoms: N_9  and  C_10
REMARK    5  A    between atoms: C_13  and  O_14
REMARK    6  A    between atoms: C_15  and  C_16
REMARK    7  A    between atoms: C_21  and  O_22
REMARK                            x       y       z     vdW  Elec       q    Type
REMARK                         _______ _______ _______ _____ _____    ______ ____
ROOT
ATOM      1  C   UNL     1       2.375   6.937  19.710  0.00  0.00    +0.000 A 
ATOM      2  C   UNL     1       2.953   7.090  18.457  0.00  0.00    +0.000 A 
ATOM      3  C   UNL     1       2.676   8.230  17.709  0.00  0.00    +0.000 A 
ATOM      4  C   UNL     1       1.844   9.228  18.234  0.00  0.00    +0.000 A 
ATOM      5  C   UNL     1       1.234   9.106  19.504  0.00  0.00    +0.000 A 
ATOM      6  C   UNL     1       1.520   7.920  20.215  0.00  0.00    +0.000 A 
ENDROOT
BRANCH   5   7
ATOM      7  C   UNL     1       0.305  10.127  20.085  0.00  0.00    +0.000 A 
ATOM      8  C   UNL     1      -0.784  10.614  19.332  0.00  0.00    +0.000 A 
ATOM      9  C   UNL     1      -1.687  11.554  19.842  0.00  0.00    +0.000 A 
ATOM     10  C   UNL     1      -1.547  12.019  21.141  0.00  0.00    +0.000 A 
ATOM     11  C   UNL     1      -0.498  11.554  21.927  0.00  0.00    +0.000 A 
ATOM     12  C   UNL     1       0.414  10.628  21.401  0.00  0.00    +0.000 A 
BRANCH  12  13
ATOM     13  O   UNL     1       1.439  10.216  22.213  0.00  0.00    +0.000 OA
ATOM     14  H   UNL     1       2.204  10.802  22.099  0.00  0.00    +0.000 HD
ENDBRANCH  12  13
ENDBRANCH   5   7
BRANCH   1  15
ATOM     15  N   UNL     1       2.678   5.790  20.496  0.00  0.00    +0.000 N 
ATOM     16  H   UNL     1       3.498   5.857  21.094  0.00  0.00    +0.000 HD
BRANCH  15  17
ATOM     17  S   UNL     1       2.574   4.260  19.772  0.00  0.00    +0.000 S 
ATOM     18  O   UNL     1       1.338   4.156  19.033  0.00  0.00    +0.000 OA
ATOM     19  O   UNL     1       2.906   3.310  20.813  0.00  0.00    +0.000 OA
BRANCH  17  24
ATOM     20  C   UNL     1       7.146   4.385  15.757  0.00  0.00    +0.000 C 
ATOM     21  C   UNL     1       6.015   4.340  16.742  0.00  0.00    +0.000 A 
ATOM     22  C   UNL     1       4.711   4.043  16.328  0.00  0.00    +0.000 A 
ATOM     23  C   UNL     1       3.665   4.000  17.255  0.00  0.00    +0.000 A 
ATOM     24  C   UNL     1       3.925   4.249  18.608  0.00  0.00    +0.000 A 
ATOM     25  C   UNL     1       5.217   4.568  19.030  0.00  0.00    +0.000 A 
ATOM     26  C   UNL     1       6.257   4.606  18.099  0.00  0.00    +0.000 A 
ENDBRANCH  17  24
ENDBRANCH  15  17
ENDBRANCH   1  15
BRANCH   4  27
ATOM     27  O   UNL     1       1.643  10.351  17.473  0.00  0.00    +0.000 OA
ATOM     28  H   UNL     1       1.767  10.133  16.535  0.00  0.00    +0.000 HD
ENDBRANCH   4  27
TORSDOF 6
ENDMDL
MODEL 7
REMARK VINA RESULT:      -7.6      2.443      3.421
REMARK  Name = 
REMARK  7 active torsions:
REMARK  status: ('A' for Active; 'I' for Inactive)
REMARK    1  A    between atoms: C_1  and  C_2
REMARK    2  A    between atoms: C_5  and  S_6
REMARK    3  A    between atoms: S_6  and  N_9
REMARK    4  A    between atoms: N_9  and  C_10
REMARK    5  A    between atoms: C_13  and  O_14
REMARK    6  A    between atoms: C_15  and  C_16
REMARK    7  A    between atoms: C_21  and  O_22
REMARK                            x       y       z     vdW  Elec       q    Type
REMARK                         _______ _______ _______ _____ _____    ______ ____
ROOT
ATOM      1  C   UNL     1       4.566   4.087  19.397  0.00  0.00    +0.000 A 
ATOM      2  C   UNL     1       3.772   3.113  19.987  0.00  0.00    +0.000 A 
ATOM      3  C   UNL     1       2.472   3.427  20.372  0.00  0.00    +0.000 A 
ATOM      4  C   UNL     1       1.963   4.711  20.134  0.00  0.00    +0.000 A 
ATOM      5  C   UNL     1       2.742   5.730  19.540  0.00  0.00    +0.000 A 
ATOM      6  C   UNL     1       4.063   5.374  19.192  0.00  0.00    +0.000 A 
ENDROOT
BRANCH   5   7
ATOM      7  C   UNL     1       2.252   7.127  19.308  0.00  0.00    +0.000 A 
ATOM      8  C   UNL     1       2.244   7.675  18.008  0.00  0.00    +0.000 A 
ATOM      9  C   UNL     1       1.778   8.968  17.743  0.00  0.00    +0.000 A 
ATOM     10  C   UNL     1       1.275   9.751  18.773  0.00  0.00    +0.000 A 
ATOM     11  C   UNL     1       1.248   9.245  20.068  0.00  0.00    +0.000 A 
ATOM     12  C   UNL     1       1.736   7.957  20.328  0.00  0.00    +0.000 A 
BRANCH  12  13
ATOM     13  O   UNL     1       1.701   7.516  21.625  0.00  0.00    +0.000 OA
ATOM     14  H   UNL     1       0.914   7.866  22.071  0.00  0.00    +0.000 HD
ENDBRANCH  12  13
ENDBRANCH   5   7
BRANCH   1  15
ATOM     15  N   UNL     1       5.885   3.765  18.971  0.00  0.00    +0.000 N 
ATOM     16  H   UNL     1       6.468   3.272  19.643  0.00  0.00    +0.000 HD
BRANCH  15  17
ATOM     17  S   UNL     1       6.776   4.941  18.135  0.00  0.00    +0.000 S 
ATOM     18  O   UNL     1       8.178   4.798  18.444  0.00  0.00    +0.000 OA
ATOM     19  O   UNL     1       6.083   6.192  18.361  0.00  0.00    +0.000 OA
BRANCH  17  24
ATOM     20  C   UNL     1       5.845   3.627  12.266  0.00  0.00    +0.000 C 
ATOM     21  C   UNL     1       6.073   3.936  13.716  0.00  0.00    +0.000 A 
ATOM     22  C   UNL     1       5.185   3.481  14.698  0.00  0.00    +0.000 A 
ATOM     23  C   UNL     1       5.409   3.771  16.047  0.00  0.00    +0.000 A 
ATOM     24  C   UNL     1       6.535   4.516  16.419  0.00  0.00    +0.000 A 
ATOM     25  C   UNL     1       7.416   4.996  15.448  0.00  0.00    +0.000 A 
ATOM     26  C   UNL     1       7.187   4.699  14.102  0.00  0.00    +0.000 A 
ENDBRANCH  17  24
ENDBRANCH  15  17
ENDBRANCH   1  15
BRANCH   4  27
ATOM     27  O   UNL     1       0.660   4.953  20.492  0.00  0.00    +0.000 OA
ATOM     28  H   UNL     1       0.195   5.377  19.753  0.00  0.00    +0.000 HD
ENDBRANCH   4  27
TORSDOF 6
ENDMDL
MODEL 8
REMARK VINA RESULT:      -7.6      3.171      5.016
REMARK  Name = 
REMARK  7 active torsions:
REMARK  status: ('A' for Active; 'I' for Inactive)
REMARK    1  A    between atoms: C_1  and  C_2
REMARK    2  A    between atoms: C_5  and  S_6
REMARK    3  A    between atoms: S_6  and  N_9
REMARK    4  A    between atoms: N_9  and  C_10
REMARK    5  A    between atoms: C_13  and  O_14
REMARK    6  A    between atoms: C_15  and  C_16
REMARK    7  A    between atoms: C_21  and  O_22
REMARK                            x       y       z     vdW  Elec       q    Type
REMARK                         _______ _______ _______ _____ _____    ______ ____
ROOT
ATOM      1  C   UNL     1       2.271   7.145  19.822  0.00  0.00    +0.000 A 
ATOM      2  C   UNL     1       2.378   7.303  18.447  0.00  0.00    +0.000 A 
ATOM      3  C   UNL     1       1.847   8.439  17.843  0.00  0.00    +0.000 A 
ATOM      4  C   UNL     1       1.238   9.429  18.626  0.00  0.00    +0.000 A 
ATOM      5  C   UNL     1       1.107   9.302  20.029  0.00  0.00    +0.000 A 
ATOM      6  C   UNL     1       1.634   8.120  20.594  0.00  0.00    +0.000 A 
ENDROOT
BRANCH   5   7
ATOM      7  C   UNL     1       0.425  10.313  20.898  0.00  0.00    +0.000 A 
ATOM      8  C   UNL     1      -0.525   9.908  21.858  0.00  0.00    +0.000 A 
ATOM      9  C   UNL     1      -1.171  10.817  22.704  0.00  0.00    +0.000 A 
ATOM     10  C   UNL     1      -0.866  12.169  22.635  0.00  0.00    +0.000 A 
ATOM     11  C   UNL     1       0.077  12.613  21.715  0.00  0.00    +0.000 A 
ATOM     12  C   UNL     1       0.705  11.698  20.858  0.00  0.00    +0.000 A 
BRANCH  12  13
ATOM     13  O   UNL     1       1.614  12.192  19.958  0.00  0.00    +0.000 OA
ATOM     14  H   UNL     1       2.447  11.700  20.029  0.00  0.00    +0.000 HD
ENDBRANCH  12  13
ENDBRANCH   5   7
BRANCH   1  15
ATOM     15  N   UNL     1       2.840   6.003  20.451  0.00  0.00    +0.000 N 
ATOM     16  H   UNL     1       3.776   6.118  20.834  0.00  0.00    +0.000 HD
BRANCH  15  17
ATOM     17  S   UNL     1       2.668   4.493  19.699  0.00  0.00    +0.000 S 
ATOM     18  O   UNL     1       1.415   4.446  18.985  0.00  0.00    +0.000 OA
ATOM     19  O   UNL     1       2.990   3.511  20.714  0.00  0.00    +0.000 OA
BRANCH  17  24
ATOM     20  C   UNL     1       7.138   4.536  15.570  0.00  0.00    +0.000 C 
ATOM     21  C   UNL     1       6.033   4.510  16.584  0.00  0.00    +0.000 A 
ATOM     22  C   UNL     1       4.747   4.078  16.238  0.00  0.00    +0.000 A 
ATOM     23  C   UNL     1       3.727   4.055  17.193  0.00  0.00    +0.000 A 
ATOM     24  C   UNL     1       3.994   4.460  18.506  0.00  0.00    +0.000 A 
ATOM     25  C   UNL     1       5.265   4.915  18.858  0.00  0.00    +0.000 A 
ATOM     26  C   UNL     1       6.282   4.933  17.900  0.00  0.00    +0.000 A 
ENDBRANCH  17  24
ENDBRANCH  15  17
ENDBRANCH   1  15
BRANCH   4  27
ATOM     27  O   UNL     1       0.773  10.549  17.985  0.00  0.00    +0.000 OA
ATOM     28  H   UNL     1       0.492  10.313  17.086  0.00  0.00    +0.000 HD
ENDBRANCH   4  27
TORSDOF 6
ENDMDL
MODEL 9
REMARK VINA RESULT:      -7.6      3.390      7.228
REMARK  Name = 
REMARK  7 active torsions:
REMARK  status: ('A' for Active; 'I' for Inactive)
REMARK    1  A    between atoms: C_1  and  C_2
REMARK    2  A    between atoms: C_5  and  S_6
REMARK    3  A    between atoms: S_6  and  N_9
REMARK    4  A    between atoms: N_9  and  C_10
REMARK    5  A    between atoms: C_13  and  O_14
REMARK    6  A    between atoms: C_15  and  C_16
REMARK    7  A    between atoms: C_21  and  O_22
REMARK                            x       y       z     vdW  Elec       q    Type
REMARK                         _______ _______ _______ _____ _____    ______ ____
ROOT
ATOM      1  C   UNL     1       4.977   6.411  17.415  0.00  0.00    +0.000 A 
ATOM      2  C   UNL     1       5.884   6.073  18.410  0.00  0.00    +0.000 A 
ATOM      3  C   UNL     1       6.955   5.238  18.106  0.00  0.00    +0.000 A 
ATOM      4  C   UNL     1       7.130   4.771  16.797  0.00  0.00    +0.000 A 
ATOM      5  C   UNL     1       6.225   5.090  15.758  0.00  0.00    +0.000 A 
ATOM      6  C   UNL     1       5.138   5.916  16.119  0.00  0.00    +0.000 A 
ENDROOT
BRANCH   5   7
ATOM      7  C   UNL     1       6.349   4.578  14.356  0.00  0.00    +0.000 A 
ATOM      8  C   UNL     1       5.367   3.720  13.819  0.00  0.00    +0.000 A 
ATOM      9  C   UNL     1       5.434   3.233  12.508  0.00  0.00    +0.000 A 
ATOM     10  C   UNL     1       6.477   3.613  11.677  0.00  0.00    +0.000 A 
ATOM     11  C   UNL     1       7.460   4.471  12.159  0.00  0.00    +0.000 A 
ATOM     12  C   UNL     1       7.397   4.938  13.479  0.00  0.00    +0.000 A 
BRANCH  12  13
ATOM     13  O   UNL     1       8.401   5.767  13.908  0.00  0.00    +0.000 OA
ATOM     14  H   UNL     1       9.231   5.270  13.972  0.00  0.00    +0.000 HD
ENDBRANCH  12  13
ENDBRANCH   5   7
BRANCH   1  15
ATOM     15  N   UNL     1       3.897   7.291  17.709  0.00  0.00    +0.000 N 
ATOM     16  H   UNL     1       4.147   8.249  17.944  0.00  0.00    +0.000 HD
BRANCH  15  17
ATOM     17  S   UNL     1       2.638   6.728  18.695  0.00  0.00    +0.000 S 
ATOM     18  O   UNL     1       3.187   6.120  19.884  0.00  0.00    +0.000 OA
ATOM     19  O   UNL     1       1.753   5.990  17.818  0.00  0.00    +0.000 OA
BRANCH  17  24
ATOM     20  C   UNL     1      -0.453  11.727  20.273  0.00  0.00    +0.000 C 
ATOM     21  C   UNL     1       0.320  10.503  19.877  0.00  0.00    +0.000 A 
ATOM     22  C   UNL     1       0.740  10.313  18.556  0.00  0.00    +0.000 A 
ATOM     23  C   UNL     1       1.463   9.171  18.199  0.00  0.00    +0.000 A 
ATOM     24  C   UNL     1       1.776   8.214  19.173  0.00  0.00    +0.000 A 
ATOM     25  C   UNL     1       1.342   8.381  20.489  0.00  0.00    +0.000 A 
ATOM     26  C   UNL     1       0.623   9.526  20.839  0.00  0.00    +0.000 A 
ENDBRANCH  17  24
ENDBRANCH  15  17
ENDBRANCH   1  15
BRANCH   4  27
ATOM     27  O   UNL     1       8.228   3.989  16.544  0.00  0.00    +0.000 OA
ATOM     28  H   UNL     1       7.945   3.159  16.127  0.00  0.00    +0.000 HD
ENDBRANCH   4  27
TORSDOF 6
ENDMDL
