MODEL 1
REMARK VINA RESULT:      -7.7      0.000      0.000
REMARK  Name = 
REMARK  3 active torsions:
REMARK  status: ('A' for Active; 'I' for Inactive)
REMARK    1  A    between atoms: C_1  and  C_2
REMARK    2  A    between atoms: C_14  and  C_16
REMARK    3  A    between atoms: C_16  and  N_17
REMARK                            x       y       z     vdW  Elec       q    Type
REMARK                         _______ _______ _______ _____ _____    ______ ____
ROOT
ATOM      1  C   UNL     1       0.283  13.660  19.236  0.00  0.00    +0.000 C 
ATOM      2  C   UNL     1      -1.174  13.295  19.513  0.00  0.00    +0.000 C 
ATOM      3  C   UNL     1      -1.567  13.721  20.936  0.00  0.00    +0.000 C 
ATOM      4  C   UNL     1      -3.065  13.931  20.986  0.00  0.00    +0.000 C 
ATOM      5  O   UNL     1      -3.583  15.041  21.002  0.00  0.00    +0.000 OA
ATOM      6  N   UNL     1      -3.765  12.739  20.875  0.00  0.00    +0.000 N 
ATOM      7  C   UNL     1      -4.034  12.380  19.527  0.00  0.00    +0.000 A 
ATOM      8  C   UNL     1      -5.351  12.482  19.075  0.00  0.00    +0.000 A 
ATOM      9  C   UNL     1      -5.666  12.062  17.786  0.00  0.00    +0.000 A 
ATOM     10  C   UNL     1      -4.667  11.539  16.963  0.00  0.00    +0.000 A 
ATOM     11  C   UNL     1      -3.344  11.429  17.422  0.00  0.00    +0.000 A 
ATOM     12  C   UNL     1      -3.005  11.856  18.709  0.00  0.00    +0.000 A 
ATOM     13  N   UNL     1      -1.611  11.891  19.145  0.00  0.00    +0.000 N 
ATOM     14  C   UNL     1      -0.870  10.685  19.104  0.00  0.00    +0.000 C 
ATOM     15  O   UNL     1      -1.346   9.636  18.660  0.00  0.00    +0.000 OA
ATOM     16  H   UNL     1      -3.192  11.997  21.268  0.00  0.00    +0.000 HD
ENDROOT
BRANCH  14  17
ATOM     17  C   UNL     1       0.581  10.681  19.640  0.00  0.00    +0.000 C 
BRANCH  17  18
ATOM     18  N   UNL     1       1.291   9.393  19.586  0.00  0.00    +0.000 N 
ATOM     19  C   UNL     1       1.133   8.528  20.644  0.00  0.00    +0.000 A 
ATOM     20  N   UNL     1       1.531   7.305  20.688  0.00  0.00    +0.000 NA
ATOM     21  C   UNL     1       2.346   6.861  19.642  0.00  0.00    +0.000 A 
ATOM     22  C   UNL     1       3.044   5.668  19.839  0.00  0.00    +0.000 A 
ATOM     23  C   UNL     1       4.086   5.313  18.986  0.00  0.00    +0.000 A 
ATOM     24  C   UNL     1       4.363   6.102  17.869  0.00  0.00    +0.000 A 
ATOM     25  C   UNL     1       3.594   7.243  17.599  0.00  0.00    +0.000 A 
ATOM     26  C   UNL     1       2.610   7.642  18.515  0.00  0.00    +0.000 A 
ATOM     27  C   UNL     1       1.912   8.958  18.416  0.00  0.00    +0.000 A 
ATOM     28  O   UNL     1       1.877   9.568  17.354  0.00  0.00    +0.000 OA
ENDBRANCH  17  18
ENDBRANCH  14  17
TORSDOF 2
ENDMDL
MODEL 2
REMARK VINA RESULT:      -7.6      1.018      1.594
REMARK  Name = 
REMARK  3 active torsions:
REMARK  status: ('A' for Active; 'I' for Inactive)
REMARK    1  A    between atoms: C_1  and  C_2
REMARK    2  A    between atoms: C_14  and  C_16
REMARK    3  A    between atoms: C_16  and  N_17
REMARK                            x       y       z     vdW  Elec       q    Type
REMARK                         _______ _______ _______ _____ _____    ______ ____
ROOT
ATOM      1  C   UNL     1       0.293  13.438  19.239  0.00  0.00    +0.000 C 
ATOM      2  C   UNL     1      -1.184  13.171  19.518  0.00  0.00    +0.000 C 
ATOM      3  C   UNL     1      -1.550  13.636  20.935  0.00  0.00    +0.000 C 
ATOM      4  C   UNL     1      -3.031  13.943  20.981  0.00  0.00    +0.000 C 
ATOM      5  O   UNL     1      -3.476  15.084  20.985  0.00  0.00    +0.000 OA
ATOM      6  N   UNL     1      -3.807  12.798  20.881  0.00  0.00    +0.000 N 
ATOM      7  C   UNL     1      -4.098  12.443  19.536  0.00  0.00    +0.000 A 
ATOM      8  C   UNL     1      -5.404  12.625  19.081  0.00  0.00    +0.000 A 
ATOM      9  C   UNL     1      -5.744  12.213  17.796  0.00  0.00    +0.000 A 
ATOM     10  C   UNL     1      -4.780  11.618  16.980  0.00  0.00    +0.000 A 
ATOM     11  C   UNL     1      -3.468  11.427  17.442  0.00  0.00    +0.000 A 
ATOM     12  C   UNL     1      -3.103  11.845  18.726  0.00  0.00    +0.000 A 
ATOM     13  N   UNL     1      -1.711  11.794  19.163  0.00  0.00    +0.000 N 
ATOM     14  C   UNL     1      -1.049  10.543  19.136  0.00  0.00    +0.000 C 
ATOM     15  O   UNL     1      -1.591   9.522  18.702  0.00  0.00    +0.000 OA
ATOM     16  H   UNL     1      -3.283  12.024  21.283  0.00  0.00    +0.000 HD
ENDROOT
BRANCH  14  17
ATOM     17  C   UNL     1       0.398  10.450  19.675  0.00  0.00    +0.000 C 
BRANCH  17  18
ATOM     18  N   UNL     1       1.197   9.307  19.204  0.00  0.00    +0.000 N 
ATOM     19  C   UNL     1       1.769   9.394  17.956  0.00  0.00    +0.000 A 
ATOM     20  N   UNL     1       2.630   8.577  17.460  0.00  0.00    +0.000 NA
ATOM     21  C   UNL     1       2.884   7.404  18.176  0.00  0.00    +0.000 A 
ATOM     22  C   UNL     1       3.549   6.376  17.503  0.00  0.00    +0.000 A 
ATOM     23  C   UNL     1       3.579   5.090  18.036  0.00  0.00    +0.000 A 
ATOM     24  C   UNL     1       3.033   4.853  19.298  0.00  0.00    +0.000 A 
ATOM     25  C   UNL     1       2.461   5.903  20.031  0.00  0.00    +0.000 A 
ATOM     26  C   UNL     1       2.353   7.172  19.446  0.00  0.00    +0.000 A 
ATOM     27  C   UNL     1       1.560   8.274  20.068  0.00  0.00    +0.000 A 
ATOM     28  O   UNL     1       1.296   8.256  21.264  0.00  0.00    +0.000 OA
ENDBRANCH  17  18
ENDBRANCH  14  17
TORSDOF 2
ENDMDL
MODEL 3
REMARK VINA RESULT:      -7.6      1.481      1.987
REMARK  Name = 
REMARK  3 active torsions:
REMARK  status: ('A' for Active; 'I' for Inactive)
REMARK    1  A    between atoms: C_1  and  C_2
REMARK    2  A    between atoms: C_14  and  C_16
REMARK    3  A    between atoms: C_16  and  N_17
REMARK                            x       y       z     vdW  Elec       q    Type
REMARK                         _______ _______ _______ _____ _____    ______ ____
ROOT
ATOM      1  C   UNL     1       1.178  13.042  18.573  0.00  0.00    +0.000 C 
ATOM      2  C   UNL     1      -0.280  12.702  18.873  0.00  0.00    +0.000 C 
ATOM      3  C   UNL     1      -0.600  12.993  20.347  0.00  0.00    +0.000 C 
ATOM      4  C   UNL     1      -2.085  13.249  20.483  0.00  0.00    +0.000 C 
ATOM      5  O   UNL     1      -2.558  14.370  20.634  0.00  0.00    +0.000 OA
ATOM      6  N   UNL     1      -2.837  12.101  20.279  0.00  0.00    +0.000 N 
ATOM      7  C   UNL     1      -3.172  11.894  18.915  0.00  0.00    +0.000 A 
ATOM      8  C   UNL     1      -4.500  12.089  18.532  0.00  0.00    +0.000 A 
ATOM      9  C   UNL     1      -4.880  11.816  17.222  0.00  0.00    +0.000 A 
ATOM     10  C   UNL     1      -3.935  11.346  16.308  0.00  0.00    +0.000 A 
ATOM     11  C   UNL     1      -2.601  11.142  16.696  0.00  0.00    +0.000 A 
ATOM     12  C   UNL     1      -2.196  11.421  18.005  0.00  0.00    +0.000 A 
ATOM     13  N   UNL     1      -0.787  11.361  18.382  0.00  0.00    +0.000 N 
ATOM     14  C   UNL     1      -0.096  10.140  18.187  0.00  0.00    +0.000 C 
ATOM     15  O   UNL     1      -0.630   9.160  17.658  0.00  0.00    +0.000 OA
ATOM     16  H   UNL     1      -2.278  11.303  20.571  0.00  0.00    +0.000 HD
ENDROOT
BRANCH  14  17
ATOM     17  C   UNL     1       1.373  10.028  18.657  0.00  0.00    +0.000 C 
BRANCH  17  18
ATOM     18  N   UNL     1       1.931   8.668  18.732  0.00  0.00    +0.000 N 
ATOM     19  C   UNL     1       2.805   8.278  17.745  0.00  0.00    +0.000 A 
ATOM     20  N   UNL     1       3.515   7.205  17.743  0.00  0.00    +0.000 NA
ATOM     21  C   UNL     1       3.256   6.266  18.746  0.00  0.00    +0.000 A 
ATOM     22  C   UNL     1       3.772   4.981  18.567  0.00  0.00    +0.000 A 
ATOM     23  C   UNL     1       3.321   3.925  19.355  0.00  0.00    +0.000 A 
ATOM     24  C   UNL     1       2.428   4.174  20.398  0.00  0.00    +0.000 A 
ATOM     25  C   UNL     1       1.989   5.481  20.657  0.00  0.00    +0.000 A 
ATOM     26  C   UNL     1       2.376   6.520  19.800  0.00  0.00    +0.000 A 
ATOM     27  C   UNL     1       1.773   7.884  19.874  0.00  0.00    +0.000 A 
ATOM     28  O   UNL     1       1.218   8.266  20.897  0.00  0.00    +0.000 OA
ENDBRANCH  17  18
ENDBRANCH  14  17
TORSDOF 2
ENDMDL
MODEL 4
REMARK VINA RESULT:      -7.2      3.166      9.296
REMARK  Name = 
REMARK  3 active torsions:
REMARK  status: ('A' for Active; 'I' for Inactive)
REMARK    1  A    between atoms: C_1  and  C_2
REMARK    2  A    between atoms: C_14  and  C_16
REMARK    3  A    between atoms: C_16  and  N_17
REMARK                            x       y       z     vdW  Elec       q    Type
REMARK                         _______ _______ _______ _____ _____    ______ ____
ROOT
ATOM      1  C   UNL     1       1.354   4.424  18.750  0.00  0.00    +0.000 C 
ATOM      2  C   UNL     1       2.879   4.430  18.663  0.00  0.00    +0.000 C 
ATOM      3  C   UNL     1       3.486   3.825  19.938  0.00  0.00    +0.000 C 
ATOM      4  C   UNL     1       4.859   3.279  19.613  0.00  0.00    +0.000 C 
ATOM      5  O   UNL     1       5.088   2.083  19.485  0.00  0.00    +0.000 OA
ATOM      6  N   UNL     1       5.775   4.287  19.348  0.00  0.00    +0.000 N 
ATOM      7  C   UNL     1       5.793   4.671  17.981  0.00  0.00    +0.000 A 
ATOM      8  C   UNL     1       6.902   4.307  17.215  0.00  0.00    +0.000 A 
ATOM      9  C   UNL     1       6.992   4.737  15.895  0.00  0.00    +0.000 A 
ATOM     10  C   UNL     1       5.979   5.529  15.352  0.00  0.00    +0.000 A 
ATOM     11  C   UNL     1       4.868   5.902  16.125  0.00  0.00    +0.000 A 
ATOM     12  C   UNL     1       4.753   5.472  17.451  0.00  0.00    +0.000 A 
ATOM     13  N   UNL     1       3.535   5.721  18.217  0.00  0.00    +0.000 N 
ATOM     14  C   UNL     1       3.112   7.063  18.378  0.00  0.00    +0.000 C 
ATOM     15  O   UNL     1       3.703   8.007  17.844  0.00  0.00    +0.000 OA
ATOM     16  H   UNL     1       5.503   5.109  19.882  0.00  0.00    +0.000 HD
ENDROOT
BRANCH  14  17
ATOM     17  C   UNL     1       1.874   7.357  19.257  0.00  0.00    +0.000 C 
BRANCH  17  18
ATOM     18  N   UNL     1       1.355   8.734  19.212  0.00  0.00    +0.000 N 
ATOM     19  C   UNL     1       0.895   9.208  18.006  0.00  0.00    +0.000 A 
ATOM     20  N   UNL     1       0.255  10.309  17.820  0.00  0.00    +0.000 NA
ATOM     21  C   UNL     1       0.165  11.186  18.905  0.00  0.00    +0.000 A 
ATOM     22  C   UNL     1      -0.226  12.499  18.633  0.00  0.00    +0.000 A 
ATOM     23  C   UNL     1      -0.059  13.495  19.591  0.00  0.00    +0.000 A 
ATOM     24  C   UNL     1       0.402  13.158  20.865  0.00  0.00    +0.000 A 
ATOM     25  C   UNL     1       0.692  11.824  21.183  0.00  0.00    +0.000 A 
ATOM     26  C   UNL     1       0.610  10.844  20.183  0.00  0.00    +0.000 A 
ATOM     27  C   UNL     1       1.117   9.454  20.382  0.00  0.00    +0.000 A 
ATOM     28  O   UNL     1       1.267   9.000  21.510  0.00  0.00    +0.000 OA
ENDBRANCH  17  18
ENDBRANCH  14  17
TORSDOF 2
ENDMDL
MODEL 5
REMARK VINA RESULT:      -7.2      1.879      2.530
REMARK  Name = 
REMARK  3 active torsions:
REMARK  status: ('A' for Active; 'I' for Inactive)
REMARK    1  A    between atoms: C_1  and  C_2
REMARK    2  A    between atoms: C_14  and  C_16
REMARK    3  A    between atoms: C_16  and  N_17
REMARK                            x       y       z     vdW  Elec       q    Type
REMARK                         _______ _______ _______ _____ _____    ______ ____
ROOT
ATOM      1  C   UNL     1       0.219  14.356  20.566  0.00  0.00    +0.000 C 
ATOM      2  C   UNL     1      -1.006  13.751  21.250  0.00  0.00    +0.000 C 
ATOM      3  C   UNL     1      -0.724  13.524  22.742  0.00  0.00    +0.000 C 
ATOM      4  C   UNL     1      -2.037  13.528  23.494  0.00  0.00    +0.000 C 
ATOM      5  O   UNL     1      -2.412  14.474  24.177  0.00  0.00    +0.000 OA
ATOM      6  N   UNL     1      -2.808  12.411  23.207  0.00  0.00    +0.000 N 
ATOM      7  C   UNL     1      -3.651  12.596  22.079  0.00  0.00    +0.000 A 
ATOM      8  C   UNL     1      -5.023  12.724  22.303  0.00  0.00    +0.000 A 
ATOM      9  C   UNL     1      -5.886  12.824  21.216  0.00  0.00    +0.000 A 
ATOM     10  C   UNL     1      -5.374  12.790  19.917  0.00  0.00    +0.000 A 
ATOM     11  C   UNL     1      -3.995  12.653  19.693  0.00  0.00    +0.000 A 
ATOM     12  C   UNL     1      -3.109  12.562  20.772  0.00  0.00    +0.000 A 
ATOM     13  N   UNL     1      -1.665  12.574  20.558  0.00  0.00    +0.000 N 
ATOM     14  C   UNL     1      -1.107  11.576  19.723  0.00  0.00    +0.000 C 
ATOM     15  O   UNL     1      -1.805  10.747  19.131  0.00  0.00    +0.000 OA
ATOM     16  H   UNL     1      -2.181  11.643  22.984  0.00  0.00    +0.000 HD
ENDROOT
BRANCH  14  17
ATOM     17  C   UNL     1       0.430  11.518  19.551  0.00  0.00    +0.000 C 
BRANCH  17  18
ATOM     18  N   UNL     1       1.006  10.190  19.284  0.00  0.00    +0.000 N 
ATOM     19  C   UNL     1       1.535   9.959  18.036  0.00  0.00    +0.000 A 
ATOM     20  N   UNL     1       2.226   8.932  17.685  0.00  0.00    +0.000 NA
ATOM     21  C   UNL     1       2.307   7.875  18.597  0.00  0.00    +0.000 A 
ATOM     22  C   UNL     1       2.763   6.648  18.112  0.00  0.00    +0.000 A 
ATOM     23  C   UNL     1       2.597   5.488  18.865  0.00  0.00    +0.000 A 
ATOM     24  C   UNL     1       2.069   5.572  20.154  0.00  0.00    +0.000 A 
ATOM     25  C   UNL     1       1.712   6.816  20.694  0.00  0.00    +0.000 A 
ATOM     26  C   UNL     1       1.795   7.963  19.893  0.00  0.00    +0.000 A 
ATOM     27  C   UNL     1       1.224   9.276  20.315  0.00  0.00    +0.000 A 
ATOM     28  O   UNL     1       1.008   9.512  21.497  0.00  0.00    +0.000 OA
ENDBRANCH  17  18
ENDBRANCH  14  17
TORSDOF 2
ENDMDL
MODEL 6
REMARK VINA RESULT:      -7.1      1.412      1.969
REMARK  Name = 
REMARK  3 active torsions:
REMARK  status: ('A' for Active; 'I' for Inactive)
REMARK    1  A    between atoms: C_1  and  C_2
REMARK    2  A    between atoms: C_14  and  C_16
REMARK    3  A    between atoms: C_16  and  N_17
REMARK                            x       y       z     vdW  Elec       q    Type
REMARK                         _______ _______ _______ _____ _____    ______ ____
ROOT
ATOM      1  C   UNL     1       1.070  13.361  18.477  0.00  0.00    +0.000 C 
ATOM      2  C   UNL     1      -0.235  13.316  19.269  0.00  0.00    +0.000 C 
ATOM      3  C   UNL     1      -0.062  14.028  20.619  0.00  0.00    +0.000 C 
ATOM      4  C   UNL     1      -1.415  14.512  21.092  0.00  0.00    +0.000 C 
ATOM      5  O   UNL     1      -1.761  15.686  21.036  0.00  0.00    +0.000 OA
ATOM      6  N   UNL     1      -2.248  13.466  21.460  0.00  0.00    +0.000 N 
ATOM      7  C   UNL     1      -3.004  12.953  20.373  0.00  0.00    +0.000 A 
ATOM      8  C   UNL     1      -4.374  13.220  20.346  0.00  0.00    +0.000 A 
ATOM      9  C   UNL     1      -5.159  12.664  19.341  0.00  0.00    +0.000 A 
ATOM     10  C   UNL     1      -4.573  11.844  18.375  0.00  0.00    +0.000 A 
ATOM     11  C   UNL     1      -3.196  11.569  18.407  0.00  0.00    +0.000 A 
ATOM     12  C   UNL     1      -2.387  12.126  19.403  0.00  0.00    +0.000 A 
ATOM     13  N   UNL     1      -0.936  11.976  19.361  0.00  0.00    +0.000 N 
ATOM     14  C   UNL     1      -0.402  10.664  19.344  0.00  0.00    +0.000 C 
ATOM     15  O   UNL     1      -1.123   9.662  19.303  0.00  0.00    +0.000 OA
ATOM     16  H   UNL     1      -1.666  12.704  21.801  0.00  0.00    +0.000 HD
ENDROOT
BRANCH  14  17
ATOM     17  C   UNL     1       1.133  10.480  19.386  0.00  0.00    +0.000 C 
BRANCH  17  18
ATOM     18  N   UNL     1       1.636   9.131  19.081  0.00  0.00    +0.000 N 
ATOM     19  C   UNL     1       2.273   8.940  17.877  0.00  0.00    +0.000 A 
ATOM     20  N   UNL     1       2.921   7.887  17.522  0.00  0.00    +0.000 NA
ATOM     21  C   UNL     1       2.832   6.770  18.358  0.00  0.00    +0.000 A 
ATOM     22  C   UNL     1       3.245   5.544  17.832  0.00  0.00    +0.000 A 
ATOM     23  C   UNL     1       2.920   4.355  18.480  0.00  0.00    +0.000 A 
ATOM     24  C   UNL     1       2.269   4.396  19.714  0.00  0.00    +0.000 A 
ATOM     25  C   UNL     1       1.949   5.627  20.305  0.00  0.00    +0.000 A 
ATOM     26  C   UNL     1       2.197   6.814  19.601  0.00  0.00    +0.000 A 
ATOM     27  C   UNL     1       1.681   8.138  20.059  0.00  0.00    +0.000 A 
ATOM     28  O   UNL     1       1.362   8.313  21.229  0.00  0.00    +0.000 OA
ENDBRANCH  17  18
ENDBRANCH  14  17
TORSDOF 2
ENDMDL
MODEL 7
REMARK VINA RESULT:      -7.1      0.923      1.089
REMARK  Name = 
REMARK  3 active torsions:
REMARK  status: ('A' for Active; 'I' for Inactive)
REMARK    1  A    between atoms: C_1  and  C_2
REMARK    2  A    between atoms: C_14  and  C_16
REMARK    3  A    between atoms: C_16  and  N_17
REMARK                            x       y       z     vdW  Elec       q    Type
REMARK                         _______ _______ _______ _____ _____    ______ ____
ROOT
ATOM      1  C   UNL     1       0.826  13.650  19.760  0.00  0.00    +0.000 C 
ATOM      2  C   UNL     1      -0.551  13.331  20.338  0.00  0.00    +0.000 C 
ATOM      3  C   UNL     1      -0.564  13.590  21.852  0.00  0.00    +0.000 C 
ATOM      4  C   UNL     1      -1.986  13.872  22.287  0.00  0.00    +0.000 C 
ATOM      5  O   UNL     1      -2.391  14.997  22.554  0.00  0.00    +0.000 OA
ATOM      6  N   UNL     1      -2.790  12.744  22.214  0.00  0.00    +0.000 N 
ATOM      7  C   UNL     1      -3.395  12.579  20.940  0.00  0.00    +0.000 A 
ATOM      8  C   UNL     1      -4.768  12.809  20.835  0.00  0.00    +0.000 A 
ATOM      9  C   UNL     1      -5.409  12.578  19.622  0.00  0.00    +0.000 A 
ATOM     10  C   UNL     1      -4.676  12.113  18.527  0.00  0.00    +0.000 A 
ATOM     11  C   UNL     1      -3.297  11.873  18.636  0.00  0.00    +0.000 A 
ATOM     12  C   UNL     1      -2.632  12.110  19.844  0.00  0.00    +0.000 A 
ATOM     13  N   UNL     1      -1.178  12.013  19.930  0.00  0.00    +0.000 N 
ATOM     14  C   UNL     1      -0.570  10.785  19.575  0.00  0.00    +0.000 C 
ATOM     15  O   UNL     1      -1.222   9.829  19.143  0.00  0.00    +0.000 OA
ATOM     16  H   UNL     1      -2.204  11.927  22.371  0.00  0.00    +0.000 HD
ENDROOT
BRANCH  14  17
ATOM     17  C   UNL     1       0.961  10.632  19.740  0.00  0.00    +0.000 C 
BRANCH  17  18
ATOM     18  N   UNL     1       1.487   9.258  19.694  0.00  0.00    +0.000 N 
ATOM     19  C   UNL     1       1.233   8.438  20.768  0.00  0.00    +0.000 A 
ATOM     20  N   UNL     1       1.461   7.172  20.824  0.00  0.00    +0.000 NA
ATOM     21  C   UNL     1       2.187   6.607  19.772  0.00  0.00    +0.000 A 
ATOM     22  C   UNL     1       2.719   5.332  19.975  0.00  0.00    +0.000 A 
ATOM     23  C   UNL     1       3.686   4.826  19.110  0.00  0.00    +0.000 A 
ATOM     24  C   UNL     1       4.045   5.555  17.975  0.00  0.00    +0.000 A 
ATOM     25  C   UNL     1       3.434   6.787  17.701  0.00  0.00    +0.000 A 
ATOM     26  C   UNL     1       2.533   7.329  18.627  0.00  0.00    +0.000 A 
ATOM     27  C   UNL     1       2.019   8.727  18.520  0.00  0.00    +0.000 A 
ATOM     28  O   UNL     1       2.047   9.321  17.449  0.00  0.00    +0.000 OA
ENDBRANCH  17  18
ENDBRANCH  14  17
TORSDOF 2
ENDMDL
MODEL 8
REMARK VINA RESULT:      -7.1      3.467      8.950
REMARK  Name = 
REMARK  3 active torsions:
REMARK  status: ('A' for Active; 'I' for Inactive)
REMARK    1  A    between atoms: C_1  and  C_2
REMARK    2  A    between atoms: C_14  and  C_16
REMARK    3  A    between atoms: C_16  and  N_17
REMARK                            x       y       z     vdW  Elec       q    Type
REMARK                         _______ _______ _______ _____ _____    ______ ____
ROOT
ATOM      1  C   UNL     1       1.282   4.732  17.317  0.00  0.00    +0.000 C 
ATOM      2  C   UNL     1       2.673   4.740  17.948  0.00  0.00    +0.000 C 
ATOM      3  C   UNL     1       2.608   4.198  19.384  0.00  0.00    +0.000 C 
ATOM      4  C   UNL     1       3.965   3.644  19.758  0.00  0.00    +0.000 C 
ATOM      5  O   UNL     1       4.206   2.443  19.804  0.00  0.00    +0.000 OA
ATOM      6  N   UNL     1       4.918   4.641  19.904  0.00  0.00    +0.000 N 
ATOM      7  C   UNL     1       5.575   4.960  18.687  0.00  0.00    +0.000 A 
ATOM      8  C   UNL     1       6.906   4.565  18.540  0.00  0.00    +0.000 A 
ATOM      9  C   UNL     1       7.606   4.931  17.395  0.00  0.00    +0.000 A 
ATOM     10  C   UNL     1       6.975   5.693  16.410  0.00  0.00    +0.000 A 
ATOM     11  C   UNL     1       5.639   6.098  16.562  0.00  0.00    +0.000 A 
ATOM     12  C   UNL     1       4.914   5.731  17.700  0.00  0.00    +0.000 A 
ATOM     13  N   UNL     1       3.485   6.011  17.802  0.00  0.00    +0.000 N 
ATOM     14  C   UNL     1       3.061   7.357  17.689  0.00  0.00    +0.000 C 
ATOM     15  O   UNL     1       3.849   8.277  17.450  0.00  0.00    +0.000 OA
ATOM     16  H   UNL     1       4.445   5.487  20.215  0.00  0.00    +0.000 HD
ENDROOT
BRANCH  14  17
ATOM     17  C   UNL     1       1.561   7.688  17.878  0.00  0.00    +0.000 C 
BRANCH  17  18
ATOM     18  N   UNL     1       1.179   8.256  19.181  0.00  0.00    +0.000 N 
ATOM     19  C   UNL     1       1.554   7.572  20.314  0.00  0.00    +0.000 A 
ATOM     20  N   UNL     1       1.460   8.002  21.523  0.00  0.00    +0.000 NA
ATOM     21  C   UNL     1       0.761   9.196  21.724  0.00  0.00    +0.000 A 
ATOM     22  C   UNL     1       0.371   9.496  23.031  0.00  0.00    +0.000 A 
ATOM     23  C   UNL     1      -0.567  10.496  23.273  0.00  0.00    +0.000 A 
ATOM     24  C   UNL     1      -1.039  11.272  22.214  0.00  0.00    +0.000 A 
ATOM     25  C   UNL     1      -0.569  11.053  20.911  0.00  0.00    +0.000 A 
ATOM     26  C   UNL     1       0.303   9.983  20.665  0.00  0.00    +0.000 A 
ATOM     27  C   UNL     1       0.665   9.548  19.283  0.00  0.00    +0.000 A 
ATOM     28  O   UNL     1       0.539  10.313  18.335  0.00  0.00    +0.000 OA
ENDBRANCH  17  18
ENDBRANCH  14  17
TORSDOF 2
ENDMDL
MODEL 9
REMARK VINA RESULT:      -7.1      3.146      7.242
REMARK  Name = 
REMARK  3 active torsions:
REMARK  status: ('A' for Active; 'I' for Inactive)
REMARK    1  A    between atoms: C_1  and  C_2
REMARK    2  A    between atoms: C_14  and  C_16
REMARK    3  A    between atoms: C_16  and  N_17
REMARK                            x       y       z     vdW  Elec       q    Type
REMARK                         _______ _______ _______ _____ _____    ______ ____
ROOT
ATOM      1  C   UNL     1      -1.656  11.404  19.102  0.00  0.00    +0.000 C 
ATOM      2  C   UNL     1      -0.604  10.453  19.670  0.00  0.00    +0.000 C 
ATOM      3  C   UNL     1      -0.665  10.448  21.204  0.00  0.00    +0.000 C 
ATOM      4  C   UNL     1      -0.110   9.135  21.711  0.00  0.00    +0.000 C 
ATOM      5  O   UNL     1      -0.820   8.231  22.136  0.00  0.00    +0.000 OA
ATOM      6  N   UNL     1       1.258   9.031  21.510  0.00  0.00    +0.000 N 
ATOM      7  C   UNL     1       1.590   8.484  20.241  0.00  0.00    +0.000 A 
ATOM      8  C   UNL     1       2.108   7.188  20.204  0.00  0.00    +0.000 A 
ATOM      9  C   UNL     1       2.520   6.651  18.989  0.00  0.00    +0.000 A 
ATOM     10  C   UNL     1       2.418   7.413  17.823  0.00  0.00    +0.000 A 
ATOM     11  C   UNL     1       1.905   8.720  17.862  0.00  0.00    +0.000 A 
ATOM     12  C   UNL     1       1.474   9.274  19.072  0.00  0.00    +0.000 A 
ATOM     13  N   UNL     1       0.798  10.567  19.106  0.00  0.00    +0.000 N 
ATOM     14  C   UNL     1       1.480  11.689  18.574  0.00  0.00    +0.000 C 
ATOM     15  O   UNL     1       2.587  11.591  18.036  0.00  0.00    +0.000 OA
ATOM     16  H   UNL     1       1.654   9.967  21.540  0.00  0.00    +0.000 HD
ENDROOT
BRANCH  14  17
ATOM     17  C   UNL     1       0.819  13.084  18.676  0.00  0.00    +0.000 C 
BRANCH  17  18
ATOM     18  N   UNL     1       1.409  14.015  19.651  0.00  0.00    +0.000 N 
ATOM     19  C   UNL     1       1.194  13.766  20.986  0.00  0.00    +0.000 A 
ATOM     20  N   UNL     1       1.770  14.364  21.970  0.00  0.00    +0.000 NA
ATOM     21  C   UNL     1       2.555  15.480  21.667  0.00  0.00    +0.000 A 
ATOM     22  C   UNL     1       2.907  16.320  22.726  0.00  0.00    +0.000 A 
ATOM     23  C   UNL     1       3.427  17.587  22.476  0.00  0.00    +0.000 A 
ATOM     24  C   UNL     1       3.695  17.977  21.163  0.00  0.00    +0.000 A 
ATOM     25  C   UNL     1       3.449  17.098  20.099  0.00  0.00    +0.000 A 
ATOM     26  C   UNL     1       2.839  15.862  20.354  0.00  0.00    +0.000 A 
ATOM     27  C   UNL     1       2.341  14.975  19.261  0.00  0.00    +0.000 A 
ATOM     28  O   UNL     1       2.772  15.089  18.120  0.00  0.00    +0.000 OA
ENDBRANCH  17  18
ENDBRANCH  14  17
TORSDOF 2
ENDMDL
