MODEL 1
REMARK VINA RESULT:      -7.2      0.000      0.000
REMARK  Name = 
REMARK  7 active torsions:
REMARK  status: ('A' for Active; 'I' for Inactive)
REMARK    1  A    between atoms: N_1  and  C_2
REMARK    2  A    between atoms: C_2  and  C_3
REMARK    3  A    between atoms: C_3  and  C_4
REMARK    4  A    between atoms: C_4  and  N_5
REMARK    5  A    between atoms: C_6  and  C_7
REMARK    6  A    between atoms: C_7  and  C_9
REMARK    7  A    between atoms: C_13  and  N_14
REMARK                            x       y       z     vdW  Elec       q    Type
REMARK                         _______ _______ _______ _____ _____    ______ ____
ROOT
ATOM      1  N   UNL     1       2.859   3.906  19.734  0.00  0.00    +0.000 N 
ATOM      2  C   UNL     1       2.921   4.548  18.518  0.00  0.00    +0.000 A 
ATOM      3  C   UNL     1       2.511   5.880  18.735  0.00  0.00    +0.000 A 
ATOM      4  C   UNL     1       2.304   6.993  17.900  0.00  0.00    +0.000 A 
ATOM      5  C   UNL     1       1.915   8.208  18.481  0.00  0.00    +0.000 A 
ATOM      6  C   UNL     1       1.699   8.300  19.871  0.00  0.00    +0.000 A 
ATOM      7  C   UNL     1       1.864   7.171  20.685  0.00  0.00    +0.000 A 
ATOM      8  C   UNL     1       2.268   5.980  20.081  0.00  0.00    +0.000 A 
ATOM      9  N   UNL     1       2.482   4.795  20.655  0.00  0.00    +0.000 N 
ATOM     10  O   UNL     1       2.344   4.537  21.953  0.00  0.00    +0.000 OA
ENDROOT
BRANCH   2  11
ATOM     11  C   UNL     1       3.309   3.931  17.200  0.00  0.00    +0.000 C 
ATOM     12  O   UNL     1       2.512   3.207  16.622  0.00  0.00    +0.000 OA
BRANCH  11  13
ATOM     13  C   UNL     1       4.586   4.271  16.505  0.00  0.00    +0.000 A 
ATOM     14  C   UNL     1       4.859   3.739  15.236  0.00  0.00    +0.000 A 
ATOM     15  C   UNL     1       5.984   4.154  14.513  0.00  0.00    +0.000 A 
ATOM     16 CL   UNL     1       6.211   3.496  12.895  0.00  0.00    +0.000 Cl
ATOM     17  C   UNL     1       6.873   5.104  15.060  0.00  0.00    +0.000 A 
ATOM     18  C   UNL     1       6.644   5.578  16.368  0.00  0.00    +0.000 A 
ATOM     19 CL   UNL     1       7.712   6.749  17.136  0.00  0.00    +0.000 Cl
ATOM     20  C   UNL     1       5.518   5.153  17.080  0.00  0.00    +0.000 A 
BRANCH  17  21
ATOM     21  N   UNL     1       7.971   5.594  14.298  0.00  0.00    +0.000 N 
ATOM     22  H   UNL     1       7.955   5.589  13.268  0.00  0.00    +0.000 HD
ATOM     23  H   UNL     1       8.779   6.046  14.747  0.00  0.00    +0.000 HD
ENDBRANCH  17  21
ENDBRANCH  11  13
ENDBRANCH   2  11
BRANCH   1  24
ATOM     24  C   UNL     1       3.194   2.511  20.074  0.00  0.00    +0.000 C 
BRANCH  24  25
ATOM     25  C   UNL     1       4.702   2.331  20.351  0.00  0.00    +0.000 C 
BRANCH  25  26
ATOM     26  C   UNL     1       5.069   0.901  20.799  0.00  0.00    +0.000 C 
BRANCH  26  27
ATOM     27  N   UNL     1       5.940   0.880  21.975  0.00  0.00    +0.000 NA
ATOM     28  H   UNL     1       6.525   0.016  21.985  0.00  0.00    +0.000 HD
ATOM     29  H   UNL     1       6.557   1.727  21.983  0.00  0.00    +0.000 HD
ENDBRANCH  26  27
ENDBRANCH  25  26
ENDBRANCH  24  25
ENDBRANCH   1  24
TORSDOF 7
ENDMDL
MODEL 2
REMARK VINA RESULT:      -7.1      3.667      6.522
REMARK  Name = 
REMARK  7 active torsions:
REMARK  status: ('A' for Active; 'I' for Inactive)
REMARK    1  A    between atoms: N_1  and  C_2
REMARK    2  A    between atoms: C_2  and  C_3
REMARK    3  A    between atoms: C_3  and  C_4
REMARK    4  A    between atoms: C_4  and  N_5
REMARK    5  A    between atoms: C_6  and  C_7
REMARK    6  A    between atoms: C_7  and  C_9
REMARK    7  A    between atoms: C_13  and  N_14
REMARK                            x       y       z     vdW  Elec       q    Type
REMARK                         _______ _______ _______ _____ _____    ______ ____
ROOT
ATOM      1  N   UNL     1       4.647   5.635  18.509  0.00  0.00    +0.000 N 
ATOM      2  C   UNL     1       3.363   6.119  18.623  0.00  0.00    +0.000 A 
ATOM      3  C   UNL     1       2.612   5.137  19.302  0.00  0.00    +0.000 A 
ATOM      4  C   UNL     1       1.259   5.009  19.662  0.00  0.00    +0.000 A 
ATOM      5  C   UNL     1       0.857   3.877  20.385  0.00  0.00    +0.000 A 
ATOM      6  C   UNL     1       1.788   2.869  20.710  0.00  0.00    +0.000 A 
ATOM      7  C   UNL     1       3.125   2.987  20.304  0.00  0.00    +0.000 A 
ATOM      8  C   UNL     1       3.498   4.133  19.601  0.00  0.00    +0.000 A 
ATOM      9  N   UNL     1       4.701   4.451  19.121  0.00  0.00    +0.000 N 
ATOM     10  O   UNL     1       5.794   3.701  19.236  0.00  0.00    +0.000 OA
ENDROOT
BRANCH   2  11
ATOM     11  C   UNL     1       2.850   7.429  18.084  0.00  0.00    +0.000 C 
ATOM     12  O   UNL     1       3.165   7.773  16.955  0.00  0.00    +0.000 OA
BRANCH  11  13
ATOM     13  C   UNL     1       1.864   8.266  18.829  0.00  0.00    +0.000 A 
ATOM     14  C   UNL     1       1.854   8.259  20.233  0.00  0.00    +0.000 A 
ATOM     15  C   UNL     1       1.032   9.139  20.947  0.00  0.00    +0.000 A 
ATOM     16 CL   UNL     1       1.139   9.120  22.705  0.00  0.00    +0.000 Cl
ATOM     17  C   UNL     1       0.184  10.037  20.264  0.00  0.00    +0.000 A 
ATOM     18  C   UNL     1       0.134   9.988  18.855  0.00  0.00    +0.000 A 
ATOM     19 CL   UNL     1      -0.909  11.058  17.922  0.00  0.00    +0.000 Cl
ATOM     20  C   UNL     1       0.958   9.103  18.154  0.00  0.00    +0.000 A 
BRANCH  17  21
ATOM     21  N   UNL     1      -0.590  10.992  20.981  0.00  0.00    +0.000 N 
ATOM     22  H   UNL     1      -0.739  11.944  20.619  0.00  0.00    +0.000 HD
ATOM     23  H   UNL     1      -1.096  10.738  21.841  0.00  0.00    +0.000 HD
ENDBRANCH  17  21
ENDBRANCH  11  13
ENDBRANCH   2  11
BRANCH   1  24
ATOM     24  C   UNL     1       5.833   6.264  17.900  0.00  0.00    +0.000 C 
BRANCH  24  25
ATOM     25  C   UNL     1       5.968   5.915  16.402  0.00  0.00    +0.000 C 
BRANCH  25  26
ATOM     26  C   UNL     1       6.976   4.778  16.133  0.00  0.00    +0.000 C 
BRANCH  26  27
ATOM     27  N   UNL     1       7.773   4.436  17.311  0.00  0.00    +0.000 NA
ATOM     28  H   UNL     1       7.955   5.284  17.892  0.00  0.00    +0.000 HD
ATOM     29  H   UNL     1       7.277   3.714  17.885  0.00  0.00    +0.000 HD
ENDBRANCH  26  27
ENDBRANCH  25  26
ENDBRANCH  24  25
ENDBRANCH   1  24
TORSDOF 7
ENDMDL
MODEL 3
REMARK VINA RESULT:      -7.1      3.650      6.338
REMARK  Name = 
REMARK  7 active torsions:
REMARK  status: ('A' for Active; 'I' for Inactive)
REMARK    1  A    between atoms: N_1  and  C_2
REMARK    2  A    between atoms: C_2  and  C_3
REMARK    3  A    between atoms: C_3  and  C_4
REMARK    4  A    between atoms: C_4  and  N_5
REMARK    5  A    between atoms: C_6  and  C_7
REMARK    6  A    between atoms: C_7  and  C_9
REMARK    7  A    between atoms: C_13  and  N_14
REMARK                            x       y       z     vdW  Elec       q    Type
REMARK                         _______ _______ _______ _____ _____    ______ ____
ROOT
ATOM      1  N   UNL     1       4.655   5.634  18.510  0.00  0.00    +0.000 N 
ATOM      2  C   UNL     1       3.370   6.122  18.588  0.00  0.00    +0.000 A 
ATOM      3  C   UNL     1       2.607   5.161  19.284  0.00  0.00    +0.000 A 
ATOM      4  C   UNL     1       1.248   5.045  19.625  0.00  0.00    +0.000 A 
ATOM      5  C   UNL     1       0.833   3.935  20.374  0.00  0.00    +0.000 A 
ATOM      6  C   UNL     1       1.757   2.937  20.744  0.00  0.00    +0.000 A 
ATOM      7  C   UNL     1       3.101   3.042  20.358  0.00  0.00    +0.000 A 
ATOM      8  C   UNL     1       3.486   4.166  19.627  0.00  0.00    +0.000 A 
ATOM      9  N   UNL     1       4.698   4.469  19.158  0.00  0.00    +0.000 N 
ATOM     10  O   UNL     1       5.788   3.722  19.314  0.00  0.00    +0.000 OA
ENDROOT
BRANCH   2  11
ATOM     11  C   UNL     1       2.868   7.415  18.002  0.00  0.00    +0.000 C 
ATOM     12  O   UNL     1       3.095   7.666  16.828  0.00  0.00    +0.000 OA
BRANCH  11  13
ATOM     13  C   UNL     1       1.989   8.350  18.767  0.00  0.00    +0.000 A 
ATOM     14  C   UNL     1       1.100   9.194  18.085  0.00  0.00    +0.000 A 
ATOM     15  C   UNL     1       0.174   9.976  18.788  0.00  0.00    +0.000 A 
ATOM     16 CL   UNL     1      -0.958  10.948  17.853  0.00  0.00    +0.000 Cl
ATOM     17  C   UNL     1       0.134   9.938  20.198  0.00  0.00    +0.000 A 
ATOM     18  C   UNL     1       1.081   9.152  20.886  0.00  0.00    +0.000 A 
ATOM     19 CL   UNL     1       1.116   9.061  22.645  0.00  0.00    +0.000 Cl
ATOM     20  C   UNL     1       2.001   8.379  20.172  0.00  0.00    +0.000 A 
BRANCH  17  21
ATOM     21  N   UNL     1      -0.859  10.663  20.915  0.00  0.00    +0.000 N 
ATOM     22  H   UNL     1      -1.476  11.341  20.444  0.00  0.00    +0.000 HD
ATOM     23  H   UNL     1      -1.051  10.474  21.909  0.00  0.00    +0.000 HD
ENDBRANCH  17  21
ENDBRANCH  11  13
ENDBRANCH   2  11
BRANCH   1  24
ATOM     24  C   UNL     1       5.852   6.245  17.903  0.00  0.00    +0.000 C 
BRANCH  24  25
ATOM     25  C   UNL     1       5.985   5.890  16.406  0.00  0.00    +0.000 C 
BRANCH  25  26
ATOM     26  C   UNL     1       6.848   4.636  16.154  0.00  0.00    +0.000 C 
BRANCH  26  27
ATOM     27  N   UNL     1       7.818   4.392  17.221  0.00  0.00    +0.000 NA
ATOM     28  H   UNL     1       8.563   3.736  16.898  0.00  0.00    +0.000 HD
ATOM     29  H   UNL     1       8.250   5.294  17.531  0.00  0.00    +0.000 HD
ENDBRANCH  26  27
ENDBRANCH  25  26
ENDBRANCH  24  25
ENDBRANCH   1  24
TORSDOF 7
ENDMDL
MODEL 4
REMARK VINA RESULT:      -7.1      2.173      3.246
REMARK  Name = 
REMARK  7 active torsions:
REMARK  status: ('A' for Active; 'I' for Inactive)
REMARK    1  A    between atoms: N_1  and  C_2
REMARK    2  A    between atoms: C_2  and  C_3
REMARK    3  A    between atoms: C_3  and  C_4
REMARK    4  A    between atoms: C_4  and  N_5
REMARK    5  A    between atoms: C_6  and  C_7
REMARK    6  A    between atoms: C_7  and  C_9
REMARK    7  A    between atoms: C_13  and  N_14
REMARK                            x       y       z     vdW  Elec       q    Type
REMARK                         _______ _______ _______ _____ _____    ______ ____
ROOT
ATOM      1  N   UNL     1       1.806   6.434  20.334  0.00  0.00    +0.000 N 
ATOM      2  C   UNL     1       2.163   6.612  19.016  0.00  0.00    +0.000 A 
ATOM      3  C   UNL     1       1.961   7.975  18.716  0.00  0.00    +0.000 A 
ATOM      4  C   UNL     1       2.080   8.753  17.551  0.00  0.00    +0.000 A 
ATOM      5  C   UNL     1       1.823  10.129  17.629  0.00  0.00    +0.000 A 
ATOM      6  C   UNL     1       1.416  10.712  18.847  0.00  0.00    +0.000 A 
ATOM      7  C   UNL     1       1.256   9.917  19.990  0.00  0.00    +0.000 A 
ATOM      8  C   UNL     1       1.536   8.554  19.885  0.00  0.00    +0.000 A 
ATOM      9  N   UNL     1       1.452   7.619  20.833  0.00  0.00    +0.000 N 
ATOM     10  O   UNL     1       1.074   7.836  22.090  0.00  0.00    +0.000 OA
ENDROOT
BRANCH   2  11
ATOM     11  C   UNL     1       2.636   5.543  18.066  0.00  0.00    +0.000 C 
ATOM     12  O   UNL     1       1.811   4.892  17.443  0.00  0.00    +0.000 OA
BRANCH  11  13
ATOM     13  C   UNL     1       4.082   5.334  17.757  0.00  0.00    +0.000 A 
ATOM     14  C   UNL     1       5.057   5.628  18.722  0.00  0.00    +0.000 A 
ATOM     15  C   UNL     1       6.402   5.309  18.501  0.00  0.00    +0.000 A 
ATOM     16 CL   UNL     1       7.549   5.639  19.796  0.00  0.00    +0.000 Cl
ATOM     17  C   UNL     1       6.802   4.702  17.291  0.00  0.00    +0.000 A 
ATOM     18  C   UNL     1       5.835   4.481  16.288  0.00  0.00    +0.000 A 
ATOM     19 CL   UNL     1       6.248   3.747  14.741  0.00  0.00    +0.000 Cl
ATOM     20  C   UNL     1       4.496   4.807  16.522  0.00  0.00    +0.000 A 
BRANCH  17  21
ATOM     21  N   UNL     1       8.152   4.298  17.093  0.00  0.00    +0.000 N 
ATOM     22  H   UNL     1       8.433   3.745  16.271  0.00  0.00    +0.000 HD
ATOM     23  H   UNL     1       8.906   4.616  17.718  0.00  0.00    +0.000 HD
ENDBRANCH  17  21
ENDBRANCH  11  13
ENDBRANCH   2  11
BRANCH   1  24
ATOM     24  C   UNL     1       1.838   5.210  21.154  0.00  0.00    +0.000 C 
BRANCH  24  25
ATOM     25  C   UNL     1       0.927   4.104  20.578  0.00  0.00    +0.000 C 
BRANCH  25  26
ATOM     26  C   UNL     1       1.535   2.691  20.705  0.00  0.00    +0.000 C 
BRANCH  26  27
ATOM     27  N   UNL     1       2.030   2.405  22.051  0.00  0.00    +0.000 NA
ATOM     28  H   UNL     1       1.236   2.273  22.716  0.00  0.00    +0.000 HD
ATOM     29  H   UNL     1       2.630   1.547  22.041  0.00  0.00    +0.000 HD
ENDBRANCH  26  27
ENDBRANCH  25  26
ENDBRANCH  24  25
ENDBRANCH   1  24
TORSDOF 7
ENDMDL
MODEL 5
REMARK VINA RESULT:      -7.1      1.182      1.765
REMARK  Name = 
REMARK  7 active torsions:
REMARK  status: ('A' for Active; 'I' for Inactive)
REMARK    1  A    between atoms: N_1  and  C_2
REMARK    2  A    between atoms: C_2  and  C_3
REMARK    3  A    between atoms: C_3  and  C_4
REMARK    4  A    between atoms: C_4  and  N_5
REMARK    5  A    between atoms: C_6  and  C_7
REMARK    6  A    between atoms: C_7  and  C_9
REMARK    7  A    between atoms: C_13  and  N_14
REMARK                            x       y       z     vdW  Elec       q    Type
REMARK                         _______ _______ _______ _____ _____    ______ ____
ROOT
ATOM      1  N   UNL     1       2.925   4.111  19.714  0.00  0.00    +0.000 N 
ATOM      2  C   UNL     1       2.990   4.675  18.460  0.00  0.00    +0.000 A 
ATOM      3  C   UNL     1       2.555   6.011  18.587  0.00  0.00    +0.000 A 
ATOM      4  C   UNL     1       2.340   7.065  17.682  0.00  0.00    +0.000 A 
ATOM      5  C   UNL     1       1.924   8.308  18.179  0.00  0.00    +0.000 A 
ATOM      6  C   UNL     1       1.690   8.483  19.559  0.00  0.00    +0.000 A 
ATOM      7  C   UNL     1       1.864   7.411  20.445  0.00  0.00    +0.000 A 
ATOM      8  C   UNL     1       2.295   6.192  19.922  0.00  0.00    +0.000 A 
ATOM      9  N   UNL     1       2.522   5.049  20.572  0.00  0.00    +0.000 N 
ATOM     10  O   UNL     1       2.373   4.872  21.882  0.00  0.00    +0.000 OA
ENDROOT
BRANCH   2  11
ATOM     11  C   UNL     1       3.404   3.983  17.189  0.00  0.00    +0.000 C 
ATOM     12  O   UNL     1       2.634   3.195  16.660  0.00  0.00    +0.000 OA
BRANCH  11  13
ATOM     13  C   UNL     1       4.673   4.317  16.475  0.00  0.00    +0.000 A 
ATOM     14  C   UNL     1       4.948   3.742  15.225  0.00  0.00    +0.000 A 
ATOM     15  C   UNL     1       6.064   4.147  14.481  0.00  0.00    +0.000 A 
ATOM     16 CL   UNL     1       6.293   3.433  12.888  0.00  0.00    +0.000 Cl
ATOM     17  C   UNL     1       6.940   5.130  14.988  0.00  0.00    +0.000 A 
ATOM     18  C   UNL     1       6.709   5.649  16.279  0.00  0.00    +0.000 A 
ATOM     19 CL   UNL     1       7.763   6.864  16.998  0.00  0.00    +0.000 Cl
ATOM     20  C   UNL     1       5.593   5.233  17.012  0.00  0.00    +0.000 A 
BRANCH  17  21
ATOM     21  N   UNL     1       8.027   5.608  14.203  0.00  0.00    +0.000 N 
ATOM     22  H   UNL     1       8.615   6.392  14.519  0.00  0.00    +0.000 HD
ATOM     23  H   UNL     1       8.313   5.134  13.335  0.00  0.00    +0.000 HD
ENDBRANCH  17  21
ENDBRANCH  11  13
ENDBRANCH   2  11
BRANCH   1  24
ATOM     24  C   UNL     1       3.279   2.747  20.145  0.00  0.00    +0.000 C 
BRANCH  24  25
ATOM     25  C   UNL     1       2.171   1.727  19.801  0.00  0.00    +0.000 C 
BRANCH  25  26
ATOM     26  C   UNL     1       0.800   2.385  19.541  0.00  0.00    +0.000 C 
BRANCH  26  27
ATOM     27  N   UNL     1       0.255   2.060  18.223  0.00  0.00    +0.000 NA
ATOM     28  H   UNL     1       0.886   1.400  17.717  0.00  0.00    +0.000 HD
ATOM     29  H   UNL     1      -0.697   1.635  18.320  0.00  0.00    +0.000 HD
ENDBRANCH  26  27
ENDBRANCH  25  26
ENDBRANCH  24  25
ENDBRANCH   1  24
TORSDOF 7
ENDMDL
MODEL 6
REMARK VINA RESULT:      -7.0      1.904      2.279
REMARK  Name = 
REMARK  7 active torsions:
REMARK  status: ('A' for Active; 'I' for Inactive)
REMARK    1  A    between atoms: N_1  and  C_2
REMARK    2  A    between atoms: C_2  and  C_3
REMARK    3  A    between atoms: C_3  and  C_4
REMARK    4  A    between atoms: C_4  and  N_5
REMARK    5  A    between atoms: C_6  and  C_7
REMARK    6  A    between atoms: C_7  and  C_9
REMARK    7  A    between atoms: C_13  and  N_14
REMARK                            x       y       z     vdW  Elec       q    Type
REMARK                         _______ _______ _______ _____ _____    ______ ____
ROOT
ATOM      1  N   UNL     1       2.042   6.000  20.173  0.00  0.00    +0.000 N 
ATOM      2  C   UNL     1       2.364   6.211  18.851  0.00  0.00    +0.000 A 
ATOM      3  C   UNL     1       2.122   7.574  18.582  0.00  0.00    +0.000 A 
ATOM      4  C   UNL     1       2.194   8.376  17.429  0.00  0.00    +0.000 A 
ATOM      5  C   UNL     1       1.904   9.744  17.539  0.00  0.00    +0.000 A 
ATOM      6  C   UNL     1       1.511  10.293  18.776  0.00  0.00    +0.000 A 
ATOM      7  C   UNL     1       1.398   9.474  19.907  0.00  0.00    +0.000 A 
ATOM      8  C   UNL     1       1.709   8.121  19.770  0.00  0.00    +0.000 A 
ATOM      9  N   UNL     1       1.670   7.166  20.702  0.00  0.00    +0.000 N 
ATOM     10  O   UNL     1       1.317   7.350  21.971  0.00  0.00    +0.000 OA
ENDROOT
BRANCH   2  11
ATOM     11  C   UNL     1       2.842   5.173  17.870  0.00  0.00    +0.000 C 
ATOM     12  O   UNL     1       2.063   4.313  17.485  0.00  0.00    +0.000 OA
BRANCH  11  13
ATOM     13  C   UNL     1       4.198   5.227  17.248  0.00  0.00    +0.000 A 
ATOM     14  C   UNL     1       4.488   4.440  16.123  0.00  0.00    +0.000 A 
ATOM     15  C   UNL     1       5.706   4.579  15.447  0.00  0.00    +0.000 A 
ATOM     16 CL   UNL     1       5.957   3.609  13.998  0.00  0.00    +0.000 Cl
ATOM     17  C   UNL     1       6.671   5.504  15.898  0.00  0.00    +0.000 A 
ATOM     18  C   UNL     1       6.414   6.237  17.075  0.00  0.00    +0.000 A 
ATOM     19 CL   UNL     1       7.570   7.398  17.722  0.00  0.00    +0.000 Cl
ATOM     20  C   UNL     1       5.195   6.086  17.743  0.00  0.00    +0.000 A 
BRANCH  17  21
ATOM     21  N   UNL     1       7.875   5.712  15.167  0.00  0.00    +0.000 N 
ATOM     22  H   UNL     1       8.795   5.681  15.627  0.00  0.00    +0.000 HD
ATOM     23  H   UNL     1       7.871   5.817  14.143  0.00  0.00    +0.000 HD
ENDBRANCH  17  21
ENDBRANCH  11  13
ENDBRANCH   2  11
BRANCH   1  24
ATOM     24  C   UNL     1       2.125   4.762  20.969  0.00  0.00    +0.000 C 
BRANCH  24  25
ATOM     25  C   UNL     1       1.046   3.737  20.556  0.00  0.00    +0.000 C 
BRANCH  25  26
ATOM     26  C   UNL     1       1.610   2.316  20.344  0.00  0.00    +0.000 C 
BRANCH  26  27
ATOM     27  N   UNL     1       1.456   1.844  18.968  0.00  0.00    +0.000 NA
ATOM     28  H   UNL     1       2.335   1.994  18.427  0.00  0.00    +0.000 HD
ATOM     29  H   UNL     1       1.203   0.828  18.960  0.00  0.00    +0.000 HD
ENDBRANCH  26  27
ENDBRANCH  25  26
ENDBRANCH  24  25
ENDBRANCH   1  24
TORSDOF 7
ENDMDL
MODEL 7
REMARK VINA RESULT:      -7.0      2.108      2.639
REMARK  Name = 
REMARK  7 active torsions:
REMARK  status: ('A' for Active; 'I' for Inactive)
REMARK    1  A    between atoms: N_1  and  C_2
REMARK    2  A    between atoms: C_2  and  C_3
REMARK    3  A    between atoms: C_3  and  C_4
REMARK    4  A    between atoms: C_4  and  N_5
REMARK    5  A    between atoms: C_6  and  C_7
REMARK    6  A    between atoms: C_7  and  C_9
REMARK    7  A    between atoms: C_13  and  N_14
REMARK                            x       y       z     vdW  Elec       q    Type
REMARK                         _______ _______ _______ _____ _____    ______ ____
ROOT
ATOM      1  N   UNL     1       1.796   6.370  20.384  0.00  0.00    +0.000 N 
ATOM      2  C   UNL     1       2.114   6.517  19.052  0.00  0.00    +0.000 A 
ATOM      3  C   UNL     1       1.928   7.878  18.732  0.00  0.00    +0.000 A 
ATOM      4  C   UNL     1       2.023   8.631  17.549  0.00  0.00    +0.000 A 
ATOM      5  C   UNL     1       1.794  10.013  17.609  0.00  0.00    +0.000 A 
ATOM      6  C   UNL     1       1.438  10.627  18.827  0.00  0.00    +0.000 A 
ATOM      7  C   UNL     1       1.301   9.856  19.990  0.00  0.00    +0.000 A 
ATOM      8  C   UNL     1       1.552   8.487  19.903  0.00  0.00    +0.000 A 
ATOM      9  N   UNL     1       1.481   7.571  20.871  0.00  0.00    +0.000 N 
ATOM     10  O   UNL     1       1.149   7.819  22.135  0.00  0.00    +0.000 OA
ENDROOT
BRANCH   2  11
ATOM     11  C   UNL     1       2.535   5.422  18.107  0.00  0.00    +0.000 C 
ATOM     12  O   UNL     1       1.689   4.867  17.421  0.00  0.00    +0.000 OA
BRANCH  11  13
ATOM     13  C   UNL     1       3.969   5.071  17.881  0.00  0.00    +0.000 A 
ATOM     14  C   UNL     1       4.368   4.493  16.666  0.00  0.00    +0.000 A 
ATOM     15  C   UNL     1       5.723   4.285  16.384  0.00  0.00    +0.000 A 
ATOM     16 CL   UNL     1       6.142   3.628  14.805  0.00  0.00    +0.000 Cl
ATOM     17  C   UNL     1       6.711   4.638  17.328  0.00  0.00    +0.000 A 
ATOM     18  C   UNL     1       6.306   5.144  18.581  0.00  0.00    +0.000 A 
ATOM     19 CL   UNL     1       7.470   5.592  19.825  0.00  0.00    +0.000 Cl
ATOM     20  C   UNL     1       4.949   5.344  18.850  0.00  0.00    +0.000 A 
BRANCH  17  21
ATOM     21  N   UNL     1       8.093   4.509  17.015  0.00  0.00    +0.000 N 
ATOM     22  H   UNL     1       8.461   3.675  16.536  0.00  0.00    +0.000 HD
ATOM     23  H   UNL     1       8.757   5.279  17.179  0.00  0.00    +0.000 HD
ENDBRANCH  17  21
ENDBRANCH  11  13
ENDBRANCH   2  11
BRANCH   1  24
ATOM     24  C   UNL     1       1.833   5.161  21.226  0.00  0.00    +0.000 C 
BRANCH  24  25
ATOM     25  C   UNL     1       1.000   4.010  20.621  0.00  0.00    +0.000 C 
BRANCH  25  26
ATOM     26  C   UNL     1       1.626   2.620  20.858  0.00  0.00    +0.000 C 
BRANCH  26  27
ATOM     27  N   UNL     1       2.561   2.602  21.982  0.00  0.00    +0.000 NA
ATOM     28  H   UNL     1       3.530   2.815  21.658  0.00  0.00    +0.000 HD
ATOM     29  H   UNL     1       2.269   3.300  22.707  0.00  0.00    +0.000 HD
ENDBRANCH  26  27
ENDBRANCH  25  26
ENDBRANCH  24  25
ENDBRANCH   1  24
TORSDOF 7
ENDMDL
MODEL 8
REMARK VINA RESULT:      -7.0      3.558      6.083
REMARK  Name = 
REMARK  7 active torsions:
REMARK  status: ('A' for Active; 'I' for Inactive)
REMARK    1  A    between atoms: N_1  and  C_2
REMARK    2  A    between atoms: C_2  and  C_3
REMARK    3  A    between atoms: C_3  and  C_4
REMARK    4  A    between atoms: C_4  and  N_5
REMARK    5  A    between atoms: C_6  and  C_7
REMARK    6  A    between atoms: C_7  and  C_9
REMARK    7  A    between atoms: C_13  and  N_14
REMARK                            x       y       z     vdW  Elec       q    Type
REMARK                         _______ _______ _______ _____ _____    ______ ____
ROOT
ATOM      1  N   UNL     1       4.758   4.775  19.097  0.00  0.00    +0.000 N 
ATOM      2  C   UNL     1       3.663   5.345  18.487  0.00  0.00    +0.000 A 
ATOM      3  C   UNL     1       2.647   4.367  18.469  0.00  0.00    +0.000 A 
ATOM      4  C   UNL     1       1.345   4.313  17.942  0.00  0.00    +0.000 A 
ATOM      5  C   UNL     1       0.581   3.155  18.147  0.00  0.00    +0.000 A 
ATOM      6  C   UNL     1       1.127   2.052  18.836  0.00  0.00    +0.000 A 
ATOM      7  C   UNL     1       2.443   2.102  19.316  0.00  0.00    +0.000 A 
ATOM      8  C   UNL     1       3.171   3.274  19.112  0.00  0.00    +0.000 A 
ATOM      9  N   UNL     1       4.427   3.540  19.477  0.00  0.00    +0.000 N 
ATOM     10  O   UNL     1       5.229   2.700  20.125  0.00  0.00    +0.000 OA
ENDROOT
BRANCH   2  11
ATOM     11  C   UNL     1       3.584   6.734  17.910  0.00  0.00    +0.000 C 
ATOM     12  O   UNL     1       4.188   6.986  16.878  0.00  0.00    +0.000 OA
BRANCH  11  13
ATOM     13  C   UNL     1       2.690   7.785  18.480  0.00  0.00    +0.000 A 
ATOM     14  C   UNL     1       1.989   7.541  19.671  0.00  0.00    +0.000 A 
ATOM     15  C   UNL     1       1.256   8.560  20.292  0.00  0.00    +0.000 A 
ATOM     16 CL   UNL     1       0.471   8.191  21.824  0.00  0.00    +0.000 Cl
ATOM     17  C   UNL     1       1.196   9.847  19.717  0.00  0.00    +0.000 A 
ATOM     18  C   UNL     1       1.833  10.071  18.478  0.00  0.00    +0.000 A 
ATOM     19 CL   UNL     1       1.794  11.640  17.680  0.00  0.00    +0.000 Cl
ATOM     20  C   UNL     1       2.559   9.044  17.868  0.00  0.00    +0.000 A 
BRANCH  17  21
ATOM     21  N   UNL     1       0.525  10.910  20.385  0.00  0.00    +0.000 N 
ATOM     22  H   UNL     1      -0.491  10.884  20.551  0.00  0.00    +0.000 HD
ATOM     23  H   UNL     1       1.042  11.699  20.797  0.00  0.00    +0.000 HD
ENDBRANCH  17  21
ENDBRANCH  11  13
ENDBRANCH   2  11
BRANCH   1  24
ATOM     24  C   UNL     1       6.079   5.362  19.387  0.00  0.00    +0.000 C 
BRANCH  24  25
ATOM     25  C   UNL     1       7.003   5.342  18.150  0.00  0.00    +0.000 C 
BRANCH  25  26
ATOM     26  C   UNL     1       7.755   6.672  17.933  0.00  0.00    +0.000 C 
BRANCH  26  27
ATOM     27  N   UNL     1       7.082   7.555  16.981  0.00  0.00    +0.000 NA
ATOM     28  H   UNL     1       7.032   7.111  16.038  0.00  0.00    +0.000 HD
ATOM     29  H   UNL     1       6.117   7.782  17.318  0.00  0.00    +0.000 HD
ENDBRANCH  26  27
ENDBRANCH  25  26
ENDBRANCH  24  25
ENDBRANCH   1  24
TORSDOF 7
ENDMDL
MODEL 9
REMARK VINA RESULT:      -6.9      1.294      2.573
REMARK  Name = 
REMARK  7 active torsions:
REMARK  status: ('A' for Active; 'I' for Inactive)
REMARK    1  A    between atoms: N_1  and  C_2
REMARK    2  A    between atoms: C_2  and  C_3
REMARK    3  A    between atoms: C_3  and  C_4
REMARK    4  A    between atoms: C_4  and  N_5
REMARK    5  A    between atoms: C_6  and  C_7
REMARK    6  A    between atoms: C_7  and  C_9
REMARK    7  A    between atoms: C_13  and  N_14
REMARK                            x       y       z     vdW  Elec       q    Type
REMARK                         _______ _______ _______ _____ _____    ______ ____
ROOT
ATOM      1  N   UNL     1       2.809   4.339  19.712  0.00  0.00    +0.000 N 
ATOM      2  C   UNL     1       2.915   4.881  18.451  0.00  0.00    +0.000 A 
ATOM      3  C   UNL     1       2.504   6.227  18.547  0.00  0.00    +0.000 A 
ATOM      4  C   UNL     1       2.331   7.270  17.620  0.00  0.00    +0.000 A 
ATOM      5  C   UNL     1       1.928   8.529  18.087  0.00  0.00    +0.000 A 
ATOM      6  C   UNL     1       1.666   8.731  19.458  0.00  0.00    +0.000 A 
ATOM      7  C   UNL     1       1.797   7.670  20.365  0.00  0.00    +0.000 A 
ATOM      8  C   UNL     1       2.216   6.434  19.872  0.00  0.00    +0.000 A 
ATOM      9  N   UNL     1       2.405   5.298  20.546  0.00  0.00    +0.000 N 
ATOM     10  O   UNL     1       2.221   5.146  21.854  0.00  0.00    +0.000 OA
ENDROOT
BRANCH   2  11
ATOM     11  C   UNL     1       3.345   4.160  17.201  0.00  0.00    +0.000 C 
ATOM     12  O   UNL     1       2.656   3.247  16.772  0.00  0.00    +0.000 OA
BRANCH  11  13
ATOM     13  C   UNL     1       4.519   4.601  16.390  0.00  0.00    +0.000 A 
ATOM     14  C   UNL     1       5.424   5.536  16.914  0.00  0.00    +0.000 A 
ATOM     15  C   UNL     1       6.600   5.857  16.225  0.00  0.00    +0.000 A 
ATOM     16 CL   UNL     1       7.720   6.981  16.990  0.00  0.00    +0.000 Cl
ATOM     17  C   UNL     1       6.885   5.256  14.980  0.00  0.00    +0.000 A 
ATOM     18  C   UNL     1       5.937   4.378  14.415  0.00  0.00    +0.000 A 
ATOM     19 CL   UNL     1       6.201   3.598  12.858  0.00  0.00    +0.000 Cl
ATOM     20  C   UNL     1       4.766   4.068  15.113  0.00  0.00    +0.000 A 
BRANCH  17  21
ATOM     21  N   UNL     1       8.117   5.512  14.316  0.00  0.00    +0.000 N 
ATOM     22  H   UNL     1       8.144   5.842  13.341  0.00  0.00    +0.000 HD
ATOM     23  H   UNL     1       9.018   5.456  14.812  0.00  0.00    +0.000 HD
ENDBRANCH  17  21
ENDBRANCH  11  13
ENDBRANCH   2  11
BRANCH   1  24
ATOM     24  C   UNL     1       3.125   2.975  20.173  0.00  0.00    +0.000 C 
BRANCH  24  25
ATOM     25  C   UNL     1       1.852   2.127  20.387  0.00  0.00    +0.000 C 
BRANCH  25  26
ATOM     26  C   UNL     1       0.641   2.637  19.578  0.00  0.00    +0.000 C 
BRANCH  26  27
ATOM     27  N   UNL     1       0.420   1.877  18.348  0.00  0.00    +0.000 NA
ATOM     28  H   UNL     1       0.308   2.520  17.533  0.00  0.00    +0.000 HD
ATOM     29  H   UNL     1       1.221   1.224  18.177  0.00  0.00    +0.000 HD
ENDBRANCH  26  27
ENDBRANCH  25  26
ENDBRANCH  24  25
ENDBRANCH   1  24
TORSDOF 7
ENDMDL
