MODEL 1
REMARK VINA RESULT:      -7.8      0.000      0.000
REMARK  Name = 
REMARK  5 active torsions:
REMARK  status: ('A' for Active; 'I' for Inactive)
REMARK    1  A    between atoms: N_1  and  C_2
REMARK    2  A    between atoms: C_2  and  C_3
REMARK    3  A    between atoms: C_9  and  C_10
REMARK    4  A    between atoms: C_18  and  O_19
REMARK    5  A    between atoms: O_19  and  C_20
REMARK                            x       y       z     vdW  Elec       q    Type
REMARK                         _______ _______ _______ _____ _____    ______ ____
ROOT
ATOM      1  C   UNL     1       4.216   6.215  17.337  0.00  0.00    +0.000 C 
ATOM      2  O   UNL     1       4.477   7.167  16.605  0.00  0.00    +0.000 OA
ATOM      3  N   UNL     1       3.393   6.237  18.440  0.00  0.00    +0.000 N 
ATOM      4  C   UNL     1       2.589   7.267  18.835  0.00  0.00    +0.000 A 
ATOM      5  N   UNL     1       2.105   7.316  20.052  0.00  0.00    +0.000 NA
ATOM      6  C   UNL     1       1.375   8.479  20.207  0.00  0.00    +0.000 A 
ATOM      7  C   UNL     1       0.803   8.941  21.405  0.00  0.00    +0.000 A 
ATOM      8  C   UNL     1       0.097  10.151  21.424  0.00  0.00    +0.000 A 
ATOM      9  C   UNL     1      -0.107  10.870  20.250  0.00  0.00    +0.000 A 
ATOM     10  C   UNL     1       0.477  10.437  19.052  0.00  0.00    +0.000 A 
ATOM     11  C   UNL     1       1.225   9.251  19.053  0.00  0.00    +0.000 A 
ATOM     12  S   UNL     1       2.096   8.502  17.773  0.00  0.00    +0.000 S 
ATOM     13  H   UNL     1       3.435   5.462  19.089  0.00  0.00    +0.000 HD
ENDROOT
BRANCH   1  20
ATOM     14  C   UNL     1       6.720   5.255  18.995  0.00  0.00    +0.000 C 
ATOM     15  O   UNL     1       5.847   5.555  19.812  0.00  0.00    +0.000 OA
ATOM     16  N   UNL     1       6.415   5.019  17.669  0.00  0.00    +0.000 N 
ATOM     17  C   UNL     1       7.328   4.512  16.662  0.00  0.00    +0.000 C 
ATOM     18  C   UNL     1       6.576   4.734  15.366  0.00  0.00    +0.000 C 
ATOM     19  C   UNL     1       5.121   4.471  15.755  0.00  0.00    +0.000 C 
ATOM     20  C   UNL     1       5.020   4.906  17.228  0.00  0.00    +0.000 C 
BRANCH  14  21
ATOM     21  C   UNL     1       8.195   5.208  19.403  0.00  0.00    +0.000 C 
BRANCH  21  22
ATOM     22  N   UNL     1       8.321   5.226  20.868  0.00  0.00    +0.000 NA
ATOM     23  H   UNL     1       9.301   5.372  21.109  0.00  0.00    +0.000 HD
ATOM     24  H   UNL     1       8.092   4.292  21.219  0.00  0.00    +0.000 HD
ENDBRANCH  21  22
ENDBRANCH  14  21
ENDBRANCH   1  20
BRANCH   9  25
ATOM     25  O   UNL     1      -0.789  12.044  20.144  0.00  0.00    +0.000 OA
BRANCH  25  26
ATOM     26  C   UNL     1      -1.884  12.150  19.243  0.00  0.00    +0.000 C 
ATOM     27  F   UNL     1      -1.576  12.709  18.055  0.00  0.00    +0.000 F 
ATOM     28  F   UNL     1      -2.401  10.924  19.027  0.00  0.00    +0.000 F 
ATOM     29  F   UNL     1      -2.837  12.915  19.822  0.00  0.00    +0.000 F 
ENDBRANCH  25  26
ENDBRANCH   9  25
TORSDOF 5
ENDMDL
MODEL 2
REMARK VINA RESULT:      -7.6      1.094      1.275
REMARK  Name = 
REMARK  5 active torsions:
REMARK  status: ('A' for Active; 'I' for Inactive)
REMARK    1  A    between atoms: N_1  and  C_2
REMARK    2  A    between atoms: C_2  and  C_3
REMARK    3  A    between atoms: C_9  and  C_10
REMARK    4  A    between atoms: C_18  and  O_19
REMARK    5  A    between atoms: O_19  and  C_20
REMARK                            x       y       z     vdW  Elec       q    Type
REMARK                         _______ _______ _______ _____ _____    ______ ____
ROOT
ATOM      1  C   UNL     1       4.202   6.263  17.298  0.00  0.00    +0.000 C 
ATOM      2  O   UNL     1       4.435   7.220  16.562  0.00  0.00    +0.000 OA
ATOM      3  N   UNL     1       3.403   6.270  18.418  0.00  0.00    +0.000 N 
ATOM      4  C   UNL     1       2.593   7.287  18.833  0.00  0.00    +0.000 A 
ATOM      5  N   UNL     1       2.135   7.325  20.060  0.00  0.00    +0.000 NA
ATOM      6  C   UNL     1       1.392   8.478  20.234  0.00  0.00    +0.000 A 
ATOM      7  C   UNL     1       0.839   8.928  21.446  0.00  0.00    +0.000 A 
ATOM      8  C   UNL     1       0.116  10.127  21.484  0.00  0.00    +0.000 A 
ATOM      9  C   UNL     1      -0.123  10.846  20.317  0.00  0.00    +0.000 A 
ATOM     10  C   UNL     1       0.442  10.425  19.105  0.00  0.00    +0.000 A 
ATOM     11  C   UNL     1       1.206   9.250  19.086  0.00  0.00    +0.000 A 
ATOM     12  S   UNL     1       2.060   8.517  17.786  0.00  0.00    +0.000 S 
ATOM     13  H   UNL     1       3.470   5.493  19.063  0.00  0.00    +0.000 HD
ENDROOT
BRANCH   1  20
ATOM     14  C   UNL     1       6.706   5.297  18.953  0.00  0.00    +0.000 C 
ATOM     15  O   UNL     1       5.825   5.570  19.770  0.00  0.00    +0.000 OA
ATOM     16  N   UNL     1       6.413   5.085  17.620  0.00  0.00    +0.000 N 
ATOM     17  C   UNL     1       7.339   4.610  16.610  0.00  0.00    +0.000 C 
ATOM     18  C   UNL     1       6.593   4.849  15.312  0.00  0.00    +0.000 C 
ATOM     19  C   UNL     1       5.139   4.562  15.686  0.00  0.00    +0.000 C 
ATOM     20  C   UNL     1       5.022   4.965  17.167  0.00  0.00    +0.000 C 
BRANCH  14  21
ATOM     21  C   UNL     1       8.179   5.259  19.371  0.00  0.00    +0.000 C 
BRANCH  21  22
ATOM     22  N   UNL     1       8.294   5.224  20.836  0.00  0.00    +0.000 NA
ATOM     23  H   UNL     1       9.077   5.814  21.115  0.00  0.00    +0.000 HD
ATOM     24  H   UNL     1       8.559   4.274  21.112  0.00  0.00    +0.000 HD
ENDBRANCH  21  22
ENDBRANCH  14  21
ENDBRANCH   1  20
BRANCH   9  25
ATOM     25  O   UNL     1      -0.823  12.012  20.229  0.00  0.00    +0.000 OA
BRANCH  25  26
ATOM     26  C   UNL     1      -0.131  13.253  20.170  0.00  0.00    +0.000 C 
ATOM     27  F   UNL     1       0.134  13.684  18.920  0.00  0.00    +0.000 F 
ATOM     28  F   UNL     1      -0.852  14.194  20.812  0.00  0.00    +0.000 F 
ATOM     29  F   UNL     1       1.049  13.112  20.816  0.00  0.00    +0.000 F 
ENDBRANCH  25  26
ENDBRANCH   9  25
TORSDOF 5
ENDMDL
MODEL 3
REMARK VINA RESULT:      -7.5      1.211      1.443
REMARK  Name = 
REMARK  5 active torsions:
REMARK  status: ('A' for Active; 'I' for Inactive)
REMARK    1  A    between atoms: N_1  and  C_2
REMARK    2  A    between atoms: C_2  and  C_3
REMARK    3  A    between atoms: C_9  and  C_10
REMARK    4  A    between atoms: C_18  and  O_19
REMARK    5  A    between atoms: O_19  and  C_20
REMARK                            x       y       z     vdW  Elec       q    Type
REMARK                         _______ _______ _______ _____ _____    ______ ____
ROOT
ATOM      1  C   UNL     1       4.097   6.298  17.432  0.00  0.00    +0.000 C 
ATOM      2  O   UNL     1       4.324   7.284  16.734  0.00  0.00    +0.000 OA
ATOM      3  N   UNL     1       3.304   6.259  18.556  0.00  0.00    +0.000 N 
ATOM      4  C   UNL     1       2.494   7.258  19.015  0.00  0.00    +0.000 A 
ATOM      5  N   UNL     1       2.042   7.247  20.245  0.00  0.00    +0.000 NA
ATOM      6  C   UNL     1       1.299   8.390  20.468  0.00  0.00    +0.000 A 
ATOM      7  C   UNL     1       0.751   8.791  21.700  0.00  0.00    +0.000 A 
ATOM      8  C   UNL     1       0.027   9.986  21.790  0.00  0.00    +0.000 A 
ATOM      9  C   UNL     1      -0.219  10.751  20.653  0.00  0.00    +0.000 A 
ATOM     10  C   UNL     1       0.340  10.380  19.422  0.00  0.00    +0.000 A 
ATOM     11  C   UNL     1       1.106   9.207  19.353  0.00  0.00    +0.000 A 
ATOM     12  S   UNL     1       1.954   8.528  18.020  0.00  0.00    +0.000 S 
ATOM     13  H   UNL     1       3.374   5.458  19.169  0.00  0.00    +0.000 HD
ENDROOT
BRANCH   1  20
ATOM     14  C   UNL     1       6.650   5.303  18.991  0.00  0.00    +0.000 C 
ATOM     15  O   UNL     1       5.791   5.551  19.839  0.00  0.00    +0.000 OA
ATOM     16  N   UNL     1       6.320   5.123  17.662  0.00  0.00    +0.000 N 
ATOM     17  C   UNL     1       7.219   4.678  16.615  0.00  0.00    +0.000 C 
ATOM     18  C   UNL     1       6.437   4.946  15.345  0.00  0.00    +0.000 C 
ATOM     19  C   UNL     1       4.995   4.643  15.752  0.00  0.00    +0.000 C 
ATOM     20  C   UNL     1       4.918   5.008  17.245  0.00  0.00    +0.000 C 
BRANCH  14  21
ATOM     21  C   UNL     1       8.134   5.261  19.367  0.00  0.00    +0.000 C 
BRANCH  21  22
ATOM     22  N   UNL     1       8.292   5.237  20.828  0.00  0.00    +0.000 NA
ATOM     23  H   UNL     1       8.726   4.355  21.095  0.00  0.00    +0.000 HD
ATOM     24  H   UNL     1       7.359   5.219  21.249  0.00  0.00    +0.000 HD
ENDBRANCH  21  22
ENDBRANCH  14  21
ENDBRANCH   1  20
BRANCH   9  25
ATOM     25  O   UNL     1      -0.921  11.918  20.615  0.00  0.00    +0.000 OA
BRANCH  25  26
ATOM     26  C   UNL     1      -1.408  12.493  21.821  0.00  0.00    +0.000 C 
ATOM     27  F   UNL     1      -2.337  11.751  22.457  0.00  0.00    +0.000 F 
ATOM     28  F   UNL     1      -0.374  12.708  22.659  0.00  0.00    +0.000 F 
ATOM     29  F   UNL     1      -1.967  13.689  21.526  0.00  0.00    +0.000 F 
ENDBRANCH  25  26
ENDBRANCH   9  25
TORSDOF 5
ENDMDL
MODEL 4
REMARK VINA RESULT:      -7.4      4.799      8.744
REMARK  Name = 
REMARK  5 active torsions:
REMARK  status: ('A' for Active; 'I' for Inactive)
REMARK    1  A    between atoms: N_1  and  C_2
REMARK    2  A    between atoms: C_2  and  C_3
REMARK    3  A    between atoms: C_9  and  C_10
REMARK    4  A    between atoms: C_18  and  O_19
REMARK    5  A    between atoms: O_19  and  C_20
REMARK                            x       y       z     vdW  Elec       q    Type
REMARK                         _______ _______ _______ _____ _____    ______ ____
ROOT
ATOM      1  C   UNL     1       0.867  10.388  19.234  0.00  0.00    +0.000 C 
ATOM      2  O   UNL     1       1.059  10.266  20.442  0.00  0.00    +0.000 OA
ATOM      3  N   UNL     1       1.396   9.598  18.239  0.00  0.00    +0.000 N 
ATOM      4  C   UNL     1       2.097   8.439  18.408  0.00  0.00    +0.000 A 
ATOM      5  N   UNL     1       2.826   7.945  17.437  0.00  0.00    +0.000 NA
ATOM      6  C   UNL     1       3.471   6.808  17.883  0.00  0.00    +0.000 A 
ATOM      7  C   UNL     1       4.430   6.068  17.168  0.00  0.00    +0.000 A 
ATOM      8  C   UNL     1       5.018   4.937  17.748  0.00  0.00    +0.000 A 
ATOM      9  C   UNL     1       4.611   4.492  19.002  0.00  0.00    +0.000 A 
ATOM     10  C   UNL     1       3.675   5.231  19.739  0.00  0.00    +0.000 A 
ATOM     11  C   UNL     1       3.129   6.391  19.170  0.00  0.00    +0.000 A 
ATOM     12  S   UNL     1       2.017   7.520  19.837  0.00  0.00    +0.000 S 
ATOM     13  H   UNL     1       1.352   9.930  17.285  0.00  0.00    +0.000 HD
ENDROOT
BRANCH   1  20
ATOM     14  C   UNL     1       2.134  13.139  18.358  0.00  0.00    +0.000 C 
ATOM     15  O   UNL     1       2.737  12.258  17.741  0.00  0.00    +0.000 OA
ATOM     16  N   UNL     1       0.909  12.896  18.948  0.00  0.00    +0.000 N 
ATOM     17  C   UNL     1       0.047  13.890  19.559  0.00  0.00    +0.000 C 
ATOM     18  C   UNL     1      -0.984  13.055  20.291  0.00  0.00    +0.000 C 
ATOM     19  C   UNL     1      -1.182  11.854  19.366  0.00  0.00    +0.000 C 
ATOM     20  C   UNL     1       0.180  11.651  18.681  0.00  0.00    +0.000 C 
BRANCH  14  21
ATOM     21  C   UNL     1       2.760  14.521  18.564  0.00  0.00    +0.000 C 
BRANCH  21  22
ATOM     22  N   UNL     1       3.649  14.853  17.441  0.00  0.00    +0.000 NA
ATOM     23  H   UNL     1       4.191  15.680  17.687  0.00  0.00    +0.000 HD
ATOM     24  H   UNL     1       3.067  15.136  16.648  0.00  0.00    +0.000 HD
ENDBRANCH  21  22
ENDBRANCH  14  21
ENDBRANCH   1  20
BRANCH   9  25
ATOM     25  O   UNL     1       5.097   3.401  19.657  0.00  0.00    +0.000 OA
BRANCH  25  26
ATOM     26  C   UNL     1       4.270   2.259  19.844  0.00  0.00    +0.000 C 
ATOM     27  F   UNL     1       3.412   2.357  20.880  0.00  0.00    +0.000 F 
ATOM     28  F   UNL     1       3.568   2.030  18.716  0.00  0.00    +0.000 F 
ATOM     29  F   UNL     1       5.067   1.190  20.070  0.00  0.00    +0.000 F 
ENDBRANCH  25  26
ENDBRANCH   9  25
TORSDOF 5
ENDMDL
MODEL 5
REMARK VINA RESULT:      -7.4      2.345      3.493
REMARK  Name = 
REMARK  5 active torsions:
REMARK  status: ('A' for Active; 'I' for Inactive)
REMARK    1  A    between atoms: N_1  and  C_2
REMARK    2  A    between atoms: C_2  and  C_3
REMARK    3  A    between atoms: C_9  and  C_10
REMARK    4  A    between atoms: C_18  and  O_19
REMARK    5  A    between atoms: O_19  and  C_20
REMARK                            x       y       z     vdW  Elec       q    Type
REMARK                         _______ _______ _______ _____ _____    ______ ____
ROOT
ATOM      1  C   UNL     1       3.125   6.877  18.073  0.00  0.00    +0.000 C 
ATOM      2  O   UNL     1       3.405   7.901  17.452  0.00  0.00    +0.000 OA
ATOM      3  N   UNL     1       2.384   6.802  19.230  0.00  0.00    +0.000 N 
ATOM      4  C   UNL     1       1.686   7.819  19.816  0.00  0.00    +0.000 A 
ATOM      5  N   UNL     1       1.292   7.733  21.063  0.00  0.00    +0.000 NA
ATOM      6  C   UNL     1       0.662   8.909  21.424  0.00  0.00    +0.000 A 
ATOM      7  C   UNL     1       0.208   9.240  22.714  0.00  0.00    +0.000 A 
ATOM      8  C   UNL     1      -0.404  10.478  22.945  0.00  0.00    +0.000 A 
ATOM      9  C   UNL     1      -0.634  11.361  21.894  0.00  0.00    +0.000 A 
ATOM     10  C   UNL     1      -0.167  11.058  20.607  0.00  0.00    +0.000 A 
ATOM     11  C   UNL     1       0.490   9.837  20.396  0.00  0.00    +0.000 A 
ATOM     12  S   UNL     1       1.214   9.214  18.966  0.00  0.00    +0.000 S 
ATOM     13  H   UNL     1       2.412   5.946  19.767  0.00  0.00    +0.000 HD
ENDROOT
BRANCH   1  20
ATOM     14  C   UNL     1       1.970   3.944  18.105  0.00  0.00    +0.000 C 
ATOM     15  O   UNL     1       1.211   4.617  17.404  0.00  0.00    +0.000 OA
ATOM     16  N   UNL     1       3.246   4.377  18.406  0.00  0.00    +0.000 N 
ATOM     17  C   UNL     1       4.269   3.605  19.085  0.00  0.00    +0.000 C 
ATOM     18  C   UNL     1       5.327   4.639  19.414  0.00  0.00    +0.000 C 
ATOM     19  C   UNL     1       5.284   5.578  18.208  0.00  0.00    +0.000 C 
ATOM     20  C   UNL     1       3.821   5.547  17.731  0.00  0.00    +0.000 C 
BRANCH  14  21
ATOM     21  C   UNL     1       1.498   2.631  18.737  0.00  0.00    +0.000 C 
BRANCH  21  22
ATOM     22  N   UNL     1       0.608   2.903  19.876  0.00  0.00    +0.000 NA
ATOM     23  H   UNL     1       0.829   2.248  20.625  0.00  0.00    +0.000 HD
ATOM     24  H   UNL     1      -0.350   2.678  19.592  0.00  0.00    +0.000 HD
ENDBRANCH  21  22
ENDBRANCH  14  21
ENDBRANCH   1  20
BRANCH   9  25
ATOM     25  O   UNL     1      -1.233  12.581  21.994  0.00  0.00    +0.000 OA
BRANCH  25  26
ATOM     26  C   UNL     1      -2.650  12.671  22.069  0.00  0.00    +0.000 C 
ATOM     27  F   UNL     1      -3.210  11.883  23.009  0.00  0.00    +0.000 F 
ATOM     28  F   UNL     1      -3.001  13.951  22.307  0.00  0.00    +0.000 F 
ATOM     29  F   UNL     1      -3.163  12.309  20.871  0.00  0.00    +0.000 F 
ENDBRANCH  25  26
ENDBRANCH   9  25
TORSDOF 5
ENDMDL
MODEL 6
REMARK VINA RESULT:      -7.3      2.532      3.525
REMARK  Name = 
REMARK  5 active torsions:
REMARK  status: ('A' for Active; 'I' for Inactive)
REMARK    1  A    between atoms: N_1  and  C_2
REMARK    2  A    between atoms: C_2  and  C_3
REMARK    3  A    between atoms: C_9  and  C_10
REMARK    4  A    between atoms: C_18  and  O_19
REMARK    5  A    between atoms: O_19  and  C_20
REMARK                            x       y       z     vdW  Elec       q    Type
REMARK                         _______ _______ _______ _____ _____    ______ ____
ROOT
ATOM      1  C   UNL     1       3.241   7.013  18.010  0.00  0.00    +0.000 C 
ATOM      2  O   UNL     1       3.405   8.038  17.351  0.00  0.00    +0.000 OA
ATOM      3  N   UNL     1       2.543   6.905  19.191  0.00  0.00    +0.000 N 
ATOM      4  C   UNL     1       1.768   7.869  19.768  0.00  0.00    +0.000 A 
ATOM      5  N   UNL     1       1.419   7.787  21.029  0.00  0.00    +0.000 NA
ATOM      6  C   UNL     1       0.690   8.908  21.375  0.00  0.00    +0.000 A 
ATOM      7  C   UNL     1       0.243   9.236  22.667  0.00  0.00    +0.000 A 
ATOM      8  C   UNL     1      -0.478  10.418  22.881  0.00  0.00    +0.000 A 
ATOM      9  C   UNL     1      -0.821  11.241  21.813  0.00  0.00    +0.000 A 
ATOM     10  C   UNL     1      -0.363  10.942  20.521  0.00  0.00    +0.000 A 
ATOM     11  C   UNL     1       0.402   9.783  20.326  0.00  0.00    +0.000 A 
ATOM     12  S   UNL     1       1.141   9.186  18.893  0.00  0.00    +0.000 S 
ATOM     13  H   UNL     1       2.668   6.073  19.751  0.00  0.00    +0.000 HD
ENDROOT
BRANCH   1  20
ATOM     14  C   UNL     1       2.395   3.984  18.228  0.00  0.00    +0.000 C 
ATOM     15  O   UNL     1       1.537   4.544  17.543  0.00  0.00    +0.000 OA
ATOM     16  N   UNL     1       3.634   4.556  18.440  0.00  0.00    +0.000 N 
ATOM     17  C   UNL     1       4.764   3.923  19.092  0.00  0.00    +0.000 C 
ATOM     18  C   UNL     1       5.726   5.071  19.318  0.00  0.00    +0.000 C 
ATOM     19  C   UNL     1       5.526   5.944  18.080  0.00  0.00    +0.000 C 
ATOM     20  C   UNL     1       4.051   5.744  17.686  0.00  0.00    +0.000 C 
BRANCH  14  21
ATOM     21  C   UNL     1       2.092   2.662  18.939  0.00  0.00    +0.000 C 
BRANCH  21  22
ATOM     22  N   UNL     1       0.823   2.099  18.456  0.00  0.00    +0.000 NA
ATOM     23  H   UNL     1       0.233   2.862  18.126  0.00  0.00    +0.000 HD
ATOM     24  H   UNL     1       0.327   1.699  19.256  0.00  0.00    +0.000 HD
ENDBRANCH  21  22
ENDBRANCH  14  21
ENDBRANCH   1  20
BRANCH   9  25
ATOM     25  O   UNL     1      -1.530  12.401  21.896  0.00  0.00    +0.000 OA
BRANCH  25  26
ATOM     26  C   UNL     1      -0.957  13.540  22.525  0.00  0.00    +0.000 C 
ATOM     27  F   UNL     1      -1.038  13.533  23.871  0.00  0.00    +0.000 F 
ATOM     28  F   UNL     1       0.339  13.639  22.166  0.00  0.00    +0.000 F 
ATOM     29  F   UNL     1      -1.603  14.641  22.079  0.00  0.00    +0.000 F 
ENDBRANCH  25  26
ENDBRANCH   9  25
TORSDOF 5
ENDMDL
MODEL 7
REMARK VINA RESULT:      -7.2      2.094      2.830
REMARK  Name = 
REMARK  5 active torsions:
REMARK  status: ('A' for Active; 'I' for Inactive)
REMARK    1  A    between atoms: N_1  and  C_2
REMARK    2  A    between atoms: C_2  and  C_3
REMARK    3  A    between atoms: C_9  and  C_10
REMARK    4  A    between atoms: C_18  and  O_19
REMARK    5  A    between atoms: O_19  and  C_20
REMARK                            x       y       z     vdW  Elec       q    Type
REMARK                         _______ _______ _______ _____ _____    ______ ____
ROOT
ATOM      1  C   UNL     1       2.562   4.842  20.152  0.00  0.00    +0.000 C 
ATOM      2  O   UNL     1       1.752   4.741  21.071  0.00  0.00    +0.000 OA
ATOM      3  N   UNL     1       2.751   5.943  19.349  0.00  0.00    +0.000 N 
ATOM      4  C   UNL     1       2.195   7.179  19.519  0.00  0.00    +0.000 A 
ATOM      5  N   UNL     1       2.174   8.049  18.538  0.00  0.00    +0.000 NA
ATOM      6  C   UNL     1       1.510   9.188  18.953  0.00  0.00    +0.000 A 
ATOM      7  C   UNL     1       1.184  10.292  18.146  0.00  0.00    +0.000 A 
ATOM      8  C   UNL     1       0.493  11.381  18.694  0.00  0.00    +0.000 A 
ATOM      9  C   UNL     1       0.187  11.414  20.051  0.00  0.00    +0.000 A 
ATOM     10  C   UNL     1       0.484  10.311  20.865  0.00  0.00    +0.000 A 
ATOM     11  C   UNL     1       1.130   9.205  20.296  0.00  0.00    +0.000 A 
ATOM     12  S   UNL     1       1.571   7.704  21.012  0.00  0.00    +0.000 S 
ATOM     13  H   UNL     1       3.277   5.832  18.492  0.00  0.00    +0.000 HD
ENDROOT
BRANCH   1  20
ATOM     14  C   UNL     1       5.362   4.635  18.717  0.00  0.00    +0.000 C 
ATOM     15  O   UNL     1       5.546   5.258  19.764  0.00  0.00    +0.000 OA
ATOM     16  N   UNL     1       4.228   3.870  18.522  0.00  0.00    +0.000 N 
ATOM     17  C   UNL     1       3.983   2.980  17.403  0.00  0.00    +0.000 C 
ATOM     18  C   UNL     1       2.511   2.648  17.537  0.00  0.00    +0.000 C 
ATOM     19  C   UNL     1       2.302   2.588  19.050  0.00  0.00    +0.000 C 
ATOM     20  C   UNL     1       3.306   3.599  19.631  0.00  0.00    +0.000 C 
BRANCH  14  21
ATOM     21  C   UNL     1       6.351   4.747  17.552  0.00  0.00    +0.000 C 
BRANCH  21  22
ATOM     22  N   UNL     1       7.689   4.310  17.974  0.00  0.00    +0.000 NA
ATOM     23  H   UNL     1       8.003   4.908  18.736  0.00  0.00    +0.000 HD
ATOM     24  H   UNL     1       8.340   4.488  17.204  0.00  0.00    +0.000 HD
ENDBRANCH  21  22
ENDBRANCH  14  21
ENDBRANCH   1  20
BRANCH   9  25
ATOM     25  O   UNL     1      -0.464  12.422  20.697  0.00  0.00    +0.000 OA
BRANCH  25  26
ATOM     26  C   UNL     1      -1.883  12.411  20.781  0.00  0.00    +0.000 C 
ATOM     27  F   UNL     1      -2.455  13.629  20.694  0.00  0.00    +0.000 F 
ATOM     28  F   UNL     1      -2.379  11.625  19.804  0.00  0.00    +0.000 F 
ATOM     29  F   UNL     1      -2.234  11.875  21.972  0.00  0.00    +0.000 F 
ENDBRANCH  25  26
ENDBRANCH   9  25
TORSDOF 5
ENDMDL
MODEL 8
REMARK VINA RESULT:      -7.2      4.837      8.352
REMARK  Name = 
REMARK  5 active torsions:
REMARK  status: ('A' for Active; 'I' for Inactive)
REMARK    1  A    between atoms: N_1  and  C_2
REMARK    2  A    between atoms: C_2  and  C_3
REMARK    3  A    between atoms: C_9  and  C_10
REMARK    4  A    between atoms: C_18  and  O_19
REMARK    5  A    between atoms: O_19  and  C_20
REMARK                            x       y       z     vdW  Elec       q    Type
REMARK                         _______ _______ _______ _____ _____    ______ ____
ROOT
ATOM      1  C   UNL     1       1.020  12.085  19.221  0.00  0.00    +0.000 C 
ATOM      2  O   UNL     1       1.076  12.103  20.449  0.00  0.00    +0.000 OA
ATOM      3  N   UNL     1       1.291  11.008  18.408  0.00  0.00    +0.000 N 
ATOM      4  C   UNL     1       1.514   9.722  18.808  0.00  0.00    +0.000 A 
ATOM      5  N   UNL     1       2.077   8.854  18.003  0.00  0.00    +0.000 NA
ATOM      6  C   UNL     1       2.237   7.653  18.668  0.00  0.00    +0.000 A 
ATOM      7  C   UNL     1       2.908   6.520  18.174  0.00  0.00    +0.000 A 
ATOM      8  C   UNL     1       3.009   5.367  18.962  0.00  0.00    +0.000 A 
ATOM      9  C   UNL     1       2.389   5.303  20.206  0.00  0.00    +0.000 A 
ATOM     10  C   UNL     1       1.736   6.431  20.724  0.00  0.00    +0.000 A 
ATOM     11  C   UNL     1       1.684   7.598  19.948  0.00  0.00    +0.000 A 
ATOM     12  S   UNL     1       1.014   9.137  20.325  0.00  0.00    +0.000 S 
ATOM     13  H   UNL     1       1.433  11.173  17.420  0.00  0.00    +0.000 HD
ENDROOT
BRANCH   1  20
ATOM     14  C   UNL     1       3.235  14.138  18.316  0.00  0.00    +0.000 C 
ATOM     15  O   UNL     1       3.590  13.031  17.908  0.00  0.00    +0.000 OA
ATOM     16  N   UNL     1       1.930  14.381  18.698  0.00  0.00    +0.000 N 
ATOM     17  C   UNL     1       1.371  15.675  19.042  0.00  0.00    +0.000 C 
ATOM     18  C   UNL     1       0.031  15.323  19.657  0.00  0.00    +0.000 C 
ATOM     19  C   UNL     1      -0.425  14.117  18.837  0.00  0.00    +0.000 C 
ATOM     20  C   UNL     1       0.874  13.398  18.430  0.00  0.00    +0.000 C 
BRANCH  14  21
ATOM     21  C   UNL     1       4.249  15.272  18.492  0.00  0.00    +0.000 C 
BRANCH  21  22
ATOM     22  N   UNL     1       5.509  14.941  17.811  0.00  0.00    +0.000 NA
ATOM     23  H   UNL     1       6.077  15.785  17.748  0.00  0.00    +0.000 HD
ATOM     24  H   UNL     1       5.291  14.688  16.843  0.00  0.00    +0.000 HD
ENDBRANCH  21  22
ENDBRANCH  14  21
ENDBRANCH   1  20
BRANCH   9  25
ATOM     25  O   UNL     1       2.404   4.234  21.050  0.00  0.00    +0.000 OA
BRANCH  25  26
ATOM     26  C   UNL     1       1.538   3.130  20.813  0.00  0.00    +0.000 C 
ATOM     27  F   UNL     1       2.087   2.140  20.081  0.00  0.00    +0.000 F 
ATOM     28  F   UNL     1       1.131   2.625  21.995  0.00  0.00    +0.000 F 
ATOM     29  F   UNL     1       0.450   3.580  20.148  0.00  0.00    +0.000 F 
ENDBRANCH  25  26
ENDBRANCH   9  25
TORSDOF 5
ENDMDL
MODEL 9
REMARK VINA RESULT:      -7.2      4.821      9.055
REMARK  Name = 
REMARK  5 active torsions:
REMARK  status: ('A' for Active; 'I' for Inactive)
REMARK    1  A    between atoms: N_1  and  C_2
REMARK    2  A    between atoms: C_2  and  C_3
REMARK    3  A    between atoms: C_9  and  C_10
REMARK    4  A    between atoms: C_18  and  O_19
REMARK    5  A    between atoms: O_19  and  C_20
REMARK                            x       y       z     vdW  Elec       q    Type
REMARK                         _______ _______ _______ _____ _____    ______ ____
ROOT
ATOM      1  C   UNL     1       1.444   9.556  18.755  0.00  0.00    +0.000 C 
ATOM      2  O   UNL     1       1.831  10.090  17.718  0.00  0.00    +0.000 OA
ATOM      3  N   UNL     1       1.670   8.253  19.136  0.00  0.00    +0.000 N 
ATOM      4  C   UNL     1       2.497   7.358  18.521  0.00  0.00    +0.000 A 
ATOM      5  N   UNL     1       2.395   6.073  18.759  0.00  0.00    +0.000 NA
ATOM      6  C   UNL     1       3.303   5.390  17.973  0.00  0.00    +0.000 A 
ATOM      7  C   UNL     1       3.410   3.992  17.862  0.00  0.00    +0.000 A 
ATOM      8  C   UNL     1       4.371   3.428  17.012  0.00  0.00    +0.000 A 
ATOM      9  C   UNL     1       5.273   4.238  16.328  0.00  0.00    +0.000 A 
ATOM     10  C   UNL     1       5.164   5.634  16.408  0.00  0.00    +0.000 A 
ATOM     11  C   UNL     1       4.166   6.189  17.222  0.00  0.00    +0.000 A 
ATOM     12  S   UNL     1       3.753   7.838  17.479  0.00  0.00    +0.000 S 
ATOM     13  H   UNL     1       1.116   7.867  19.890  0.00  0.00    +0.000 HD
ENDROOT
BRANCH   1  20
ATOM     14  C   UNL     1      -1.433  10.627  18.036  0.00  0.00    +0.000 C 
ATOM     15  O   UNL     1      -1.397   9.447  17.686  0.00  0.00    +0.000 OA
ATOM     16  N   UNL     1      -0.512  11.144  18.927  0.00  0.00    +0.000 N 
ATOM     17  C   UNL     1      -0.553  12.466  19.523  0.00  0.00    +0.000 C 
ATOM     18  C   UNL     1       0.817  12.606  20.155  0.00  0.00    +0.000 C 
ATOM     19  C   UNL     1       1.121  11.192  20.649  0.00  0.00    +0.000 C 
ATOM     20  C   UNL     1       0.408  10.261  19.652  0.00  0.00    +0.000 C 
BRANCH  14  21
ATOM     21  C   UNL     1      -2.458  11.594  17.435  0.00  0.00    +0.000 C 
BRANCH  21  22
ATOM     22  N   UNL     1      -2.461  11.488  15.969  0.00  0.00    +0.000 NA
ATOM     23  H   UNL     1      -3.292  11.957  15.610  0.00  0.00    +0.000 HD
ATOM     24  H   UNL     1      -2.578  10.502  15.720  0.00  0.00    +0.000 HD
ENDBRANCH  21  22
ENDBRANCH  14  21
ENDBRANCH   1  20
BRANCH   9  25
ATOM     25  O   UNL     1       6.257   3.805  15.491  0.00  0.00    +0.000 OA
BRANCH  25  26
ATOM     26  C   UNL     1       6.197   4.116  14.104  0.00  0.00    +0.000 C 
ATOM     27  F   UNL     1       6.931   5.188  13.742  0.00  0.00    +0.000 F 
ATOM     28  F   UNL     1       6.606   3.047  13.392  0.00  0.00    +0.000 F 
ATOM     29  F   UNL     1       4.909   4.371  13.782  0.00  0.00    +0.000 F 
ENDBRANCH  25  26
ENDBRANCH   9  25
TORSDOF 5
ENDMDL
