MODEL 1
REMARK VINA RESULT:      -7.9      0.000      0.000
REMARK  Name = 
REMARK  13 active torsions:
REMARK  status: ('A' for Active; 'I' for Inactive)
REMARK    1  A    between atoms: C_1  and  C_2
REMARK    2  A    between atoms: C_2  and  C_3
REMARK    3  A    between atoms: C_2  and  C_4
REMARK    4  A    between atoms: C_7  and  N_8
REMARK    5  A    between atoms: C_9  and  C_11
REMARK    6  A    between atoms: C_11  and  O_12
REMARK    7  A    between atoms: O_12  and  C_13
REMARK    8  A    between atoms: C_13  and  C_15
REMARK    9  A    between atoms: C_15  and  C_16
REMARK   10  A    between atoms: C_15  and  N_21
REMARK   11  A    between atoms: C_16  and  C_17
REMARK   12  A    between atoms: C_17  and  C_18
REMARK   13  A    between atoms: C_22  and  C_24
REMARK                            x       y       z     vdW  Elec       q    Type
REMARK                         _______ _______ _______ _____ _____    ______ ____
ROOT
ATOM      1  C   UNL     1       4.641   5.088  19.096  0.00  0.00    +0.000 C 
ENDROOT
BRANCH   1   2
ATOM      2  N   UNL     1       3.835   6.288  18.819  0.00  0.00    +0.000 N 
ATOM      3  C   UNL     1       2.705   6.561  19.573  0.00  0.00    +0.000 C 
ATOM      4  O   UNL     1       2.268   5.787  20.416  0.00  0.00    +0.000 OA
ATOM      5  H   UNL     1       4.235   7.013  18.242  0.00  0.00    +0.000 HD
BRANCH   3   6
ATOM      6  C   UNL     1       2.005   7.849  19.303  0.00  0.00    +0.000 A 
ATOM      7  C   UNL     1       1.327   8.463  20.368  0.00  0.00    +0.000 A 
ATOM      8  C   UNL     1       0.575   9.619  20.150  0.00  0.00    +0.000 A 
ATOM      9  C   UNL     1       0.522  10.170  18.875  0.00  0.00    +0.000 A 
ATOM     10  F   UNL     1      -0.225  11.259  18.656  0.00  0.00    +0.000 F 
ATOM     11  C   UNL     1       1.232   9.604  17.821  0.00  0.00    +0.000 A 
ATOM     12  C   UNL     1       1.983   8.445  18.033  0.00  0.00    +0.000 A 
ENDBRANCH   3   6
ENDBRANCH   1   2
BRANCH   1  13
ATOM     13  C   UNL     1       6.108   5.461  19.383  0.00  0.00    +0.000 C 
ATOM     14  O   UNL     1       6.843   4.855  20.151  0.00  0.00    +0.000 OA
BRANCH  13  15
ATOM     15  O   UNL     1       6.482   6.572  18.690  0.00  0.00    +0.000 OA
BRANCH  15  16
ATOM     16  C   UNL     1       7.645   6.407  17.889  0.00  0.00    +0.000 C 
BRANCH  16  18
ATOM     17  N   UNL     1       6.728   5.720  15.732  0.00  0.00    +0.000 N 
ATOM     18  C   UNL     1       7.496   5.340  16.820  0.00  0.00    +0.000 C 
ATOM     19  O   UNL     1       8.056   4.258  16.978  0.00  0.00    +0.000 OA
ATOM     20  H   UNL     1       6.345   6.654  15.764  0.00  0.00    +0.000 HD
BRANCH  17  24
ATOM     21  C   UNL     1       5.842   3.416  12.286  0.00  0.00    +0.000 A 
ATOM     22  C   UNL     1       4.950   3.444  13.359  0.00  0.00    +0.000 A 
ATOM     23  C   UNL     1       5.229   4.187  14.506  0.00  0.00    +0.000 A 
ATOM     24  C   UNL     1       6.415   4.928  14.611  0.00  0.00    +0.000 A 
ATOM     25  C   UNL     1       7.319   4.892  13.549  0.00  0.00    +0.000 A 
ATOM     26  C   UNL     1       7.034   4.147  12.397  0.00  0.00    +0.000 A 
BRANCH  21  28
ATOM     27  C   UNL     1       5.899   1.237  11.102  0.00  0.00    +0.000 C 
ATOM     28  C   UNL     1       5.455   2.700  11.006  0.00  0.00    +0.000 C 
ATOM     29  C   UNL     1       3.959   2.780  10.679  0.00  0.00    +0.000 C 
ENDBRANCH  21  28
ENDBRANCH  17  24
ENDBRANCH  16  18
ENDBRANCH  15  16
ENDBRANCH  13  15
ENDBRANCH   1  13
BRANCH   1  30
ATOM     30  C   UNL     1       4.517   4.079  17.944  0.00  0.00    +0.000 C 
BRANCH  30  31
ATOM     31  C   UNL     1       3.111   3.480  17.808  0.00  0.00    +0.000 C 
BRANCH  31  32
ATOM     32  C   UNL     1       2.944   2.173  18.551  0.00  0.00    +0.000 C 
ATOM     33  N   UNL     1       4.009   1.326  18.433  0.00  0.00    +0.000 N 
ATOM     34  O   UNL     1       1.949   1.861  19.188  0.00  0.00    +0.000 OA
ATOM     35  H   UNL     1       4.822   1.527  17.865  0.00  0.00    +0.000 HD
ATOM     36  H   UNL     1       3.943   0.418  18.875  0.00  0.00    +0.000 HD
ENDBRANCH  31  32
ENDBRANCH  30  31
ENDBRANCH   1  30
TORSDOF 11
ENDMDL
MODEL 2
REMARK VINA RESULT:      -7.8      4.132      7.287
REMARK  Name = 
REMARK  13 active torsions:
REMARK  status: ('A' for Active; 'I' for Inactive)
REMARK    1  A    between atoms: C_1  and  C_2
REMARK    2  A    between atoms: C_2  and  C_3
REMARK    3  A    between atoms: C_2  and  C_4
REMARK    4  A    between atoms: C_7  and  N_8
REMARK    5  A    between atoms: C_9  and  C_11
REMARK    6  A    between atoms: C_11  and  O_12
REMARK    7  A    between atoms: O_12  and  C_13
REMARK    8  A    between atoms: C_13  and  C_15
REMARK    9  A    between atoms: C_15  and  C_16
REMARK   10  A    between atoms: C_15  and  N_21
REMARK   11  A    between atoms: C_16  and  C_17
REMARK   12  A    between atoms: C_17  and  C_18
REMARK   13  A    between atoms: C_22  and  C_24
REMARK                            x       y       z     vdW  Elec       q    Type
REMARK                         _______ _______ _______ _____ _____    ______ ____
ROOT
ATOM      1  C   UNL     1       5.354   5.326  16.584  0.00  0.00    +0.000 C 
ENDROOT
BRANCH   1   2
ATOM      2  N   UNL     1       4.465   6.309  17.224  0.00  0.00    +0.000 N 
ATOM      3  C   UNL     1       3.367   5.886  17.956  0.00  0.00    +0.000 C 
ATOM      4  O   UNL     1       3.026   4.710  18.021  0.00  0.00    +0.000 OA
ATOM      5  H   UNL     1       4.787   7.261  17.316  0.00  0.00    +0.000 HD
BRANCH   3   6
ATOM      6  C   UNL     1       2.579   6.934  18.663  0.00  0.00    +0.000 A 
ATOM      7  C   UNL     1       2.239   8.094  17.948  0.00  0.00    +0.000 A 
ATOM      8  C   UNL     1       1.585   9.148  18.588  0.00  0.00    +0.000 A 
ATOM      9  C   UNL     1       1.253   9.032  19.932  0.00  0.00    +0.000 A 
ATOM     10  F   UNL     1       0.656  10.055  20.557  0.00  0.00    +0.000 F 
ATOM     11  C   UNL     1       1.534   7.869  20.641  0.00  0.00    +0.000 A 
ATOM     12  C   UNL     1       2.192   6.811  20.006  0.00  0.00    +0.000 A 
ENDBRANCH   3   6
ENDBRANCH   1   2
BRANCH   1  13
ATOM     13  C   UNL     1       6.711   5.253  17.310  0.00  0.00    +0.000 C 
ATOM     14  O   UNL     1       7.618   4.486  17.013  0.00  0.00    +0.000 OA
BRANCH  13  15
ATOM     15  O   UNL     1       6.769   6.135  18.345  0.00  0.00    +0.000 OA
BRANCH  15  16
ATOM     16  C   UNL     1       8.062   6.666  18.599  0.00  0.00    +0.000 C 
BRANCH  16  18
ATOM     17  N   UNL     1       8.935   8.872  19.184  0.00  0.00    +0.000 N 
ATOM     18  C   UNL     1       8.183   8.144  18.276  0.00  0.00    +0.000 C 
ATOM     19  O   UNL     1       7.640   8.578  17.264  0.00  0.00    +0.000 OA
ATOM     20  H   UNL     1       9.315   8.351  19.963  0.00  0.00    +0.000 HD
BRANCH  17  24
ATOM     21  C   UNL     1       9.670  13.046  19.160  0.00  0.00    +0.000 A 
ATOM     22  C   UNL     1       9.349  12.384  17.974  0.00  0.00    +0.000 A 
ATOM     23  C   UNL     1       9.114  11.010  17.960  0.00  0.00    +0.000 A 
ATOM     24  C   UNL     1       9.195  10.254  19.139  0.00  0.00    +0.000 A 
ATOM     25  C   UNL     1       9.532  10.906  20.325  0.00  0.00    +0.000 A 
ATOM     26  C   UNL     1       9.764  12.288  20.336  0.00  0.00    +0.000 A 
BRANCH  21  28
ATOM     27  C   UNL     1      11.226  14.936  18.759  0.00  0.00    +0.000 C 
ATOM     28  C   UNL     1       9.798  14.558  19.166  0.00  0.00    +0.000 C 
ATOM     29  C   UNL     1       8.783  15.269  18.263  0.00  0.00    +0.000 C 
ENDBRANCH  21  28
ENDBRANCH  17  24
ENDBRANCH  16  18
ENDBRANCH  15  16
ENDBRANCH  13  15
ENDBRANCH   1  13
BRANCH   1  30
ATOM     30  C   UNL     1       5.516   5.640  15.088  0.00  0.00    +0.000 C 
BRANCH  30  31
ATOM     31  C   UNL     1       5.477   4.393  14.196  0.00  0.00    +0.000 C 
BRANCH  31  32
ATOM     32  C   UNL     1       6.671   4.279  13.275  0.00  0.00    +0.000 C 
ATOM     33  N   UNL     1       6.678   3.147  12.511  0.00  0.00    +0.000 N 
ATOM     34  O   UNL     1       7.578   5.096  13.212  0.00  0.00    +0.000 OA
ATOM     35  H   UNL     1       5.975   2.422  12.580  0.00  0.00    +0.000 HD
ATOM     36  H   UNL     1       7.471   2.992  11.901  0.00  0.00    +0.000 HD
ENDBRANCH  31  32
ENDBRANCH  30  31
ENDBRANCH   1  30
TORSDOF 11
ENDMDL
MODEL 3
REMARK VINA RESULT:      -7.6      3.768      6.676
REMARK  Name = 
REMARK  13 active torsions:
REMARK  status: ('A' for Active; 'I' for Inactive)
REMARK    1  A    between atoms: C_1  and  C_2
REMARK    2  A    between atoms: C_2  and  C_3
REMARK    3  A    between atoms: C_2  and  C_4
REMARK    4  A    between atoms: C_7  and  N_8
REMARK    5  A    between atoms: C_9  and  C_11
REMARK    6  A    between atoms: C_11  and  O_12
REMARK    7  A    between atoms: O_12  and  C_13
REMARK    8  A    between atoms: C_13  and  C_15
REMARK    9  A    between atoms: C_15  and  C_16
REMARK   10  A    between atoms: C_15  and  N_21
REMARK   11  A    between atoms: C_16  and  C_17
REMARK   12  A    between atoms: C_17  and  C_18
REMARK   13  A    between atoms: C_22  and  C_24
REMARK                            x       y       z     vdW  Elec       q    Type
REMARK                         _______ _______ _______ _____ _____    ______ ____
ROOT
ATOM      1  C   UNL     1       4.342   5.099  18.692  0.00  0.00    +0.000 C 
ENDROOT
BRANCH   1   2
ATOM      2  N   UNL     1       3.604   6.372  18.678  0.00  0.00    +0.000 N 
ATOM      3  C   UNL     1       2.523   6.562  19.523  0.00  0.00    +0.000 C 
ATOM      4  O   UNL     1       2.068   5.671  20.231  0.00  0.00    +0.000 OA
ATOM      5  H   UNL     1       4.028   7.169  18.225  0.00  0.00    +0.000 HD
BRANCH   3   6
ATOM      6  C   UNL     1       1.896   7.914  19.528  0.00  0.00    +0.000 A 
ATOM      7  C   UNL     1       1.272   8.345  20.710  0.00  0.00    +0.000 A 
ATOM      8  C   UNL     1       0.587   9.561  20.741  0.00  0.00    +0.000 A 
ATOM      9  C   UNL     1       0.546  10.353  19.600  0.00  0.00    +0.000 A 
ATOM     10  F   UNL     1      -0.139  11.503  19.617  0.00  0.00    +0.000 F 
ATOM     11  C   UNL     1       1.205   9.966  18.437  0.00  0.00    +0.000 A 
ATOM     12  C   UNL     1       1.889   8.748  18.399  0.00  0.00    +0.000 A 
ENDBRANCH   3   6
ENDBRANCH   1   2
BRANCH   1  13
ATOM     13  C   UNL     1       5.855   5.338  18.857  0.00  0.00    +0.000 C 
ATOM     14  O   UNL     1       6.516   4.974  19.820  0.00  0.00    +0.000 OA
BRANCH  13  15
ATOM     15  O   UNL     1       6.366   6.032  17.803  0.00  0.00    +0.000 OA
BRANCH  15  16
ATOM     16  C   UNL     1       7.693   6.505  17.992  0.00  0.00    +0.000 C 
BRANCH  16  18
ATOM     17  N   UNL     1       8.726   8.569  18.792  0.00  0.00    +0.000 N 
ATOM     18  C   UNL     1       7.814   8.016  17.908  0.00  0.00    +0.000 C 
ATOM     19  O   UNL     1       7.134   8.623  17.084  0.00  0.00    +0.000 OA
ATOM     20  H   UNL     1       9.206   7.919  19.399  0.00  0.00    +0.000 HD
BRANCH  17  24
ATOM     21  C   UNL     1       9.594  12.680  19.354  0.00  0.00    +0.000 A 
ATOM     22  C   UNL     1       9.115  12.226  18.123  0.00  0.00    +0.000 A 
ATOM     23  C   UNL     1       8.834  10.876  17.915  0.00  0.00    +0.000 A 
ATOM     24  C   UNL     1       9.025   9.937  18.939  0.00  0.00    +0.000 A 
ATOM     25  C   UNL     1       9.519  10.380  20.166  0.00  0.00    +0.000 A 
ATOM     26  C   UNL     1       9.797  11.738  20.372  0.00  0.00    +0.000 A 
BRANCH  21  28
ATOM     27  C   UNL     1      10.136  14.400  21.057  0.00  0.00    +0.000 C 
ATOM     28  C   UNL     1       9.772  14.168  19.587  0.00  0.00    +0.000 C 
ATOM     29  C   UNL     1      10.817  14.818  18.673  0.00  0.00    +0.000 C 
ENDBRANCH  21  28
ENDBRANCH  17  24
ENDBRANCH  16  18
ENDBRANCH  15  16
ENDBRANCH  13  15
ENDBRANCH   1  13
BRANCH   1  30
ATOM     30  C   UNL     1       4.022   4.278  17.433  0.00  0.00    +0.000 C 
BRANCH  30  31
ATOM     31  C   UNL     1       4.127   2.763  17.651  0.00  0.00    +0.000 C 
BRANCH  31  32
ATOM     32  C   UNL     1       3.810   2.340  19.068  0.00  0.00    +0.000 C 
ATOM     33  N   UNL     1       4.893   1.892  19.770  0.00  0.00    +0.000 N 
ATOM     34  O   UNL     1       2.694   2.361  19.564  0.00  0.00    +0.000 OA
ATOM     35  H   UNL     1       5.820   1.805  19.373  0.00  0.00    +0.000 HD
ATOM     36  H   UNL     1       4.740   1.557  20.713  0.00  0.00    +0.000 HD
ENDBRANCH  31  32
ENDBRANCH  30  31
ENDBRANCH   1  30
TORSDOF 11
ENDMDL
MODEL 4
REMARK VINA RESULT:      -7.6      4.650      7.857
REMARK  Name = 
REMARK  13 active torsions:
REMARK  status: ('A' for Active; 'I' for Inactive)
REMARK    1  A    between atoms: C_1  and  C_2
REMARK    2  A    between atoms: C_2  and  C_3
REMARK    3  A    between atoms: C_2  and  C_4
REMARK    4  A    between atoms: C_7  and  N_8
REMARK    5  A    between atoms: C_9  and  C_11
REMARK    6  A    between atoms: C_11  and  O_12
REMARK    7  A    between atoms: O_12  and  C_13
REMARK    8  A    between atoms: C_13  and  C_15
REMARK    9  A    between atoms: C_15  and  C_16
REMARK   10  A    between atoms: C_15  and  N_21
REMARK   11  A    between atoms: C_16  and  C_17
REMARK   12  A    between atoms: C_17  and  C_18
REMARK   13  A    between atoms: C_22  and  C_24
REMARK                            x       y       z     vdW  Elec       q    Type
REMARK                         _______ _______ _______ _____ _____    ______ ____
ROOT
ATOM      1  C   UNL     1       5.321   5.711  17.279  0.00  0.00    +0.000 C 
ENDROOT
BRANCH   1   2
ATOM      2  N   UNL     1       4.402   6.795  17.663  0.00  0.00    +0.000 N 
ATOM      3  C   UNL     1       3.151   6.500  18.181  0.00  0.00    +0.000 C 
ATOM      4  O   UNL     1       2.713   5.357  18.246  0.00  0.00    +0.000 OA
ATOM      5  H   UNL     1       4.773   7.729  17.761  0.00  0.00    +0.000 HD
BRANCH   3   6
ATOM      6  C   UNL     1       2.323   7.647  18.647  0.00  0.00    +0.000 A 
ATOM      7  C   UNL     1       1.972   7.696  20.005  0.00  0.00    +0.000 A 
ATOM      8  C   UNL     1       1.118   8.695  20.476  0.00  0.00    +0.000 A 
ATOM      9  C   UNL     1       0.636   9.655  19.594  0.00  0.00    +0.000 A 
ATOM     10  F   UNL     1      -0.209  10.594  20.036  0.00  0.00    +0.000 F 
ATOM     11  C   UNL     1       1.017   9.652  18.256  0.00  0.00    +0.000 A 
ATOM     12  C   UNL     1       1.869   8.652  17.778  0.00  0.00    +0.000 A 
ENDBRANCH   3   6
ENDBRANCH   1   2
BRANCH   1  13
ATOM     13  C   UNL     1       6.748   5.989  17.792  0.00  0.00    +0.000 C 
ATOM     14  O   UNL     1       7.480   5.150  18.299  0.00  0.00    +0.000 OA
BRANCH  13  15
ATOM     15  O   UNL     1       7.087   7.297  17.631  0.00  0.00    +0.000 OA
BRANCH  15  16
ATOM     16  C   UNL     1       8.303   7.676  18.262  0.00  0.00    +0.000 C 
BRANCH  16  18
ATOM     17  N   UNL     1       9.369   9.567  19.381  0.00  0.00    +0.000 N 
ATOM     18  C   UNL     1       8.470   9.178  18.403  0.00  0.00    +0.000 C 
ATOM     19  O   UNL     1       7.833   9.919  17.659  0.00  0.00    +0.000 OA
ATOM     20  H   UNL     1       9.811   8.820  19.900  0.00  0.00    +0.000 HD
BRANCH  17  24
ATOM     21  C   UNL     1      10.481  13.532  20.389  0.00  0.00    +0.000 A 
ATOM     22  C   UNL     1       9.665  12.792  21.248  0.00  0.00    +0.000 A 
ATOM     23  C   UNL     1       9.280  11.490  20.929  0.00  0.00    +0.000 A 
ATOM     24  C   UNL     1       9.702  10.888  19.735  0.00  0.00    +0.000 A 
ATOM     25  C   UNL     1      10.504  11.627  18.864  0.00  0.00    +0.000 A 
ATOM     26  C   UNL     1      10.892  12.933  19.190  0.00  0.00    +0.000 A 
BRANCH  21  28
ATOM     27  C   UNL     1      10.881  15.860  19.635  0.00  0.00    +0.000 C 
ATOM     28  C   UNL     1      10.982  14.897  20.821  0.00  0.00    +0.000 C 
ATOM     29  C   UNL     1      10.247  15.471  22.037  0.00  0.00    +0.000 C 
ENDBRANCH  21  28
ENDBRANCH  17  24
ENDBRANCH  16  18
ENDBRANCH  15  16
ENDBRANCH  13  15
ENDBRANCH   1  13
BRANCH   1  30
ATOM     30  C   UNL     1       5.287   5.490  15.759  0.00  0.00    +0.000 C 
BRANCH  30  31
ATOM     31  C   UNL     1       6.061   4.245  15.308  0.00  0.00    +0.000 C 
BRANCH  31  32
ATOM     32  C   UNL     1       6.672   4.387  13.932  0.00  0.00    +0.000 C 
ATOM     33  N   UNL     1       6.289   3.417  13.050  0.00  0.00    +0.000 N 
ATOM     34  O   UNL     1       7.460   5.264  13.611  0.00  0.00    +0.000 OA
ATOM     35  H   UNL     1       5.685   2.644  13.298  0.00  0.00    +0.000 HD
ATOM     36  H   UNL     1       6.693   3.434  12.122  0.00  0.00    +0.000 HD
ENDBRANCH  31  32
ENDBRANCH  30  31
ENDBRANCH   1  30
TORSDOF 11
ENDMDL
MODEL 5
REMARK VINA RESULT:      -7.5      4.124      7.089
REMARK  Name = 
REMARK  13 active torsions:
REMARK  status: ('A' for Active; 'I' for Inactive)
REMARK    1  A    between atoms: C_1  and  C_2
REMARK    2  A    between atoms: C_2  and  C_3
REMARK    3  A    between atoms: C_2  and  C_4
REMARK    4  A    between atoms: C_7  and  N_8
REMARK    5  A    between atoms: C_9  and  C_11
REMARK    6  A    between atoms: C_11  and  O_12
REMARK    7  A    between atoms: O_12  and  C_13
REMARK    8  A    between atoms: C_13  and  C_15
REMARK    9  A    between atoms: C_15  and  C_16
REMARK   10  A    between atoms: C_15  and  N_21
REMARK   11  A    between atoms: C_16  and  C_17
REMARK   12  A    between atoms: C_17  and  C_18
REMARK   13  A    between atoms: C_22  and  C_24
REMARK                            x       y       z     vdW  Elec       q    Type
REMARK                         _______ _______ _______ _____ _____    ______ ____
ROOT
ATOM      1  C   UNL     1       5.187   5.255  17.024  0.00  0.00    +0.000 C 
ENDROOT
BRANCH   1   2
ATOM      2  N   UNL     1       4.331   6.392  17.400  0.00  0.00    +0.000 N 
ATOM      3  C   UNL     1       3.248   6.203  18.242  0.00  0.00    +0.000 C 
ATOM      4  O   UNL     1       2.889   5.095  18.624  0.00  0.00    +0.000 OA
ATOM      5  H   UNL     1       4.671   7.327  17.228  0.00  0.00    +0.000 HD
BRANCH   3   6
ATOM      6  C   UNL     1       2.495   7.419  18.662  0.00  0.00    +0.000 A 
ATOM      7  C   UNL     1       2.061   7.495  19.995  0.00  0.00    +0.000 A 
ATOM      8  C   UNL     1       1.270   8.566  20.417  0.00  0.00    +0.000 A 
ATOM      9  C   UNL     1       0.936   9.568  19.514  0.00  0.00    +0.000 A 
ATOM     10  F   UNL     1       0.150  10.577  19.907  0.00  0.00    +0.000 F 
ATOM     11  C   UNL     1       1.403   9.535  18.204  0.00  0.00    +0.000 A 
ATOM     12  C   UNL     1       2.192   8.463  17.775  0.00  0.00    +0.000 A 
ENDBRANCH   3   6
ENDBRANCH   1   2
BRANCH   1  13
ATOM     13  C   UNL     1       6.449   5.198  17.907  0.00  0.00    +0.000 C 
ATOM     14  O   UNL     1       7.177   4.221  18.016  0.00  0.00    +0.000 OA
BRANCH  13  15
ATOM     15  O   UNL     1       6.642   6.369  18.574  0.00  0.00    +0.000 OA
BRANCH  15  16
ATOM     16  C   UNL     1       7.999   6.781  18.667  0.00  0.00    +0.000 C 
BRANCH  16  18
ATOM     17  N   UNL     1       8.915   9.010  19.067  0.00  0.00    +0.000 N 
ATOM     18  C   UNL     1       8.235   8.198  18.175  0.00  0.00    +0.000 C 
ATOM     19  O   UNL     1       7.837   8.514  17.057  0.00  0.00    +0.000 OA
ATOM     20  H   UNL     1       9.175   8.584  19.946  0.00  0.00    +0.000 HD
BRANCH  17  24
ATOM     21  C   UNL     1       9.895  13.076  18.380  0.00  0.00    +0.000 A 
ATOM     22  C   UNL     1      10.641  12.319  19.284  0.00  0.00    +0.000 A 
ATOM     23  C   UNL     1      10.328  10.982  19.532  0.00  0.00    +0.000 A 
ATOM     24  C   UNL     1       9.253  10.363  18.878  0.00  0.00    +0.000 A 
ATOM     25  C   UNL     1       8.492  11.119  17.985  0.00  0.00    +0.000 A 
ATOM     26  C   UNL     1       8.813  12.460  17.736  0.00  0.00    +0.000 A 
BRANCH  21  28
ATOM     27  C   UNL     1      10.852  15.166  19.314  0.00  0.00    +0.000 C 
ATOM     28  C   UNL     1      10.336  14.488  18.041  0.00  0.00    +0.000 C 
ATOM     29  C   UNL     1      11.395  14.558  16.935  0.00  0.00    +0.000 C 
ENDBRANCH  21  28
ENDBRANCH  17  24
ENDBRANCH  16  18
ENDBRANCH  15  16
ENDBRANCH  13  15
ENDBRANCH   1  13
BRANCH   1  30
ATOM     30  C   UNL     1       5.532   5.312  15.528  0.00  0.00    +0.000 C 
BRANCH  30  31
ATOM     31  C   UNL     1       6.250   4.056  15.020  0.00  0.00    +0.000 C 
BRANCH  31  32
ATOM     32  C   UNL     1       6.647   4.141  13.564  0.00  0.00    +0.000 C 
ATOM     33  N   UNL     1       6.040   3.212  12.767  0.00  0.00    +0.000 N 
ATOM     34  O   UNL     1       7.453   4.940  13.111  0.00  0.00    +0.000 OA
ATOM     35  H   UNL     1       5.414   2.499  13.117  0.00  0.00    +0.000 HD
ATOM     36  H   UNL     1       6.293   3.192  11.786  0.00  0.00    +0.000 HD
ENDBRANCH  31  32
ENDBRANCH  30  31
ENDBRANCH   1  30
TORSDOF 11
ENDMDL
MODEL 6
REMARK VINA RESULT:      -7.5      4.296      7.502
REMARK  Name = 
REMARK  13 active torsions:
REMARK  status: ('A' for Active; 'I' for Inactive)
REMARK    1  A    between atoms: C_1  and  C_2
REMARK    2  A    between atoms: C_2  and  C_3
REMARK    3  A    between atoms: C_2  and  C_4
REMARK    4  A    between atoms: C_7  and  N_8
REMARK    5  A    between atoms: C_9  and  C_11
REMARK    6  A    between atoms: C_11  and  O_12
REMARK    7  A    between atoms: O_12  and  C_13
REMARK    8  A    between atoms: C_13  and  C_15
REMARK    9  A    between atoms: C_15  and  C_16
REMARK   10  A    between atoms: C_15  and  N_21
REMARK   11  A    between atoms: C_16  and  C_17
REMARK   12  A    between atoms: C_17  and  C_18
REMARK   13  A    between atoms: C_22  and  C_24
REMARK                            x       y       z     vdW  Elec       q    Type
REMARK                         _______ _______ _______ _____ _____    ______ ____
ROOT
ATOM      1  C   UNL     1       4.805   6.261  17.202  0.00  0.00    +0.000 C 
ENDROOT
BRANCH   1   2
ATOM      2  N   UNL     1       3.912   7.291  17.758  0.00  0.00    +0.000 N 
ATOM      3  C   UNL     1       2.744   6.926  18.406  0.00  0.00    +0.000 C 
ATOM      4  O   UNL     1       2.347   5.768  18.457  0.00  0.00    +0.000 OA
ATOM      5  H   UNL     1       4.269   8.229  17.864  0.00  0.00    +0.000 HD
BRANCH   3   6
ATOM      6  C   UNL     1       1.949   8.018  19.036  0.00  0.00    +0.000 A 
ATOM      7  C   UNL     1       1.561   9.098  18.227  0.00  0.00    +0.000 A 
ATOM      8  C   UNL     1       0.899  10.193  18.787  0.00  0.00    +0.000 A 
ATOM      9  C   UNL     1       0.606  10.195  20.145  0.00  0.00    +0.000 A 
ATOM     10  F   UNL     1       0.002  11.258  20.690  0.00  0.00    +0.000 F 
ATOM     11  C   UNL     1       0.935   9.109  20.949  0.00  0.00    +0.000 A 
ATOM     12  C   UNL     1       1.602   8.011  20.396  0.00  0.00    +0.000 A 
ENDBRANCH   3   6
ENDBRANCH   1   2
BRANCH   1  13
ATOM     13  C   UNL     1       6.045   6.063  18.095  0.00  0.00    +0.000 C 
ATOM     14  O   UNL     1       6.028   5.542  19.202  0.00  0.00    +0.000 OA
BRANCH  13  15
ATOM     15  O   UNL     1       7.166   6.564  17.507  0.00  0.00    +0.000 OA
BRANCH  15  16
ATOM     16  C   UNL     1       8.130   7.081  18.415  0.00  0.00    +0.000 C 
BRANCH  16  18
ATOM     17  N   UNL     1       9.165   9.122  19.268  0.00  0.00    +0.000 N 
ATOM     18  C   UNL     1       8.261   8.592  18.362  0.00  0.00    +0.000 C 
ATOM     19  O   UNL     1       7.594   9.219  17.543  0.00  0.00    +0.000 OA
ATOM     20  H   UNL     1       9.634   8.457  19.868  0.00  0.00    +0.000 HD
BRANCH  17  24
ATOM     21  C   UNL     1      10.175  13.214  19.724  0.00  0.00    +0.000 A 
ATOM     22  C   UNL     1       9.670  12.491  20.807  0.00  0.00    +0.000 A 
ATOM     23  C   UNL     1       9.322  11.147  20.674  0.00  0.00    +0.000 A 
ATOM     24  C   UNL     1       9.470  10.485  19.447  0.00  0.00    +0.000 A 
ATOM     25  C   UNL     1       9.959  11.205  18.356  0.00  0.00    +0.000 A 
ATOM     26  C   UNL     1      10.311  12.553  18.494  0.00  0.00    +0.000 A 
BRANCH  21  28
ATOM     27  C   UNL     1      10.383  15.048  21.381  0.00  0.00    +0.000 C 
ATOM     28  C   UNL     1      10.659  14.636  19.932  0.00  0.00    +0.000 C 
ATOM     29  C   UNL     1      12.140  14.843  19.594  0.00  0.00    +0.000 C 
ENDBRANCH  21  28
ENDBRANCH  17  24
ENDBRANCH  16  18
ENDBRANCH  15  16
ENDBRANCH  13  15
ENDBRANCH   1  13
BRANCH   1  30
ATOM     30  C   UNL     1       5.187   6.605  15.753  0.00  0.00    +0.000 C 
BRANCH  30  31
ATOM     31  C   UNL     1       5.221   5.384  14.826  0.00  0.00    +0.000 C 
BRANCH  31  32
ATOM     32  C   UNL     1       6.484   4.564  14.964  0.00  0.00    +0.000 C 
ATOM     33  N   UNL     1       7.632   5.268  14.735  0.00  0.00    +0.000 N 
ATOM     34  O   UNL     1       6.512   3.372  15.230  0.00  0.00    +0.000 OA
ATOM     35  H   UNL     1       7.644   6.241  14.454  0.00  0.00    +0.000 HD
ATOM     36  H   UNL     1       8.511   4.767  14.773  0.00  0.00    +0.000 HD
ENDBRANCH  31  32
ENDBRANCH  30  31
ENDBRANCH   1  30
TORSDOF 11
ENDMDL
MODEL 7
REMARK VINA RESULT:      -7.4      4.514      7.542
REMARK  Name = 
REMARK  13 active torsions:
REMARK  status: ('A' for Active; 'I' for Inactive)
REMARK    1  A    between atoms: C_1  and  C_2
REMARK    2  A    between atoms: C_2  and  C_3
REMARK    3  A    between atoms: C_2  and  C_4
REMARK    4  A    between atoms: C_7  and  N_8
REMARK    5  A    between atoms: C_9  and  C_11
REMARK    6  A    between atoms: C_11  and  O_12
REMARK    7  A    between atoms: O_12  and  C_13
REMARK    8  A    between atoms: C_13  and  C_15
REMARK    9  A    between atoms: C_15  and  C_16
REMARK   10  A    between atoms: C_15  and  N_21
REMARK   11  A    between atoms: C_16  and  C_17
REMARK   12  A    between atoms: C_17  and  C_18
REMARK   13  A    between atoms: C_22  and  C_24
REMARK                            x       y       z     vdW  Elec       q    Type
REMARK                         _______ _______ _______ _____ _____    ______ ____
ROOT
ATOM      1  C   UNL     1       5.280   5.645  17.498  0.00  0.00    +0.000 C 
ENDROOT
BRANCH   1   2
ATOM      2  N   UNL     1       4.295   6.722  17.690  0.00  0.00    +0.000 N 
ATOM      3  C   UNL     1       3.296   6.593  18.641  0.00  0.00    +0.000 C 
ATOM      4  O   UNL     1       3.116   5.562  19.280  0.00  0.00    +0.000 OA
ATOM      5  H   UNL     1       4.492   7.630  17.295  0.00  0.00    +0.000 HD
BRANCH   3   6
ATOM      6  C   UNL     1       2.405   7.769  18.851  0.00  0.00    +0.000 A 
ATOM      7  C   UNL     1       1.839   7.944  20.124  0.00  0.00    +0.000 A 
ATOM      8  C   UNL     1       0.922   8.973  20.350  0.00  0.00    +0.000 A 
ATOM      9  C   UNL     1       0.592   9.836  19.312  0.00  0.00    +0.000 A 
ATOM     10  F   UNL     1      -0.312  10.802  19.516  0.00  0.00    +0.000 F 
ATOM     11  C   UNL     1       1.185   9.708  18.060  0.00  0.00    +0.000 A 
ATOM     12  C   UNL     1       2.100   8.678  17.826  0.00  0.00    +0.000 A 
ENDBRANCH   3   6
ENDBRANCH   1   2
BRANCH   1  13
ATOM     13  C   UNL     1       6.634   6.211  17.028  0.00  0.00    +0.000 C 
ATOM     14  O   UNL     1       7.461   5.585  16.378  0.00  0.00    +0.000 OA
BRANCH  13  15
ATOM     15  O   UNL     1       6.809   7.494  17.448  0.00  0.00    +0.000 OA
BRANCH  15  16
ATOM     16  C   UNL     1       8.068   7.751  18.056  0.00  0.00    +0.000 C 
BRANCH  16  18
ATOM     17  N   UNL     1       9.299   9.503  19.232  0.00  0.00    +0.000 N 
ATOM     18  C   UNL     1       8.350   9.228  18.261  0.00  0.00    +0.000 C 
ATOM     19  O   UNL     1       7.752  10.050  17.570  0.00  0.00    +0.000 OA
ATOM     20  H   UNL     1       9.696   8.702  19.703  0.00  0.00    +0.000 HD
BRANCH  17  24
ATOM     21  C   UNL     1      10.506  13.370  20.480  0.00  0.00    +0.000 A 
ATOM     22  C   UNL     1      11.163  12.737  19.424  0.00  0.00    +0.000 A 
ATOM     23  C   UNL     1      10.788  11.461  19.005  0.00  0.00    +0.000 A 
ATOM     24  C   UNL     1       9.738  10.778  19.636  0.00  0.00    +0.000 A 
ATOM     25  C   UNL     1       9.087  11.397  20.704  0.00  0.00    +0.000 A 
ATOM     26  C   UNL     1       9.465  12.681  21.118  0.00  0.00    +0.000 A 
BRANCH  21  28
ATOM     27  C   UNL     1      10.368  15.722  19.705  0.00  0.00    +0.000 C 
ATOM     28  C   UNL     1      10.855  14.804  20.830  0.00  0.00    +0.000 C 
ATOM     29  C   UNL     1      10.290  15.269  22.177  0.00  0.00    +0.000 C 
ENDBRANCH  21  28
ENDBRANCH  17  24
ENDBRANCH  16  18
ENDBRANCH  15  16
ENDBRANCH  13  15
ENDBRANCH   1  13
BRANCH   1  30
ATOM     30  C   UNL     1       4.733   4.581  16.533  0.00  0.00    +0.000 C 
BRANCH  30  31
ATOM     31  C   UNL     1       4.836   3.152  17.080  0.00  0.00    +0.000 C 
BRANCH  31  32
ATOM     32  C   UNL     1       3.535   2.636  17.654  0.00  0.00    +0.000 C 
ATOM     33  N   UNL     1       2.436   3.353  17.272  0.00  0.00    +0.000 N 
ATOM     34  O   UNL     1       3.441   1.683  18.412  0.00  0.00    +0.000 OA
ATOM     35  H   UNL     1       2.483   4.182  16.694  0.00  0.00    +0.000 HD
ATOM     36  H   UNL     1       1.538   3.082  17.653  0.00  0.00    +0.000 HD
ENDBRANCH  31  32
ENDBRANCH  30  31
ENDBRANCH   1  30
TORSDOF 11
ENDMDL
MODEL 8
REMARK VINA RESULT:      -7.3      3.059      8.783
REMARK  Name = 
REMARK  13 active torsions:
REMARK  status: ('A' for Active; 'I' for Inactive)
REMARK    1  A    between atoms: C_1  and  C_2
REMARK    2  A    between atoms: C_2  and  C_3
REMARK    3  A    between atoms: C_2  and  C_4
REMARK    4  A    between atoms: C_7  and  N_8
REMARK    5  A    between atoms: C_9  and  C_11
REMARK    6  A    between atoms: C_11  and  O_12
REMARK    7  A    between atoms: O_12  and  C_13
REMARK    8  A    between atoms: C_13  and  C_15
REMARK    9  A    between atoms: C_15  and  C_16
REMARK   10  A    between atoms: C_15  and  N_21
REMARK   11  A    between atoms: C_16  and  C_17
REMARK   12  A    between atoms: C_17  and  C_18
REMARK   13  A    between atoms: C_22  and  C_24
REMARK                            x       y       z     vdW  Elec       q    Type
REMARK                         _______ _______ _______ _____ _____    ______ ____
ROOT
ATOM      1  C   UNL     1       4.612   3.801  18.389  0.00  0.00    +0.000 C 
ENDROOT
BRANCH   1   2
ATOM      2  N   UNL     1       5.156   3.677  17.027  0.00  0.00    +0.000 N 
ATOM      3  C   UNL     1       5.136   4.761  16.165  0.00  0.00    +0.000 C 
ATOM      4  O   UNL     1       4.584   5.819  16.442  0.00  0.00    +0.000 OA
ATOM      5  H   UNL     1       5.741   2.882  16.814  0.00  0.00    +0.000 HD
BRANCH   3   6
ATOM      6  C   UNL     1       5.803   4.589  14.844  0.00  0.00    +0.000 A 
ATOM      7  C   UNL     1       5.161   3.791  13.883  0.00  0.00    +0.000 A 
ATOM      8  C   UNL     1       5.786   3.518  12.664  0.00  0.00    +0.000 A 
ATOM      9  C   UNL     1       7.038   4.060  12.400  0.00  0.00    +0.000 A 
ATOM     10  F   UNL     1       7.654   3.772  11.247  0.00  0.00    +0.000 F 
ATOM     11  C   UNL     1       7.663   4.896  13.320  0.00  0.00    +0.000 A 
ATOM     12  C   UNL     1       7.044   5.170  14.543  0.00  0.00    +0.000 A 
ENDBRANCH   3   6
ENDBRANCH   1   2
BRANCH   1  13
ATOM     13  C   UNL     1       5.439   4.794  19.227  0.00  0.00    +0.000 C 
ATOM     14  O   UNL     1       6.647   4.715  19.407  0.00  0.00    +0.000 OA
BRANCH  13  15
ATOM     15  O   UNL     1       4.652   5.765  19.768  0.00  0.00    +0.000 OA
BRANCH  15  16
ATOM     16  C   UNL     1       3.256   5.560  19.595  0.00  0.00    +0.000 C 
BRANCH  16  18
ATOM     17  N   UNL     1       1.989   7.300  20.751  0.00  0.00    +0.000 N 
ATOM     18  C   UNL     1       2.460   6.850  19.528  0.00  0.00    +0.000 C 
ATOM     19  O   UNL     1       2.303   7.397  18.439  0.00  0.00    +0.000 OA
ATOM     20  H   UNL     1       2.216   6.725  21.551  0.00  0.00    +0.000 HD
BRANCH  17  24
ATOM     21  C   UNL     1      -0.274  10.832  21.355  0.00  0.00    +0.000 A 
ATOM     22  C   UNL     1      -0.109   9.918  22.397  0.00  0.00    +0.000 A 
ATOM     23  C   UNL     1       0.623   8.745  22.215  0.00  0.00    +0.000 A 
ATOM     24  C   UNL     1       1.214   8.452  20.977  0.00  0.00    +0.000 A 
ATOM     25  C   UNL     1       1.039   9.353  19.926  0.00  0.00    +0.000 A 
ATOM     26  C   UNL     1       0.307  10.532  20.115  0.00  0.00    +0.000 A 
BRANCH  21  28
ATOM     27  C   UNL     1      -1.695  12.072  22.966  0.00  0.00    +0.000 C 
ATOM     28  C   UNL     1      -0.970  12.154  21.619  0.00  0.00    +0.000 C 
ATOM     29  C   UNL     1      -0.030  13.365  21.595  0.00  0.00    +0.000 C 
ENDBRANCH  21  28
ENDBRANCH  17  24
ENDBRANCH  16  18
ENDBRANCH  15  16
ENDBRANCH  13  15
ENDBRANCH   1  13
BRANCH   1  30
ATOM     30  C   UNL     1       4.516   2.421  19.058  0.00  0.00    +0.000 C 
BRANCH  30  31
ATOM     31  C   UNL     1       3.380   1.552  18.502  0.00  0.00    +0.000 C 
BRANCH  31  32
ATOM     32  C   UNL     1       2.175   2.353  18.064  0.00  0.00    +0.000 C 
ATOM     33  N   UNL     1       1.127   2.306  18.939  0.00  0.00    +0.000 N 
ATOM     34  O   UNL     1       2.102   2.979  17.016  0.00  0.00    +0.000 OA
ATOM     35  H   UNL     1       1.131   1.751  19.786  0.00  0.00    +0.000 HD
ATOM     36  H   UNL     1       0.275   2.790  18.685  0.00  0.00    +0.000 HD
ENDBRANCH  31  32
ENDBRANCH  30  31
ENDBRANCH   1  30
TORSDOF 11
ENDMDL
MODEL 9
REMARK VINA RESULT:      -7.3      5.021      8.712
REMARK  Name = 
REMARK  13 active torsions:
REMARK  status: ('A' for Active; 'I' for Inactive)
REMARK    1  A    between atoms: C_1  and  C_2
REMARK    2  A    between atoms: C_2  and  C_3
REMARK    3  A    between atoms: C_2  and  C_4
REMARK    4  A    between atoms: C_7  and  N_8
REMARK    5  A    between atoms: C_9  and  C_11
REMARK    6  A    between atoms: C_11  and  O_12
REMARK    7  A    between atoms: O_12  and  C_13
REMARK    8  A    between atoms: C_13  and  C_15
REMARK    9  A    between atoms: C_15  and  C_16
REMARK   10  A    between atoms: C_15  and  N_21
REMARK   11  A    between atoms: C_16  and  C_17
REMARK   12  A    between atoms: C_17  and  C_18
REMARK   13  A    between atoms: C_22  and  C_24
REMARK                            x       y       z     vdW  Elec       q    Type
REMARK                         _______ _______ _______ _____ _____    ______ ____
ROOT
ATOM      1  C   UNL     1      -1.296  12.371  21.886  0.00  0.00    +0.000 C 
ENDROOT
BRANCH   1   2
ATOM      2  N   UNL     1      -2.047  11.925  20.702  0.00  0.00    +0.000 N 
ATOM      3  C   UNL     1      -1.455  11.946  19.450  0.00  0.00    +0.000 C 
ATOM      4  O   UNL     1      -0.344  12.423  19.249  0.00  0.00    +0.000 OA
ATOM      5  H   UNL     1      -2.896  11.397  20.842  0.00  0.00    +0.000 HD
BRANCH   3   6
ATOM      6  C   UNL     1      -2.240  11.378  18.318  0.00  0.00    +0.000 A 
ATOM      7  C   UNL     1      -1.631  10.392  17.525  0.00  0.00    +0.000 A 
ATOM      8  C   UNL     1      -2.285   9.895  16.396  0.00  0.00    +0.000 A 
ATOM      9  C   UNL     1      -3.553  10.366  16.076  0.00  0.00    +0.000 A 
ATOM     10  F   UNL     1      -4.167   9.916  14.975  0.00  0.00    +0.000 F 
ATOM     11  C   UNL     1      -4.192  11.303  16.882  0.00  0.00    +0.000 A 
ATOM     12  C   UNL     1      -3.541  11.807  18.012  0.00  0.00    +0.000 A 
ENDBRANCH   3   6
ENDBRANCH   1   2
BRANCH   1  13
ATOM     13  C   UNL     1      -0.629  11.179  22.600  0.00  0.00    +0.000 C 
ATOM     14  O   UNL     1      -1.060  10.645  23.612  0.00  0.00    +0.000 OA
BRANCH  13  15
ATOM     15  O   UNL     1       0.522  10.807  21.974  0.00  0.00    +0.000 OA
BRANCH  15  16
ATOM     16  C   UNL     1       0.954   9.485  22.267  0.00  0.00    +0.000 C 
BRANCH  16  18
ATOM     17  N   UNL     1       1.641   7.355  21.287  0.00  0.00    +0.000 N 
ATOM     18  C   UNL     1       1.293   8.672  21.031  0.00  0.00    +0.000 C 
ATOM     19  O   UNL     1       1.226   9.208  19.929  0.00  0.00    +0.000 OA
ATOM     20  H   UNL     1       1.641   7.077  22.259  0.00  0.00    +0.000 HD
BRANCH  17  24
ATOM     21  C   UNL     1       2.732   4.519  18.332  0.00  0.00    +0.000 A 
ATOM     22  C   UNL     1       2.262   4.091  19.575  0.00  0.00    +0.000 A 
ATOM     23  C   UNL     1       1.908   5.009  20.564  0.00  0.00    +0.000 A 
ATOM     24  C   UNL     1       2.016   6.388  20.335  0.00  0.00    +0.000 A 
ATOM     25  C   UNL     1       2.501   6.823  19.101  0.00  0.00    +0.000 A 
ATOM     26  C   UNL     1       2.851   5.898  18.109  0.00  0.00    +0.000 A 
BRANCH  21  28
ATOM     27  C   UNL     1       4.461   3.586  16.819  0.00  0.00    +0.000 C 
ATOM     28  C   UNL     1       2.990   3.502  17.237  0.00  0.00    +0.000 C 
ATOM     29  C   UNL     1       2.631   2.064  17.628  0.00  0.00    +0.000 C 
ENDBRANCH  21  28
ENDBRANCH  17  24
ENDBRANCH  16  18
ENDBRANCH  15  16
ENDBRANCH  13  15
ENDBRANCH   1  13
BRANCH   1  30
ATOM     30  C   UNL     1      -2.206  13.173  22.830  0.00  0.00    +0.000 C 
BRANCH  30  31
ATOM     31  C   UNL     1      -3.624  12.599  22.941  0.00  0.00    +0.000 C 
BRANCH  31  32
ATOM     32  C   UNL     1      -4.391  13.127  24.132  0.00  0.00    +0.000 C 
ATOM     33  N   UNL     1      -4.918  12.152  24.931  0.00  0.00    +0.000 N 
ATOM     34  O   UNL     1      -4.564  14.312  24.376  0.00  0.00    +0.000 OA
ATOM     35  H   UNL     1      -4.845  11.164  24.728  0.00  0.00    +0.000 HD
ATOM     36  H   UNL     1      -5.476  12.441  25.725  0.00  0.00    +0.000 HD
ENDBRANCH  31  32
ENDBRANCH  30  31
ENDBRANCH   1  30
TORSDOF 11
ENDMDL
