MODEL 1
REMARK VINA RESULT:      -6.3      0.000      0.000
REMARK  Name = 
REMARK  9 active torsions:
REMARK  status: ('A' for Active; 'I' for Inactive)
REMARK    1  A    between atoms: C_1  and  C_2
REMARK    2  A    between atoms: C_7  and  C_8
REMARK    3  A    between atoms: C_10  and  O_11
REMARK    4  A    between atoms: C_12  and  C_13
REMARK    5  A    between atoms: C_13  and  C_14
REMARK    6  A    between atoms: C_13  and  C_15
REMARK    7  A    between atoms: C_13  and  O_16
REMARK    8  A    between atoms: C_18  and  O_19
REMARK    9  A    between atoms: O_19  and  O_20
REMARK                            x       y       z     vdW  Elec       q    Type
REMARK                         _______ _______ _______ _____ _____    ______ ____
ROOT
ATOM      1  C   UNL     1       1.904   6.740  20.196  0.00  0.00    +0.000 C 
ATOM      2  C   UNL     1       2.186   5.257  20.201  0.00  0.00    +0.000 C 
ATOM      3  C   UNL     1       1.910   4.557  21.326  0.00  0.00    +0.000 C 
ATOM      4  C   UNL     1       2.191   3.101  21.421  0.00  0.00    +0.000 C 
ATOM      5  O   UNL     1       1.726   2.484  22.391  0.00  0.00    +0.000 OA
ATOM      6  C   UNL     1       3.034   2.404  20.369  0.00  0.00    +0.000 C 
ATOM      7  C   UNL     1       2.746   3.034  18.983  0.00  0.00    +0.000 C 
ATOM      8  C   UNL     1       1.292   2.528  18.642  0.00  0.00    +0.000 C 
ATOM      9  C   UNL     1       3.622   2.402  17.862  0.00  0.00    +0.000 C 
ATOM     10  C   UNL     1       3.618   3.244  16.569  0.00  0.00    +0.000 C 
ATOM     11  C   UNL     1       4.223   4.637  16.782  0.00  0.00    +0.000 C 
ATOM     12  C   UNL     1       3.310   5.374  17.814  0.00  0.00    +0.000 C 
ATOM     13  C   UNL     1       3.088   4.612  19.154  0.00  0.00    +0.000 C 
ENDROOT
BRANCH  11  14
ATOM     14  C   UNL     1       5.784   4.599  17.060  0.00  0.00    +0.000 C 
ATOM     15  C   UNL     1       6.551   3.923  15.913  0.00  0.00    +0.000 C 
ATOM     16  C   UNL     1       6.377   5.997  17.281  0.00  0.00    +0.000 C 
BRANCH  14  17
ATOM     17  O   UNL     1       6.098   3.810  18.200  0.00  0.00    +0.000 OA
ATOM     18  H   UNL     1       5.654   4.152  18.986  0.00  0.00    +0.000 HD
ENDBRANCH  14  17
ENDBRANCH  11  14
BRANCH  10  19
ATOM     19  O   UNL     1       2.300   3.387  16.003  0.00  0.00    +0.000 OA
ATOM     20  H   UNL     1       2.124   2.662  15.367  0.00  0.00    +0.000 HD
ENDBRANCH  10  19
BRANCH  13  21
ATOM     21  O   UNL     1       4.386   4.675  19.842  0.00  0.00    +0.000 OA
BRANCH  21  22
ATOM     22  O   UNL     1       4.835   6.071  19.900  0.00  0.00    +0.000 OA
ATOM     23  H   UNL     1       4.157   6.426  19.294  0.00  0.00    +0.000 HD
ENDBRANCH  21  22
ENDBRANCH  13  21
TORSDOF 5
ENDMDL
MODEL 2
REMARK VINA RESULT:      -6.3      1.797      5.069
REMARK  Name = 
REMARK  9 active torsions:
REMARK  status: ('A' for Active; 'I' for Inactive)
REMARK    1  A    between atoms: C_1  and  C_2
REMARK    2  A    between atoms: C_7  and  C_8
REMARK    3  A    between atoms: C_10  and  O_11
REMARK    4  A    between atoms: C_12  and  C_13
REMARK    5  A    between atoms: C_13  and  C_14
REMARK    6  A    between atoms: C_13  and  C_15
REMARK    7  A    between atoms: C_13  and  O_16
REMARK    8  A    between atoms: C_18  and  O_19
REMARK    9  A    between atoms: O_19  and  O_20
REMARK                            x       y       z     vdW  Elec       q    Type
REMARK                         _______ _______ _______ _____ _____    ______ ____
ROOT
ATOM      1  C   UNL     1       5.312   3.476  15.198  0.00  0.00    +0.000 C 
ATOM      2  C   UNL     1       5.582   4.210  16.488  0.00  0.00    +0.000 C 
ATOM      3  C   UNL     1       6.870   4.406  16.856  0.00  0.00    +0.000 C 
ATOM      4  C   UNL     1       7.216   5.089  18.129  0.00  0.00    +0.000 C 
ATOM      5  O   UNL     1       8.398   5.421  18.305  0.00  0.00    +0.000 OA
ATOM      6  C   UNL     1       6.155   5.355  19.181  0.00  0.00    +0.000 C 
ATOM      7  C   UNL     1       4.812   5.687  18.481  0.00  0.00    +0.000 C 
ATOM      8  C   UNL     1       5.056   7.121  17.876  0.00  0.00    +0.000 C 
ATOM      9  C   UNL     1       3.662   5.914  19.504  0.00  0.00    +0.000 C 
ATOM     10  C   UNL     1       2.270   5.885  18.838  0.00  0.00    +0.000 C 
ATOM     11  C   UNL     1       1.955   4.520  18.213  0.00  0.00    +0.000 C 
ATOM     12  C   UNL     1       3.009   4.285  17.085  0.00  0.00    +0.000 C 
ATOM     13  C   UNL     1       4.494   4.401  17.540  0.00  0.00    +0.000 C 
ENDROOT
BRANCH  11  14
ATOM     14  C   UNL     1       1.749   3.376  19.292  0.00  0.00    +0.000 C 
ATOM     15  C   UNL     1       0.845   3.837  20.446  0.00  0.00    +0.000 C 
ATOM     16  C   UNL     1       1.151   2.098  18.689  0.00  0.00    +0.000 C 
BRANCH  14  17
ATOM     17  O   UNL     1       2.971   3.024  19.928  0.00  0.00    +0.000 OA
ATOM     18  H   UNL     1       2.845   2.922  20.879  0.00  0.00    +0.000 HD
ENDBRANCH  14  17
ENDBRANCH  11  14
BRANCH  10  19
ATOM     19  O   UNL     1       2.111   6.908  17.836  0.00  0.00    +0.000 OA
ATOM     20  H   UNL     1       1.851   6.506  16.980  0.00  0.00    +0.000 HD
ENDBRANCH  10  19
BRANCH  13  21
ATOM     21  O   UNL     1       4.723   3.216  18.380  0.00  0.00    +0.000 OA
BRANCH  21  22
ATOM     22  O   UNL     1       4.367   2.010  17.622  0.00  0.00    +0.000 OA
ATOM     23  H   UNL     1       3.715   1.670  18.263  0.00  0.00    +0.000 HD
ENDBRANCH  21  22
ENDBRANCH  13  21
TORSDOF 5
ENDMDL
MODEL 3
REMARK VINA RESULT:      -6.0      1.876      4.793
REMARK  Name = 
REMARK  9 active torsions:
REMARK  status: ('A' for Active; 'I' for Inactive)
REMARK    1  A    between atoms: C_1  and  C_2
REMARK    2  A    between atoms: C_7  and  C_8
REMARK    3  A    between atoms: C_10  and  O_11
REMARK    4  A    between atoms: C_12  and  C_13
REMARK    5  A    between atoms: C_13  and  C_14
REMARK    6  A    between atoms: C_13  and  C_15
REMARK    7  A    between atoms: C_13  and  O_16
REMARK    8  A    between atoms: C_18  and  O_19
REMARK    9  A    between atoms: O_19  and  O_20
REMARK                            x       y       z     vdW  Elec       q    Type
REMARK                         _______ _______ _______ _____ _____    ______ ____
ROOT
ATOM      1  C   UNL     1       6.841   5.392  19.639  0.00  0.00    +0.000 C 
ATOM      2  C   UNL     1       6.004   5.196  18.399  0.00  0.00    +0.000 C 
ATOM      3  C   UNL     1       6.215   6.021  17.347  0.00  0.00    +0.000 C 
ATOM      4  C   UNL     1       5.408   5.913  16.104  0.00  0.00    +0.000 C 
ATOM      5  O   UNL     1       5.786   6.551  15.111  0.00  0.00    +0.000 OA
ATOM      6  C   UNL     1       4.153   5.059  16.065  0.00  0.00    +0.000 C 
ATOM      7  C   UNL     1       4.363   3.802  16.947  0.00  0.00    +0.000 C 
ATOM      8  C   UNL     1       5.388   2.937  16.119  0.00  0.00    +0.000 C 
ATOM      9  C   UNL     1       3.091   2.908  16.998  0.00  0.00    +0.000 C 
ATOM     10  C   UNL     1       3.150   1.866  18.136  0.00  0.00    +0.000 C 
ATOM     11  C   UNL     1       3.207   2.523  19.521  0.00  0.00    +0.000 C 
ATOM     12  C   UNL     1       4.534   3.344  19.578  0.00  0.00    +0.000 C 
ATOM     13  C   UNL     1       4.719   4.374  18.425  0.00  0.00    +0.000 C 
ENDROOT
BRANCH  11  14
ATOM     14  C   UNL     1       1.857   3.257  19.914  0.00  0.00    +0.000 C 
ATOM     15  C   UNL     1       0.622   2.450  19.483  0.00  0.00    +0.000 C 
ATOM     16  C   UNL     1       1.754   3.534  21.420  0.00  0.00    +0.000 C 
BRANCH  14  17
ATOM     17  O   UNL     1       1.715   4.499  19.235  0.00  0.00    +0.000 OA
ATOM     18  H   UNL     1       1.765   5.236  19.856  0.00  0.00    +0.000 HD
ENDBRANCH  14  17
ENDBRANCH  11  14
BRANCH  10  19
ATOM     19  O   UNL     1       4.262   0.959  18.001  0.00  0.00    +0.000 OA
ATOM     20  H   UNL     1       4.841   1.240  17.261  0.00  0.00    +0.000 HD
ENDBRANCH  10  19
BRANCH  13  21
ATOM     21  O   UNL     1       3.732   5.428  18.701  0.00  0.00    +0.000 OA
BRANCH  21  22
ATOM     22  O   UNL     1       3.901   5.899  20.081  0.00  0.00    +0.000 OA
ATOM     23  H   UNL     1       3.837   5.021  20.501  0.00  0.00    +0.000 HD
ENDBRANCH  21  22
ENDBRANCH  13  21
TORSDOF 5
ENDMDL
MODEL 4
REMARK VINA RESULT:      -5.8      1.779      2.651
REMARK  Name = 
REMARK  9 active torsions:
REMARK  status: ('A' for Active; 'I' for Inactive)
REMARK    1  A    between atoms: C_1  and  C_2
REMARK    2  A    between atoms: C_7  and  C_8
REMARK    3  A    between atoms: C_10  and  O_11
REMARK    4  A    between atoms: C_12  and  C_13
REMARK    5  A    between atoms: C_13  and  C_14
REMARK    6  A    between atoms: C_13  and  C_15
REMARK    7  A    between atoms: C_13  and  O_16
REMARK    8  A    between atoms: C_18  and  O_19
REMARK    9  A    between atoms: O_19  and  O_20
REMARK                            x       y       z     vdW  Elec       q    Type
REMARK                         _______ _______ _______ _____ _____    ______ ____
ROOT
ATOM      1  C   UNL     1       2.489   4.003  21.812  0.00  0.00    +0.000 C 
ATOM      2  C   UNL     1       2.340   3.719  20.338  0.00  0.00    +0.000 C 
ATOM      3  C   UNL     1       1.491   2.735  19.958  0.00  0.00    +0.000 C 
ATOM      4  C   UNL     1       1.316   2.373  18.528  0.00  0.00    +0.000 C 
ATOM      5  O   UNL     1       0.379   1.616  18.233  0.00  0.00    +0.000 OA
ATOM      6  C   UNL     1       2.266   2.904  17.471  0.00  0.00    +0.000 C 
ATOM      7  C   UNL     1       2.690   4.348  17.843  0.00  0.00    +0.000 C 
ATOM      8  C   UNL     1       1.386   5.194  17.582  0.00  0.00    +0.000 C 
ATOM      9  C   UNL     1       3.713   4.935  16.828  0.00  0.00    +0.000 C 
ATOM     10  C   UNL     1       4.412   6.202  17.365  0.00  0.00    +0.000 C 
ATOM     11  C   UNL     1       5.246   5.916  18.620  0.00  0.00    +0.000 C 
ATOM     12  C   UNL     1       4.251   5.436  19.724  0.00  0.00    +0.000 C 
ATOM     13  C   UNL     1       3.355   4.228  19.320  0.00  0.00    +0.000 C 
ENDROOT
BRANCH  11  14
ATOM     14  C   UNL     1       6.523   5.022  18.325  0.00  0.00    +0.000 C 
ATOM     15  C   UNL     1       6.889   5.027  16.832  0.00  0.00    +0.000 C 
ATOM     16  C   UNL     1       7.752   5.469  19.128  0.00  0.00    +0.000 C 
BRANCH  14  17
ATOM     17  O   UNL     1       6.287   3.652  18.621  0.00  0.00    +0.000 OA
ATOM     18  H   UNL     1       6.929   3.089  18.171  0.00  0.00    +0.000 HD
ENDBRANCH  14  17
ENDBRANCH  11  14
BRANCH  10  19
ATOM     19  O   UNL     1       3.485   7.269  17.650  0.00  0.00    +0.000 OA
ATOM     20  H   UNL     1       3.965   8.048  18.001  0.00  0.00    +0.000 HD
ENDBRANCH  10  19
BRANCH  13  21
ATOM     21  O   UNL     1       4.273   3.082  19.260  0.00  0.00    +0.000 OA
BRANCH  21  22
ATOM     22  O   UNL     1       4.716   2.746  20.619  0.00  0.00    +0.000 OA
ATOM     23  H   UNL     1       4.429   3.581  21.034  0.00  0.00    +0.000 HD
ENDBRANCH  21  22
ENDBRANCH  13  21
TORSDOF 5
ENDMDL
MODEL 5
REMARK VINA RESULT:      -5.8      1.922      5.228
REMARK  Name = 
REMARK  9 active torsions:
REMARK  status: ('A' for Active; 'I' for Inactive)
REMARK    1  A    between atoms: C_1  and  C_2
REMARK    2  A    between atoms: C_7  and  C_8
REMARK    3  A    between atoms: C_10  and  O_11
REMARK    4  A    between atoms: C_12  and  C_13
REMARK    5  A    between atoms: C_13  and  C_14
REMARK    6  A    between atoms: C_13  and  C_15
REMARK    7  A    between atoms: C_13  and  O_16
REMARK    8  A    between atoms: C_18  and  O_19
REMARK    9  A    between atoms: O_19  and  O_20
REMARK                            x       y       z     vdW  Elec       q    Type
REMARK                         _______ _______ _______ _____ _____    ______ ____
ROOT
ATOM      1  C   UNL     1       5.166   4.413  14.255  0.00  0.00    +0.000 C 
ATOM      2  C   UNL     1       5.501   5.153  15.526  0.00  0.00    +0.000 C 
ATOM      3  C   UNL     1       6.628   5.902  15.553  0.00  0.00    +0.000 C 
ATOM      4  C   UNL     1       7.043   6.633  16.778  0.00  0.00    +0.000 C 
ATOM      5  O   UNL     1       7.962   7.459  16.676  0.00  0.00    +0.000 OA
ATOM      6  C   UNL     1       6.370   6.359  18.111  0.00  0.00    +0.000 C 
ATOM      7  C   UNL     1       4.867   6.066  17.873  0.00  0.00    +0.000 C 
ATOM      8  C   UNL     1       4.274   7.471  17.476  0.00  0.00    +0.000 C 
ATOM      9  C   UNL     1       4.125   5.719  19.196  0.00  0.00    +0.000 C 
ATOM     10  C   UNL     1       2.743   5.079  18.944  0.00  0.00    +0.000 C 
ATOM     11  C   UNL     1       2.849   3.738  18.208  0.00  0.00    +0.000 C 
ATOM     12  C   UNL     1       3.480   4.038  16.811  0.00  0.00    +0.000 C 
ATOM     13  C   UNL     1       4.837   4.802  16.853  0.00  0.00    +0.000 C 
ENDROOT
BRANCH  11  14
ATOM     14  C   UNL     1       3.505   2.596  19.093  0.00  0.00    +0.000 C 
ATOM     15  C   UNL     1       2.803   2.456  20.453  0.00  0.00    +0.000 C 
ATOM     16  C   UNL     1       3.489   1.229  18.396  0.00  0.00    +0.000 C 
BRANCH  14  17
ATOM     17  O   UNL     1       4.853   2.896  19.427  0.00  0.00    +0.000 OA
ATOM     18  H   UNL     1       5.127   2.410  20.215  0.00  0.00    +0.000 HD
ENDBRANCH  14  17
ENDBRANCH  11  14
BRANCH  10  19
ATOM     19  O   UNL     1       1.854   5.947  18.211  0.00  0.00    +0.000 OA
ATOM     20  H   UNL     1       0.956   5.556  18.173  0.00  0.00    +0.000 HD
ENDBRANCH  10  19
BRANCH  13  21
ATOM     21  O   UNL     1       5.800   3.827  17.385  0.00  0.00    +0.000 OA
BRANCH  21  22
ATOM     22  O   UNL     1       5.842   2.656  16.500  0.00  0.00    +0.000 OA
ATOM     23  H   UNL     1       5.312   3.048  15.781  0.00  0.00    +0.000 HD
ENDBRANCH  21  22
ENDBRANCH  13  21
TORSDOF 5
ENDMDL
MODEL 6
REMARK VINA RESULT:      -5.5      1.757      3.347
REMARK  Name = 
REMARK  9 active torsions:
REMARK  status: ('A' for Active; 'I' for Inactive)
REMARK    1  A    between atoms: C_1  and  C_2
REMARK    2  A    between atoms: C_7  and  C_8
REMARK    3  A    between atoms: C_10  and  O_11
REMARK    4  A    between atoms: C_12  and  C_13
REMARK    5  A    between atoms: C_13  and  C_14
REMARK    6  A    between atoms: C_13  and  C_15
REMARK    7  A    between atoms: C_13  and  O_16
REMARK    8  A    between atoms: C_18  and  O_19
REMARK    9  A    between atoms: O_19  and  O_20
REMARK                            x       y       z     vdW  Elec       q    Type
REMARK                         _______ _______ _______ _____ _____    ______ ____
ROOT
ATOM      1  C   UNL     1       4.758   1.924  20.423  0.00  0.00    +0.000 C 
ATOM      2  C   UNL     1       3.835   2.919  19.763  0.00  0.00    +0.000 C 
ATOM      3  C   UNL     1       2.510   2.835  20.028  0.00  0.00    +0.000 C 
ATOM      4  C   UNL     1       1.533   3.756  19.390  0.00  0.00    +0.000 C 
ATOM      5  O   UNL     1       0.374   3.765  19.830  0.00  0.00    +0.000 OA
ATOM      6  C   UNL     1       1.946   4.642  18.229  0.00  0.00    +0.000 C 
ATOM      7  C   UNL     1       3.408   5.111  18.439  0.00  0.00    +0.000 C 
ATOM      8  C   UNL     1       3.300   6.139  19.628  0.00  0.00    +0.000 C 
ATOM      9  C   UNL     1       3.917   5.980  17.252  0.00  0.00    +0.000 C 
ATOM     10  C   UNL     1       5.451   6.149  17.263  0.00  0.00    +0.000 C 
ATOM     11  C   UNL     1       6.183   4.812  17.094  0.00  0.00    +0.000 C 
ATOM     12  C   UNL     1       5.808   3.931  18.328  0.00  0.00    +0.000 C 
ATOM     13  C   UNL     1       4.279   3.745  18.561  0.00  0.00    +0.000 C 
ENDROOT
BRANCH  11  14
ATOM     14  C   UNL     1       6.003   4.185  15.648  0.00  0.00    +0.000 C 
ATOM     15  C   UNL     1       4.691   4.640  14.989  0.00  0.00    +0.000 C 
ATOM     16  C   UNL     1       7.164   4.534  14.707  0.00  0.00    +0.000 C 
BRANCH  14  17
ATOM     17  O   UNL     1       5.895   2.769  15.696  0.00  0.00    +0.000 OA
ATOM     18  H   UNL     1       6.668   2.380  16.123  0.00  0.00    +0.000 HD
ENDBRANCH  14  17
ENDBRANCH  11  14
BRANCH  10  19
ATOM     19  O   UNL     1       5.930   6.797  18.458  0.00  0.00    +0.000 OA
ATOM     20  H   UNL     1       5.265   7.438  18.785  0.00  0.00    +0.000 HD
ENDBRANCH  10  19
BRANCH  13  21
ATOM     21  O   UNL     1       3.834   2.879  17.460  0.00  0.00    +0.000 OA
BRANCH  21  22
ATOM     22  O   UNL     1       4.287   1.505  17.712  0.00  0.00    +0.000 OA
ATOM     23  H   UNL     1       5.059   1.538  17.117  0.00  0.00    +0.000 HD
ENDBRANCH  21  22
ENDBRANCH  13  21
TORSDOF 5
ENDMDL
MODEL 7
REMARK VINA RESULT:      -5.4      1.811      3.306
REMARK  Name = 
REMARK  9 active torsions:
REMARK  status: ('A' for Active; 'I' for Inactive)
REMARK    1  A    between atoms: C_1  and  C_2
REMARK    2  A    between atoms: C_7  and  C_8
REMARK    3  A    between atoms: C_10  and  O_11
REMARK    4  A    between atoms: C_12  and  C_13
REMARK    5  A    between atoms: C_13  and  C_14
REMARK    6  A    between atoms: C_13  and  C_15
REMARK    7  A    between atoms: C_13  and  O_16
REMARK    8  A    between atoms: C_18  and  O_19
REMARK    9  A    between atoms: O_19  and  O_20
REMARK                            x       y       z     vdW  Elec       q    Type
REMARK                         _______ _______ _______ _____ _____    ______ ____
ROOT
ATOM      1  C   UNL     1       4.544   1.865  20.274  0.00  0.00    +0.000 C 
ATOM      2  C   UNL     1       3.371   2.526  19.593  0.00  0.00    +0.000 C 
ATOM      3  C   UNL     1       2.234   1.807  19.437  0.00  0.00    +0.000 C 
ATOM      4  C   UNL     1       1.048   2.376  18.747  0.00  0.00    +0.000 C 
ATOM      5  O   UNL     1      -0.020   1.750  18.821  0.00  0.00    +0.000 OA
ATOM      6  C   UNL     1       1.151   3.673  17.966  0.00  0.00    +0.000 C 
ATOM      7  C   UNL     1       2.141   4.625  18.684  0.00  0.00    +0.000 C 
ATOM      8  C   UNL     1       1.355   5.069  19.976  0.00  0.00    +0.000 C 
ATOM      9  C   UNL     1       2.340   5.956  17.904  0.00  0.00    +0.000 C 
ATOM     10  C   UNL     1       3.570   6.747  18.396  0.00  0.00    +0.000 C 
ATOM     11  C   UNL     1       4.880   5.981  18.176  0.00  0.00    +0.000 C 
ATOM     12  C   UNL     1       4.794   4.681  19.037  0.00  0.00    +0.000 C 
ATOM     13  C   UNL     1       3.538   3.799  18.771  0.00  0.00    +0.000 C 
ENDROOT
BRANCH  11  14
ATOM     14  C   UNL     1       5.263   5.837  16.643  0.00  0.00    +0.000 C 
ATOM     15  C   UNL     1       4.900   7.098  15.844  0.00  0.00    +0.000 C 
ATOM     16  C   UNL     1       6.754   5.543  16.434  0.00  0.00    +0.000 C 
BRANCH  14  17
ATOM     17  O   UNL     1       4.524   4.800  16.010  0.00  0.00    +0.000 OA
ATOM     18  H   UNL     1       3.969   5.156  15.306  0.00  0.00    +0.000 HD
ENDBRANCH  14  17
ENDBRANCH  11  14
BRANCH  10  19
ATOM     19  O   UNL     1       3.472   7.118  19.786  0.00  0.00    +0.000 OA
ATOM     20  H   UNL     1       2.533   7.224  20.043  0.00  0.00    +0.000 HD
ENDBRANCH  10  19
BRANCH  13  21
ATOM     21  O   UNL     1       3.756   3.228  17.434  0.00  0.00    +0.000 OA
BRANCH  21  22
ATOM     22  O   UNL     1       5.054   2.543  17.407  0.00  0.00    +0.000 OA
ATOM     23  H   UNL     1       5.131   2.423  18.372  0.00  0.00    +0.000 HD
ENDBRANCH  21  22
ENDBRANCH  13  21
TORSDOF 5
ENDMDL
MODEL 8
REMARK VINA RESULT:      -5.1      1.841      4.965
REMARK  Name = 
REMARK  9 active torsions:
REMARK  status: ('A' for Active; 'I' for Inactive)
REMARK    1  A    between atoms: C_1  and  C_2
REMARK    2  A    between atoms: C_7  and  C_8
REMARK    3  A    between atoms: C_10  and  O_11
REMARK    4  A    between atoms: C_12  and  C_13
REMARK    5  A    between atoms: C_13  and  C_14
REMARK    6  A    between atoms: C_13  and  C_15
REMARK    7  A    between atoms: C_13  and  O_16
REMARK    8  A    between atoms: C_18  and  O_19
REMARK    9  A    between atoms: O_19  and  O_20
REMARK                            x       y       z     vdW  Elec       q    Type
REMARK                         _______ _______ _______ _____ _____    ______ ____
ROOT
ATOM      1  C   UNL     1       5.215   3.298  15.426  0.00  0.00    +0.000 C 
ATOM      2  C   UNL     1       5.453   4.099  16.683  0.00  0.00    +0.000 C 
ATOM      3  C   UNL     1       6.732   4.333  17.059  0.00  0.00    +0.000 C 
ATOM      4  C   UNL     1       7.048   5.084  18.302  0.00  0.00    +0.000 C 
ATOM      5  O   UNL     1       8.222   5.442  18.479  0.00  0.00    +0.000 OA
ATOM      6  C   UNL     1       5.967   5.385  19.323  0.00  0.00    +0.000 C 
ATOM      7  C   UNL     1       4.631   5.661  18.587  0.00  0.00    +0.000 C 
ATOM      8  C   UNL     1       4.863   7.067  17.915  0.00  0.00    +0.000 C 
ATOM      9  C   UNL     1       3.461   5.921  19.580  0.00  0.00    +0.000 C 
ATOM     10  C   UNL     1       2.081   5.837  18.896  0.00  0.00    +0.000 C 
ATOM     11  C   UNL     1       1.795   4.438  18.335  0.00  0.00    +0.000 C 
ATOM     12  C   UNL     1       2.871   4.164  17.236  0.00  0.00    +0.000 C 
ATOM     13  C   UNL     1       4.347   4.325  17.707  0.00  0.00    +0.000 C 
ENDROOT
BRANCH  11  14
ATOM     14  C   UNL     1       1.589   3.346  19.467  0.00  0.00    +0.000 C 
ATOM     15  C   UNL     1       1.614   1.920  18.894  0.00  0.00    +0.000 C 
ATOM     16  C   UNL     1       2.646   3.442  20.576  0.00  0.00    +0.000 C 
BRANCH  14  17
ATOM     17  O   UNL     1       0.310   3.454  20.077  0.00  0.00    +0.000 OA
ATOM     18  H   UNL     1       0.373   3.904  20.928  0.00  0.00    +0.000 HD
ENDBRANCH  14  17
ENDBRANCH  11  14
BRANCH  10  19
ATOM     19  O   UNL     1       1.923   6.807  17.841  0.00  0.00    +0.000 OA
ATOM     20  H   UNL     1       1.614   6.367  17.021  0.00  0.00    +0.000 HD
ENDBRANCH  10  19
BRANCH  13  21
ATOM     21  O   UNL     1       4.579   3.188  18.609  0.00  0.00    +0.000 OA
BRANCH  21  22
ATOM     22  O   UNL     1       4.351   1.936  17.876  0.00  0.00    +0.000 OA
ATOM     23  H   UNL     1       3.555   2.236  17.399  0.00  0.00    +0.000 HD
ENDBRANCH  21  22
ENDBRANCH  13  21
TORSDOF 5
ENDMDL
MODEL 9
REMARK VINA RESULT:      -5.1      7.756      9.679
REMARK  Name = 
REMARK  9 active torsions:
REMARK  status: ('A' for Active; 'I' for Inactive)
REMARK    1  A    between atoms: C_1  and  C_2
REMARK    2  A    between atoms: C_7  and  C_8
REMARK    3  A    between atoms: C_10  and  O_11
REMARK    4  A    between atoms: C_12  and  C_13
REMARK    5  A    between atoms: C_13  and  C_14
REMARK    6  A    between atoms: C_13  and  C_15
REMARK    7  A    between atoms: C_13  and  O_16
REMARK    8  A    between atoms: C_18  and  O_19
REMARK    9  A    between atoms: O_19  and  O_20
REMARK                            x       y       z     vdW  Elec       q    Type
REMARK                         _______ _______ _______ _____ _____    ______ ____
ROOT
ATOM      1  C   UNL     1      -2.416  13.101  22.871  0.00  0.00    +0.000 C 
ATOM      2  C   UNL     1      -1.417  12.194  22.195  0.00  0.00    +0.000 C 
ATOM      3  C   UNL     1      -1.112  11.019  22.792  0.00  0.00    +0.000 C 
ATOM      4  C   UNL     1      -0.114  10.088  22.206  0.00  0.00    +0.000 C 
ATOM      5  O   UNL     1      -0.035   8.947  22.685  0.00  0.00    +0.000 OA
ATOM      6  C   UNL     1       0.787  10.532  21.068  0.00  0.00    +0.000 C 
ATOM      7  C   UNL     1      -0.000  11.488  20.136  0.00  0.00    +0.000 C 
ATOM      8  C   UNL     1      -1.022  10.535  19.407  0.00  0.00    +0.000 C 
ATOM      9  C   UNL     1       0.884  12.030  18.976  0.00  0.00    +0.000 C 
ATOM     10  C   UNL     1       0.242  13.239  18.264  0.00  0.00    +0.000 C 
ATOM     11  C   UNL     1       0.073  14.441  19.202  0.00  0.00    +0.000 C 
ATOM     12  C   UNL     1      -0.910  13.998  20.332  0.00  0.00    +0.000 C 
ATOM     13  C   UNL     1      -0.494  12.704  21.094  0.00  0.00    +0.000 C 
ENDROOT
BRANCH  11  14
ATOM     14  C   UNL     1       1.454  15.095  19.628  0.00  0.00    +0.000 C 
ATOM     15  C   UNL     1       2.307  15.470  18.406  0.00  0.00    +0.000 C 
ATOM     16  C   UNL     1       1.270  16.348  20.494  0.00  0.00    +0.000 C 
BRANCH  14  17
ATOM     17  O   UNL     1       2.268  14.183  20.353  0.00  0.00    +0.000 OA
ATOM     18  H   UNL     1       2.186  13.291  19.994  0.00  0.00    +0.000 HD
ENDBRANCH  14  17
ENDBRANCH  11  14
BRANCH  10  19
ATOM     19  O   UNL     1      -1.033  12.924  17.671  0.00  0.00    +0.000 OA
ATOM     20  H   UNL     1      -1.400  13.712  17.218  0.00  0.00    +0.000 HD
ENDBRANCH  10  19
BRANCH  13  21
ATOM     21  O   UNL     1       0.679  13.098  21.888  0.00  0.00    +0.000 OA
BRANCH  21  22
ATOM     22  O   UNL     1       0.315  14.215  22.768  0.00  0.00    +0.000 OA
ATOM     23  H   UNL     1      -0.347  14.609  22.169  0.00  0.00    +0.000 HD
ENDBRANCH  21  22
ENDBRANCH  13  21
TORSDOF 5
ENDMDL
