MODEL 1
REMARK VINA RESULT:      -6.8      0.000      0.000
REMARK  Name = 
REMARK  3 active torsions:
REMARK  status: ('A' for Active; 'I' for Inactive)
REMARK    1  A    between atoms: C_1  and  N_2
REMARK    2  A    between atoms: N_5  and  C_6
REMARK    3  A    between atoms: C_12  and  C_13
REMARK                            x       y       z     vdW  Elec       q    Type
REMARK                         _______ _______ _______ _____ _____    ______ ____
ROOT
ATOM      1  C   UNL     1      -6.197  13.770  19.582  0.00  0.00    +0.000 C 
ATOM      2  N   UNL     1      -5.144  12.871  19.203  0.00  0.00    +0.000 N 
ATOM      3  C   UNL     1      -5.150  12.019  18.087  0.00  0.00    +0.000 A 
ATOM      4  O   UNL     1      -6.064  11.889  17.287  0.00  0.00    +0.000 OA
ATOM      5  N   UNL     1      -3.882  11.357  18.086  0.00  0.00    +0.000 N 
ATOM      6  C   UNL     1      -3.142  11.780  19.225  0.00  0.00    +0.000 A 
ATOM      7  C   UNL     1      -1.873  11.436  19.731  0.00  0.00    +0.000 A 
ATOM      8  C   UNL     1      -0.952  10.494  19.184  0.00  0.00    +0.000 A 
ATOM      9  C   UNL     1       0.304  10.227  19.770  0.00  0.00    +0.000 A 
ATOM     10  C   UNL     1       0.615  10.927  20.940  0.00  0.00    +0.000 A 
ATOM     11  C   UNL     1      -0.284  11.843  21.495  0.00  0.00    +0.000 A 
ATOM     12  C   UNL     1      -1.509  12.114  20.919  0.00  0.00    +0.000 A 
ATOM     13  N   UNL     1      -2.284  13.022  21.547  0.00  0.00    +0.000 NA
ATOM     14  C   UNL     1      -3.492  13.318  21.029  0.00  0.00    +0.000 A 
ATOM     15  C   UNL     1      -3.937  12.715  19.886  0.00  0.00    +0.000 A 
ENDROOT
BRANCH   9  16
ATOM     16  C   UNL     1       1.248   9.250  19.192  0.00  0.00    +0.000 A 
ATOM     17  C   UNL     1       1.776   9.347  17.917  0.00  0.00    +0.000 A 
ATOM     18  N   UNL     1       2.620   8.451  17.355  0.00  0.00    +0.000 NA
ATOM     19  C   UNL     1       2.955   7.398  18.103  0.00  0.00    +0.000 A 
ATOM     20  N   UNL     1       3.790   6.455  17.546  0.00  0.00    +0.000 N 
ATOM     21  N   UNL     1       2.559   7.210  19.361  0.00  0.00    +0.000 NA
ATOM     22  C   UNL     1       1.709   8.132  19.869  0.00  0.00    +0.000 A 
ATOM     23  H   UNL     1       4.327   6.863  16.796  0.00  0.00    +0.000 HD
ATOM     24  H   UNL     1       4.290   5.961  18.271  0.00  0.00    +0.000 HD
ENDBRANCH   9  16
BRANCH   5  25
ATOM     25  C   UNL     1      -3.464  10.411  17.105  0.00  0.00    +0.000 C 
ATOM     26  C   UNL     1      -3.828  10.523  15.642  0.00  0.00    +0.000 C 
ATOM     27  C   UNL     1      -2.420  10.786  16.076  0.00  0.00    +0.000 C 
ENDBRANCH   5  25
TORSDOF 2
ENDMDL
MODEL 2
REMARK VINA RESULT:      -6.8      9.967     12.572
REMARK  Name = 
REMARK  3 active torsions:
REMARK  status: ('A' for Active; 'I' for Inactive)
REMARK    1  A    between atoms: C_1  and  N_2
REMARK    2  A    between atoms: N_5  and  C_6
REMARK    3  A    between atoms: C_12  and  C_13
REMARK                            x       y       z     vdW  Elec       q    Type
REMARK                         _______ _______ _______ _____ _____    ______ ____
ROOT
ATOM      1  C   UNL     1      12.331  15.232  17.296  0.00  0.00    +0.000 C 
ATOM      2  N   UNL     1      11.430  14.529  18.165  0.00  0.00    +0.000 N 
ATOM      3  C   UNL     1      10.744  13.343  17.856  0.00  0.00    +0.000 A 
ATOM      4  O   UNL     1      10.784  12.747  16.791  0.00  0.00    +0.000 OA
ATOM      5  N   UNL     1      10.010  12.991  19.032  0.00  0.00    +0.000 N 
ATOM      6  C   UNL     1      10.223  13.989  20.022  0.00  0.00    +0.000 A 
ATOM      7  C   UNL     1       9.733  14.167  21.331  0.00  0.00    +0.000 A 
ATOM      8  C   UNL     1       8.820  13.325  22.033  0.00  0.00    +0.000 A 
ATOM      9  C   UNL     1       8.396  13.592  23.352  0.00  0.00    +0.000 A 
ATOM     10  C   UNL     1       8.905  14.747  23.956  0.00  0.00    +0.000 A 
ATOM     11  C   UNL     1       9.790  15.589  23.275  0.00  0.00    +0.000 A 
ATOM     12  C   UNL     1      10.214  15.324  21.988  0.00  0.00    +0.000 A 
ATOM     13  N   UNL     1      11.073  16.210  21.442  0.00  0.00    +0.000 NA
ATOM     14  C   UNL     1      11.513  16.002  20.186  0.00  0.00    +0.000 A 
ATOM     15  C   UNL     1      11.105  14.915  19.465  0.00  0.00    +0.000 A 
ENDROOT
BRANCH   9  16
ATOM     16  C   UNL     1       7.452  12.711  24.067  0.00  0.00    +0.000 A 
ATOM     17  C   UNL     1       7.579  12.365  25.402  0.00  0.00    +0.000 A 
ATOM     18  N   UNL     1       6.743  11.537  26.072  0.00  0.00    +0.000 NA
ATOM     19  C   UNL     1       5.728  11.024  25.375  0.00  0.00    +0.000 A 
ATOM     20  N   UNL     1       4.878  10.156  26.024  0.00  0.00    +0.000 N 
ATOM     21  N   UNL     1       5.463  11.315  24.102  0.00  0.00    +0.000 NA
ATOM     22  C   UNL     1       6.336  12.140  23.478  0.00  0.00    +0.000 A 
ATOM     23  H   UNL     1       4.915  10.310  27.021  0.00  0.00    +0.000 HD
ATOM     24  H   UNL     1       3.972  10.158  25.580  0.00  0.00    +0.000 HD
ENDBRANCH   9  16
BRANCH   5  25
ATOM     25  C   UNL     1       9.186  11.834  19.154  0.00  0.00    +0.000 C 
ATOM     26  C   UNL     1       9.377  10.591  18.317  0.00  0.00    +0.000 C 
ATOM     27  C   UNL     1       9.735  10.565  19.769  0.00  0.00    +0.000 C 
ENDBRANCH   5  25
TORSDOF 2
ENDMDL
MODEL 3
REMARK VINA RESULT:      -6.5      3.603      3.997
REMARK  Name = 
REMARK  3 active torsions:
REMARK  status: ('A' for Active; 'I' for Inactive)
REMARK    1  A    between atoms: C_1  and  N_2
REMARK    2  A    between atoms: N_5  and  C_6
REMARK    3  A    between atoms: C_12  and  C_13
REMARK                            x       y       z     vdW  Elec       q    Type
REMARK                         _______ _______ _______ _____ _____    ______ ____
ROOT
ATOM      1  C   UNL     1      -1.697  15.664  22.176  0.00  0.00    +0.000 C 
ATOM      2  N   UNL     1      -1.004  14.628  21.464  0.00  0.00    +0.000 N 
ATOM      3  C   UNL     1      -0.324  14.780  20.244  0.00  0.00    +0.000 A 
ATOM      4  O   UNL     1      -0.247  15.806  19.587  0.00  0.00    +0.000 OA
ATOM      5  N   UNL     1       0.248  13.503  19.946  0.00  0.00    +0.000 N 
ATOM      6  C   UNL     1      -0.129  12.583  20.964  0.00  0.00    +0.000 A 
ATOM      7  C   UNL     1       0.118  11.210  21.160  0.00  0.00    +0.000 A 
ATOM      8  C   UNL     1       0.857  10.336  20.310  0.00  0.00    +0.000 A 
ATOM      9  C   UNL     1       1.053   8.969  20.604  0.00  0.00    +0.000 A 
ATOM     10  C   UNL     1       0.470   8.489  21.782  0.00  0.00    +0.000 A 
ATOM     11  C   UNL     1      -0.269   9.331  22.618  0.00  0.00    +0.000 A 
ATOM     12  C   UNL     1      -0.452  10.671  22.338  0.00  0.00    +0.000 A 
ATOM     13  N   UNL     1      -1.181  11.380  23.226  0.00  0.00    +0.000 NA
ATOM     14  C   UNL     1      -1.394  12.689  22.996  0.00  0.00    +0.000 A 
ATOM     15  C   UNL     1      -0.888  13.304  21.885  0.00  0.00    +0.000 A 
ENDROOT
BRANCH   9  16
ATOM     16  C   UNL     1       1.821   8.076  19.715  0.00  0.00    +0.000 A 
ATOM     17  C   UNL     1       2.197   6.787  20.053  0.00  0.00    +0.000 A 
ATOM     18  N   UNL     1       2.925   5.960  19.267  0.00  0.00    +0.000 NA
ATOM     19  C   UNL     1       3.302   6.442  18.082  0.00  0.00    +0.000 A 
ATOM     20  N   UNL     1       4.068   5.632  17.274  0.00  0.00    +0.000 N 
ATOM     21  N   UNL     1       2.966   7.643  17.615  0.00  0.00    +0.000 NA
ATOM     22  C   UNL     1       2.245   8.433  18.445  0.00  0.00    +0.000 A 
ATOM     23  H   UNL     1       3.932   4.663  17.520  0.00  0.00    +0.000 HD
ATOM     24  H   UNL     1       3.951   5.894  16.306  0.00  0.00    +0.000 HD
ENDBRANCH   9  16
BRANCH   5  25
ATOM     25  C   UNL     1       1.041  13.220  18.796  0.00  0.00    +0.000 C 
ATOM     26  C   UNL     1       1.966  14.232  18.162  0.00  0.00    +0.000 C 
ATOM     27  C   UNL     1       2.542  13.077  18.918  0.00  0.00    +0.000 C 
ENDBRANCH   5  25
TORSDOF 2
ENDMDL
MODEL 4
REMARK VINA RESULT:      -6.4      4.385      8.902
REMARK  Name = 
REMARK  3 active torsions:
REMARK  status: ('A' for Active; 'I' for Inactive)
REMARK    1  A    between atoms: C_1  and  N_2
REMARK    2  A    between atoms: N_5  and  C_6
REMARK    3  A    between atoms: C_12  and  C_13
REMARK                            x       y       z     vdW  Elec       q    Type
REMARK                         _______ _______ _______ _____ _____    ______ ____
ROOT
ATOM      1  C   UNL     1       5.458   3.200  17.011  0.00  0.00    +0.000 C 
ATOM      2  N   UNL     1       4.584   3.954  17.864  0.00  0.00    +0.000 N 
ATOM      3  C   UNL     1       3.987   3.492  19.048  0.00  0.00    +0.000 A 
ATOM      4  O   UNL     1       4.093   2.369  19.515  0.00  0.00    +0.000 OA
ATOM      5  N   UNL     1       3.249   4.597  19.578  0.00  0.00    +0.000 N 
ATOM      6  C   UNL     1       3.370   5.699  18.688  0.00  0.00    +0.000 A 
ATOM      7  C   UNL     1       2.837   7.004  18.692  0.00  0.00    +0.000 A 
ATOM      8  C   UNL     1       1.966   7.577  19.665  0.00  0.00    +0.000 A 
ATOM      9  C   UNL     1       1.492   8.904  19.578  0.00  0.00    +0.000 A 
ATOM     10  C   UNL     1       1.908   9.649  18.470  0.00  0.00    +0.000 A 
ATOM     11  C   UNL     1       2.751   9.096  17.501  0.00  0.00    +0.000 A 
ATOM     12  C   UNL     1       3.224   7.802  17.589  0.00  0.00    +0.000 A 
ATOM     13  N   UNL     1       4.035   7.386  16.594  0.00  0.00    +0.000 NA
ATOM     14  C   UNL     1       4.519   6.130  16.629  0.00  0.00    +0.000 A 
ATOM     15  C   UNL     1       4.202   5.279  17.651  0.00  0.00    +0.000 A 
ENDROOT
BRANCH   9  16
ATOM     16  C   UNL     1       0.592   9.485  20.593  0.00  0.00    +0.000 A 
ATOM     17  C   UNL     1      -0.180  10.615  20.384  0.00  0.00    +0.000 A 
ATOM     18  N   UNL     1      -0.991  11.183  21.307  0.00  0.00    +0.000 NA
ATOM     19  C   UNL     1      -1.035  10.595  22.504  0.00  0.00    +0.000 A 
ATOM     20  N   UNL     1      -1.830  11.168  23.471  0.00  0.00    +0.000 N 
ATOM     21  N   UNL     1      -0.383   9.477  22.819  0.00  0.00    +0.000 NA
ATOM     22  C   UNL     1       0.420   8.957  21.862  0.00  0.00    +0.000 A 
ATOM     23  H   UNL     1      -2.550  11.731  23.044  0.00  0.00    +0.000 HD
ATOM     24  H   UNL     1      -2.112  10.473  24.147  0.00  0.00    +0.000 HD
ENDBRANCH   9  16
BRANCH   5  25
ATOM     25  C   UNL     1       2.501   4.562  20.791  0.00  0.00    +0.000 C 
ATOM     26  C   UNL     1       1.088   4.035  20.876  0.00  0.00    +0.000 C 
ATOM     27  C   UNL     1       2.208   3.244  21.472  0.00  0.00    +0.000 C 
ENDBRANCH   5  25
TORSDOF 2
ENDMDL
MODEL 5
REMARK VINA RESULT:      -6.4      3.581      3.842
REMARK  Name = 
REMARK  3 active torsions:
REMARK  status: ('A' for Active; 'I' for Inactive)
REMARK    1  A    between atoms: C_1  and  N_2
REMARK    2  A    between atoms: N_5  and  C_6
REMARK    3  A    between atoms: C_12  and  C_13
REMARK                            x       y       z     vdW  Elec       q    Type
REMARK                         _______ _______ _______ _____ _____    ______ ____
ROOT
ATOM      1  C   UNL     1      -1.677  15.981  21.912  0.00  0.00    +0.000 C 
ATOM      2  N   UNL     1      -1.022  14.872  21.278  0.00  0.00    +0.000 N 
ATOM      3  C   UNL     1      -0.356  14.906  20.042  0.00  0.00    +0.000 A 
ATOM      4  O   UNL     1      -0.261  15.874  19.303  0.00  0.00    +0.000 OA
ATOM      5  N   UNL     1       0.178  13.594  19.842  0.00  0.00    +0.000 N 
ATOM      6  C   UNL     1      -0.209  12.770  20.935  0.00  0.00    +0.000 A 
ATOM      7  C   UNL     1       0.005  11.411  21.239  0.00  0.00    +0.000 A 
ATOM      8  C   UNL     1       0.709  10.451  20.453  0.00  0.00    +0.000 A 
ATOM      9  C   UNL     1       0.872   9.108  20.855  0.00  0.00    +0.000 A 
ATOM     10  C   UNL     1       0.293   8.740  22.075  0.00  0.00    +0.000 A 
ATOM     11  C   UNL     1      -0.412   9.667  22.849  0.00  0.00    +0.000 A 
ATOM     12  C   UNL     1      -0.563  10.984  22.463  0.00  0.00    +0.000 A 
ATOM     13  N   UNL     1      -1.260  11.782  23.300  0.00  0.00    +0.000 NA
ATOM     14  C   UNL     1      -1.442  13.074  22.967  0.00  0.00    +0.000 A 
ATOM     15  C   UNL     1      -0.936  13.583  21.804  0.00  0.00    +0.000 A 
ENDROOT
BRANCH   9  16
ATOM     16  C   UNL     1       1.604   8.125  20.033  0.00  0.00    +0.000 A 
ATOM     17  C   UNL     1       2.035   8.369  18.740  0.00  0.00    +0.000 A 
ATOM     18  N   UNL     1       2.683   7.475  17.956  0.00  0.00    +0.000 NA
ATOM     19  C   UNL     1       2.910   6.272  18.486  0.00  0.00    +0.000 A 
ATOM     20  N   UNL     1       3.542   5.334  17.701  0.00  0.00    +0.000 N 
ATOM     21  N   UNL     1       2.593   5.925  19.733  0.00  0.00    +0.000 NA
ATOM     22  C   UNL     1       1.939   6.854  20.469  0.00  0.00    +0.000 A 
ATOM     23  H   UNL     1       4.073   5.787  16.973  0.00  0.00    +0.000 HD
ATOM     24  H   UNL     1       4.017   4.657  18.280  0.00  0.00    +0.000 HD
ENDBRANCH   9  16
BRANCH   5  25
ATOM     25  C   UNL     1       0.947  13.198  18.710  0.00  0.00    +0.000 C 
ATOM     26  C   UNL     1       2.049  14.047  18.121  0.00  0.00    +0.000 C 
ATOM     27  C   UNL     1       2.398  12.801  18.871  0.00  0.00    +0.000 C 
ENDBRANCH   5  25
TORSDOF 2
ENDMDL
MODEL 6
REMARK VINA RESULT:      -6.3      3.970      5.568
REMARK  Name = 
REMARK  3 active torsions:
REMARK  status: ('A' for Active; 'I' for Inactive)
REMARK    1  A    between atoms: C_1  and  N_2
REMARK    2  A    between atoms: N_5  and  C_6
REMARK    3  A    between atoms: C_12  and  C_13
REMARK                            x       y       z     vdW  Elec       q    Type
REMARK                         _______ _______ _______ _____ _____    ______ ____
ROOT
ATOM      1  C   UNL     1       0.185  14.178  19.970  0.00  0.00    +0.000 C 
ATOM      2  N   UNL     1       0.431  12.807  20.315  0.00  0.00    +0.000 N 
ATOM      3  C   UNL     1       0.140  12.203  21.549  0.00  0.00    +0.000 A 
ATOM      4  O   UNL     1      -0.336  12.760  22.527  0.00  0.00    +0.000 OA
ATOM      5  N   UNL     1       0.509  10.828  21.415  0.00  0.00    +0.000 N 
ATOM      6  C   UNL     1       1.060  10.624  20.120  0.00  0.00    +0.000 A 
ATOM      7  C   UNL     1       1.605   9.498  19.471  0.00  0.00    +0.000 A 
ATOM      8  C   UNL     1       1.759   8.185  20.005  0.00  0.00    +0.000 A 
ATOM      9  C   UNL     1       2.315   7.120  19.264  0.00  0.00    +0.000 A 
ATOM     10  C   UNL     1       2.731   7.410  17.960  0.00  0.00    +0.000 A 
ATOM     11  C   UNL     1       2.599   8.696  17.428  0.00  0.00    +0.000 A 
ATOM     12  C   UNL     1       2.046   9.737  18.148  0.00  0.00    +0.000 A 
ATOM     13  N   UNL     1       1.968  10.930  17.521  0.00  0.00    +0.000 NA
ATOM     14  C   UNL     1       1.443  11.979  18.181  0.00  0.00    +0.000 A 
ATOM     15  C   UNL     1       0.991  11.853  19.465  0.00  0.00    +0.000 A 
ENDROOT
BRANCH   9  16
ATOM     16  C   UNL     1       2.467   5.765  19.829  0.00  0.00    +0.000 A 
ATOM     17  C   UNL     1       1.576   5.196  20.723  0.00  0.00    +0.000 A 
ATOM     18  N   UNL     1       1.708   3.968  21.276  0.00  0.00    +0.000 NA
ATOM     19  C   UNL     1       2.788   3.269  20.923  0.00  0.00    +0.000 A 
ATOM     20  N   UNL     1       2.963   2.027  21.493  0.00  0.00    +0.000 N 
ATOM     21  N   UNL     1       3.694   3.677  20.036  0.00  0.00    +0.000 NA
ATOM     22  C   UNL     1       3.518   4.916  19.521  0.00  0.00    +0.000 A 
ATOM     23  H   UNL     1       2.078   1.660  21.811  0.00  0.00    +0.000 HD
ATOM     24  H   UNL     1       3.527   1.444  20.892  0.00  0.00    +0.000 HD
ENDBRANCH   9  16
BRANCH   5  25
ATOM     25  C   UNL     1       0.360   9.847  22.439  0.00  0.00    +0.000 C 
ATOM     26  C   UNL     1      -0.845   9.777  23.348  0.00  0.00    +0.000 C 
ATOM     27  C   UNL     1      -0.655   8.735  22.292  0.00  0.00    +0.000 C 
ENDBRANCH   5  25
TORSDOF 2
ENDMDL
MODEL 7
REMARK VINA RESULT:      -6.2      1.061      1.505
REMARK  Name = 
REMARK  3 active torsions:
REMARK  status: ('A' for Active; 'I' for Inactive)
REMARK    1  A    between atoms: C_1  and  N_2
REMARK    2  A    between atoms: N_5  and  C_6
REMARK    3  A    between atoms: C_12  and  C_13
REMARK                            x       y       z     vdW  Elec       q    Type
REMARK                         _______ _______ _______ _____ _____    ______ ____
ROOT
ATOM      1  C   UNL     1      -6.381  14.703  20.771  0.00  0.00    +0.000 C 
ATOM      2  N   UNL     1      -5.415  13.755  20.294  0.00  0.00    +0.000 N 
ATOM      3  C   UNL     1      -5.612  12.829  19.257  0.00  0.00    +0.000 A 
ATOM      4  O   UNL     1      -6.644  12.666  18.625  0.00  0.00    +0.000 OA
ATOM      5  N   UNL     1      -4.369  12.137  19.101  0.00  0.00    +0.000 N 
ATOM      6  C   UNL     1      -3.450  12.619  20.074  0.00  0.00    +0.000 A 
ATOM      7  C   UNL     1      -2.121  12.280  20.395  0.00  0.00    +0.000 A 
ATOM      8  C   UNL     1      -1.312  11.280  19.777  0.00  0.00    +0.000 A 
ATOM      9  C   UNL     1       0.018  11.024  20.172  0.00  0.00    +0.000 A 
ATOM     10  C   UNL     1       0.523  11.795  21.225  0.00  0.00    +0.000 A 
ATOM     11  C   UNL     1      -0.263  12.769  21.849  0.00  0.00    +0.000 A 
ATOM     12  C   UNL     1      -1.561  13.029  21.457  0.00  0.00    +0.000 A 
ATOM     13  N   UNL     1      -2.214  13.997  22.134  0.00  0.00    +0.000 NA
ATOM     14  C   UNL     1      -3.485  14.285  21.796  0.00  0.00    +0.000 A 
ATOM     15  C   UNL     1      -4.116  13.617  20.785  0.00  0.00    +0.000 A 
ENDROOT
BRANCH   9  16
ATOM     16  C   UNL     1       0.844   9.987  19.523  0.00  0.00    +0.000 A 
ATOM     17  C   UNL     1       1.243   8.816  20.145  0.00  0.00    +0.000 A 
ATOM     18  N   UNL     1       2.023   7.864  19.581  0.00  0.00    +0.000 NA
ATOM     19  C   UNL     1       2.431   8.091  18.332  0.00  0.00    +0.000 A 
ATOM     20  N   UNL     1       3.250   7.153  17.744  0.00  0.00    +0.000 N 
ATOM     21  N   UNL     1       2.080   9.150  17.605  0.00  0.00    +0.000 NA
ATOM     22  C   UNL     1       1.306  10.075  18.220  0.00  0.00    +0.000 A 
ATOM     23  H   UNL     1       3.131   6.256  18.191  0.00  0.00    +0.000 HD
ATOM     24  H   UNL     1       3.162   7.194  16.739  0.00  0.00    +0.000 HD
ENDBRANCH   9  16
BRANCH   5  25
ATOM     25  C   UNL     1      -4.127  11.116  18.137  0.00  0.00    +0.000 C 
ATOM     26  C   UNL     1      -4.620  11.194  16.710  0.00  0.00    +0.000 C 
ATOM     27  C   UNL     1      -3.161  11.354  16.997  0.00  0.00    +0.000 C 
ENDBRANCH   5  25
TORSDOF 2
ENDMDL
MODEL 8
REMARK VINA RESULT:      -6.1      4.960      8.708
REMARK  Name = 
REMARK  3 active torsions:
REMARK  status: ('A' for Active; 'I' for Inactive)
REMARK    1  A    between atoms: C_1  and  N_2
REMARK    2  A    between atoms: N_5  and  C_6
REMARK    3  A    between atoms: C_12  and  C_13
REMARK                            x       y       z     vdW  Elec       q    Type
REMARK                         _______ _______ _______ _____ _____    ______ ____
ROOT
ATOM      1  C   UNL     1       3.972   1.535  18.545  0.00  0.00    +0.000 C 
ATOM      2  N   UNL     1       3.831   2.952  18.362  0.00  0.00    +0.000 N 
ATOM      3  C   UNL     1       4.439   3.717  17.353  0.00  0.00    +0.000 A 
ATOM      4  O   UNL     1       5.204   3.300  16.498  0.00  0.00    +0.000 OA
ATOM      5  N   UNL     1       3.975   5.057  17.537  0.00  0.00    +0.000 N 
ATOM      6  C   UNL     1       3.129   5.097  18.681  0.00  0.00    +0.000 A 
ATOM      7  C   UNL     1       2.437   6.138  19.330  0.00  0.00    +0.000 A 
ATOM      8  C   UNL     1       2.425   7.520  18.976  0.00  0.00    +0.000 A 
ATOM      9  C   UNL     1       1.687   8.485  19.694  0.00  0.00    +0.000 A 
ATOM     10  C   UNL     1       0.962   8.030  20.800  0.00  0.00    +0.000 A 
ATOM     11  C   UNL     1       0.976   6.680  21.168  0.00  0.00    +0.000 A 
ATOM     12  C   UNL     1       1.688   5.732  20.460  0.00  0.00    +0.000 A 
ATOM     13  N   UNL     1       1.616   4.462  20.912  0.00  0.00    +0.000 NA
ATOM     14  C   UNL     1       2.297   3.500  20.262  0.00  0.00    +0.000 A 
ATOM     15  C   UNL     1       3.053   3.790  19.160  0.00  0.00    +0.000 A 
ENDROOT
BRANCH   9  16
ATOM     16  C   UNL     1       1.683   9.912  19.315  0.00  0.00    +0.000 A 
ATOM     17  C   UNL     1       2.326  10.416  18.198  0.00  0.00    +0.000 A 
ATOM     18  N   UNL     1       2.360  11.723  17.845  0.00  0.00    +0.000 NA
ATOM     19  C   UNL     1       1.722  12.574  18.650  0.00  0.00    +0.000 A 
ATOM     20  N   UNL     1       1.764  13.913  18.330  0.00  0.00    +0.000 N 
ATOM     21  N   UNL     1       1.023  12.215  19.726  0.00  0.00    +0.000 NA
ATOM     22  C   UNL     1       1.030  10.898  20.037  0.00  0.00    +0.000 A 
ATOM     23  H   UNL     1       1.953  14.032  17.347  0.00  0.00    +0.000 HD
ATOM     24  H   UNL     1       0.963  14.389  18.718  0.00  0.00    +0.000 HD
ENDBRANCH   9  16
BRANCH   5  25
ATOM     25  C   UNL     1       4.337   6.159  16.709  0.00  0.00    +0.000 C 
ATOM     26  C   UNL     1       5.560   7.012  16.957  0.00  0.00    +0.000 C 
ATOM     27  C   UNL     1       5.540   6.068  15.796  0.00  0.00    +0.000 C 
ENDBRANCH   5  25
TORSDOF 2
ENDMDL
MODEL 9
REMARK VINA RESULT:      -6.1      2.926      6.839
REMARK  Name = 
REMARK  3 active torsions:
REMARK  status: ('A' for Active; 'I' for Inactive)
REMARK    1  A    between atoms: C_1  and  N_2
REMARK    2  A    between atoms: N_5  and  C_6
REMARK    3  A    between atoms: C_12  and  C_13
REMARK                            x       y       z     vdW  Elec       q    Type
REMARK                         _______ _______ _______ _____ _____    ______ ____
ROOT
ATOM      1  C   UNL     1      -3.086   9.785  16.025  0.00  0.00    +0.000 C 
ATOM      2  N   UNL     1      -2.669  10.401  17.253  0.00  0.00    +0.000 N 
ATOM      3  C   UNL     1      -1.406  10.267  17.854  0.00  0.00    +0.000 A 
ATOM      4  O   UNL     1      -0.484   9.581  17.442  0.00  0.00    +0.000 OA
ATOM      5  N   UNL     1      -1.433  11.092  19.022  0.00  0.00    +0.000 N 
ATOM      6  C   UNL     1      -2.724  11.679  19.139  0.00  0.00    +0.000 A 
ATOM      7  C   UNL     1      -3.309  12.534  20.094  0.00  0.00    +0.000 A 
ATOM      8  C   UNL     1      -2.703  13.052  21.277  0.00  0.00    +0.000 A 
ATOM      9  C   UNL     1      -3.379  13.912  22.168  0.00  0.00    +0.000 A 
ATOM     10  C   UNL     1      -4.702  14.236  21.848  0.00  0.00    +0.000 A 
ATOM     11  C   UNL     1      -5.314  13.725  20.699  0.00  0.00    +0.000 A 
ATOM     12  C   UNL     1      -4.651  12.892  19.821  0.00  0.00    +0.000 A 
ATOM     13  N   UNL     1      -5.349  12.470  18.745  0.00  0.00    +0.000 NA
ATOM     14  C   UNL     1      -4.750  11.650  17.860  0.00  0.00    +0.000 A 
ATOM     15  C   UNL     1      -3.457  11.244  18.036  0.00  0.00    +0.000 A 
ENDROOT
BRANCH   9  16
ATOM     16  C   UNL     1      -2.739  14.441  23.388  0.00  0.00    +0.000 A 
ATOM     17  C   UNL     1      -1.391  14.738  23.485  0.00  0.00    +0.000 A 
ATOM     18  N   UNL     1      -0.775  15.198  24.600  0.00  0.00    +0.000 NA
ATOM     19  C   UNL     1      -1.543  15.367  25.677  0.00  0.00    +0.000 A 
ATOM     20  N   UNL     1      -0.938  15.805  26.834  0.00  0.00    +0.000 N 
ATOM     21  N   UNL     1      -2.860  15.167  25.704  0.00  0.00    +0.000 NA
ATOM     22  C   UNL     1      -3.422  14.699  24.565  0.00  0.00    +0.000 A 
ATOM     23  H   UNL     1      -0.079  16.289  26.618  0.00  0.00    +0.000 HD
ATOM     24  H   UNL     1      -1.609  16.277  27.422  0.00  0.00    +0.000 HD
ENDBRANCH   9  16
BRANCH   5  25
ATOM     25  C   UNL     1      -0.339  11.260  19.919  0.00  0.00    +0.000 C 
ATOM     26  C   UNL     1       1.095  10.973  19.536  0.00  0.00    +0.000 C 
ATOM     27  C   UNL     1       0.648  12.389  19.719  0.00  0.00    +0.000 C 
ENDBRANCH   5  25
TORSDOF 2
ENDMDL
