MODEL 1
REMARK VINA RESULT:      -7.7      0.000      0.000
REMARK  Name = 
REMARK  10 active torsions:
REMARK  status: ('A' for Active; 'I' for Inactive)
REMARK    1  A    between atoms: C_1  and  N_2
REMARK    2  A    between atoms: N_2  and  C_3
REMARK    3  A    between atoms: C_4  and  C_6
REMARK    4  A    between atoms: C_9  and  C_10
REMARK    5  A    between atoms: C_11  and  C_12
REMARK    6  A    between atoms: C_12  and  C_14
REMARK    7  A    between atoms: C_20  and  O_21
REMARK    8  A    between atoms: N_24  and  C_25
REMARK    9  A    between atoms: C_25  and  C_26
REMARK   10  A    between atoms: C_26  and  C_27
REMARK                            x       y       z     vdW  Elec       q    Type
REMARK                         _______ _______ _______ _____ _____    ______ ____
ROOT
ATOM      1  C   UNL     1       1.102  12.454  20.695  0.00  0.00    +0.000 C 
ATOM      2  C   UNL     1       1.342  11.734  19.402  0.00  0.00    +0.000 C 
ATOM      3  C   UNL     1       2.109  12.454  18.566  0.00  0.00    +0.000 C 
ATOM      4  C   UNL     1       2.511  13.685  19.289  0.00  0.00    +0.000 C 
ATOM      5  O   UNL     1       3.395  14.442  18.937  0.00  0.00    +0.000 OA
ATOM      6  N   UNL     1       1.718  13.750  20.429  0.00  0.00    +0.000 N 
ENDROOT
BRANCH   1  10
ATOM      7  C   UNL     1      -3.046  12.787  21.897  0.00  0.00    +0.000 A 
ATOM      8  C   UNL     1      -2.119  12.156  22.731  0.00  0.00    +0.000 A 
ATOM      9  C   UNL     1      -0.776  12.071  22.350  0.00  0.00    +0.000 A 
ATOM     10  C   UNL     1      -0.347  12.585  21.114  0.00  0.00    +0.000 A 
ATOM     11  C   UNL     1      -1.286  13.224  20.290  0.00  0.00    +0.000 A 
ATOM     12  C   UNL     1      -2.625  13.305  20.669  0.00  0.00    +0.000 A 
BRANCH   7  16
ATOM     13  C   UNL     1      -6.406  13.691  23.443  0.00  0.00    +0.000 C 
ATOM     14  N   UNL     1      -4.977  13.727  23.189  0.00  0.00    +0.000 N 
ATOM     15  C   UNL     1      -4.228  14.843  23.749  0.00  0.00    +0.000 C 
ATOM     16  C   UNL     1      -4.497  12.849  22.214  0.00  0.00    +0.000 C 
ATOM     17  O   UNL     1      -5.242  12.104  21.578  0.00  0.00    +0.000 OA
ENDBRANCH   7  16
ENDBRANCH   1  10
BRANCH   2  18
ATOM     18  C   UNL     1       0.712  10.501  18.889  0.00  0.00    +0.000 C 
ATOM     19  O   UNL     1      -0.380  10.584  18.318  0.00  0.00    +0.000 OA
BRANCH  18  20
ATOM     20  C   UNL     1       1.313   9.165  19.022  0.00  0.00    +0.000 A 
ATOM     21  C   UNL     1       2.008   8.622  17.928  0.00  0.00    +0.000 A 
ATOM     22  C   UNL     1       2.652   7.390  18.045  0.00  0.00    +0.000 A 
ATOM     23  C   UNL     1       2.586   6.755  19.278  0.00  0.00    +0.000 A 
ATOM     24  N   UNL     1       1.943   7.272  20.371  0.00  0.00    +0.000 NA
ATOM     25  C   UNL     1       1.346   8.455  20.211  0.00  0.00    +0.000 A 
ENDBRANCH  18  20
ENDBRANCH   2  18
BRANCH   3  26
ATOM     26  O   UNL     1       2.450  12.179  17.275  0.00  0.00    +0.000 OA
ATOM     27  H   UNL     1       2.838  13.001  16.901  0.00  0.00    +0.000 HD
ENDBRANCH   3  26
BRANCH   6  28
ATOM     28  C   UNL     1       1.945  14.713  21.496  0.00  0.00    +0.000 C 
BRANCH  28  29
ATOM     29  C   UNL     1       0.874  15.765  21.769  0.00  0.00    +0.000 C 
BRANCH  29  30
ATOM     30  C   UNL     1       0.169  16.515  20.675  0.00  0.00    +0.000 A 
ATOM     31  C   UNL     1      -1.167  16.865  20.814  0.00  0.00    +0.000 A 
ATOM     32  N   UNL     1      -1.662  16.778  19.555  0.00  0.00    +0.000 N 
ATOM     33  C   UNL     1      -0.704  17.291  18.719  0.00  0.00    +0.000 A 
ATOM     34  C   UNL     1      -0.834  17.874  17.459  0.00  0.00    +0.000 A 
ATOM     35  C   UNL     1       0.344  18.266  16.829  0.00  0.00    +0.000 A 
ATOM     36  C   UNL     1       1.579  17.951  17.393  0.00  0.00    +0.000 A 
ATOM     37  C   UNL     1       1.686  17.283  18.631  0.00  0.00    +0.000 A 
ATOM     38  C   UNL     1       0.509  17.012  19.370  0.00  0.00    +0.000 A 
ATOM     39  H   UNL     1      -2.552  16.388  19.280  0.00  0.00    +0.000 HD
ENDBRANCH  29  30
ENDBRANCH  28  29
ENDBRANCH   6  28
TORSDOF 8
ENDMDL
MODEL 2
REMARK VINA RESULT:      -7.5      5.048      8.850
REMARK  Name = 
REMARK  10 active torsions:
REMARK  status: ('A' for Active; 'I' for Inactive)
REMARK    1  A    between atoms: C_1  and  N_2
REMARK    2  A    between atoms: N_2  and  C_3
REMARK    3  A    between atoms: C_4  and  C_6
REMARK    4  A    between atoms: C_9  and  C_10
REMARK    5  A    between atoms: C_11  and  C_12
REMARK    6  A    between atoms: C_12  and  C_14
REMARK    7  A    between atoms: C_20  and  O_21
REMARK    8  A    between atoms: N_24  and  C_25
REMARK    9  A    between atoms: C_25  and  C_26
REMARK   10  A    between atoms: C_26  and  C_27
REMARK                            x       y       z     vdW  Elec       q    Type
REMARK                         _______ _______ _______ _____ _____    ______ ____
ROOT
ATOM      1  C   UNL     1       5.142   5.281  18.410  0.00  0.00    +0.000 C 
ATOM      2  C   UNL     1       4.764   4.088  17.583  0.00  0.00    +0.000 C 
ATOM      3  C   UNL     1       5.674   3.838  16.626  0.00  0.00    +0.000 C 
ATOM      4  C   UNL     1       6.780   4.809  16.807  0.00  0.00    +0.000 C 
ATOM      5  O   UNL     1       7.874   4.723  16.284  0.00  0.00    +0.000 OA
ATOM      6  N   UNL     1       6.321   5.768  17.703  0.00  0.00    +0.000 N 
ENDROOT
BRANCH   1  10
ATOM      7  C   UNL     1       2.065   8.303  18.809  0.00  0.00    +0.000 A 
ATOM      8  C   UNL     1       2.249   7.347  19.813  0.00  0.00    +0.000 A 
ATOM      9  C   UNL     1       3.259   6.388  19.690  0.00  0.00    +0.000 A 
ATOM     10  C   UNL     1       4.077   6.347  18.548  0.00  0.00    +0.000 A 
ATOM     11  C   UNL     1       3.887   7.318  17.553  0.00  0.00    +0.000 A 
ATOM     12  C   UNL     1       2.878   8.271  17.672  0.00  0.00    +0.000 A 
BRANCH   7  16
ATOM     13  C   UNL     1      -0.591  10.760  19.996  0.00  0.00    +0.000 C 
ATOM     14  N   UNL     1       0.502   9.807  20.065  0.00  0.00    +0.000 N 
ATOM     15  C   UNL     1       1.193   9.676  21.340  0.00  0.00    +0.000 C 
ATOM     16  C   UNL     1       0.968   9.305  18.848  0.00  0.00    +0.000 C 
ATOM     17  O   UNL     1       0.504   9.669  17.767  0.00  0.00    +0.000 OA
ENDBRANCH   7  16
ENDBRANCH   1  10
BRANCH   2  18
ATOM     18  C   UNL     1       3.498   3.329  17.562  0.00  0.00    +0.000 C 
ATOM     19  O   UNL     1       3.097   2.870  16.488  0.00  0.00    +0.000 OA
BRANCH  18  20
ATOM     20  C   UNL     1       2.675   3.089  18.757  0.00  0.00    +0.000 A 
ATOM     21  C   UNL     1       3.302   2.659  19.939  0.00  0.00    +0.000 A 
ATOM     22  C   UNL     1       2.560   2.493  21.108  0.00  0.00    +0.000 A 
ATOM     23  C   UNL     1       1.205   2.787  21.048  0.00  0.00    +0.000 A 
ATOM     24  N   UNL     1       0.570   3.237  19.920  0.00  0.00    +0.000 NA
ATOM     25  C   UNL     1       1.323   3.384  18.827  0.00  0.00    +0.000 A 
ENDBRANCH  18  20
ENDBRANCH   2  18
BRANCH   3  26
ATOM     26  O   UNL     1       5.623   2.914  15.625  0.00  0.00    +0.000 OA
ATOM     27  H   UNL     1       5.021   2.199  15.928  0.00  0.00    +0.000 HD
ENDBRANCH   3  26
BRANCH   6  28
ATOM     28  C   UNL     1       7.186   6.785  18.284  0.00  0.00    +0.000 C 
BRANCH  28  29
ATOM     29  C   UNL     1       7.359   8.106  17.542  0.00  0.00    +0.000 C 
BRANCH  29  30
ATOM     30  C   UNL     1       8.201   9.233  18.068  0.00  0.00    +0.000 A 
ATOM     31  C   UNL     1       9.275   8.972  18.906  0.00  0.00    +0.000 A 
ATOM     32  N   UNL     1       9.300  10.036  19.747  0.00  0.00    +0.000 N 
ATOM     33  C   UNL     1       9.030  11.145  18.989  0.00  0.00    +0.000 A 
ATOM     34  C   UNL     1       9.380  12.479  19.196  0.00  0.00    +0.000 A 
ATOM     35  C   UNL     1       8.917  13.398  18.259  0.00  0.00    +0.000 A 
ATOM     36  C   UNL     1       8.036  12.994  17.257  0.00  0.00    +0.000 A 
ATOM     37  C   UNL     1       7.628  11.650  17.119  0.00  0.00    +0.000 A 
ATOM     38  C   UNL     1       8.204  10.667  17.959  0.00  0.00    +0.000 A 
ATOM     39  H   UNL     1       9.461  10.014  20.744  0.00  0.00    +0.000 HD
ENDBRANCH  29  30
ENDBRANCH  28  29
ENDBRANCH   6  28
TORSDOF 8
ENDMDL
MODEL 3
REMARK VINA RESULT:      -7.3      1.731      3.125
REMARK  Name = 
REMARK  10 active torsions:
REMARK  status: ('A' for Active; 'I' for Inactive)
REMARK    1  A    between atoms: C_1  and  N_2
REMARK    2  A    between atoms: N_2  and  C_3
REMARK    3  A    between atoms: C_4  and  C_6
REMARK    4  A    between atoms: C_9  and  C_10
REMARK    5  A    between atoms: C_11  and  C_12
REMARK    6  A    between atoms: C_12  and  C_14
REMARK    7  A    between atoms: C_20  and  O_21
REMARK    8  A    between atoms: N_24  and  C_25
REMARK    9  A    between atoms: C_25  and  C_26
REMARK   10  A    between atoms: C_26  and  C_27
REMARK                            x       y       z     vdW  Elec       q    Type
REMARK                         _______ _______ _______ _____ _____    ______ ____
ROOT
ATOM      1  C   UNL     1       1.110  12.540  20.827  0.00  0.00    +0.000 C 
ATOM      2  C   UNL     1       1.367  11.890  19.501  0.00  0.00    +0.000 C 
ATOM      3  C   UNL     1       2.083  12.686  18.688  0.00  0.00    +0.000 C 
ATOM      4  C   UNL     1       2.431  13.903  19.459  0.00  0.00    +0.000 C 
ATOM      5  O   UNL     1       3.269  14.721  19.129  0.00  0.00    +0.000 OA
ATOM      6  N   UNL     1       1.653  13.877  20.611  0.00  0.00    +0.000 N 
ENDROOT
BRANCH   1  10
ATOM      7  C   UNL     1      -3.032  12.599  22.094  0.00  0.00    +0.000 A 
ATOM      8  C   UNL     1      -2.076  11.904  22.841  0.00  0.00    +0.000 A 
ATOM      9  C   UNL     1      -0.736  11.907  22.441  0.00  0.00    +0.000 A 
ATOM     10  C   UNL     1      -0.337  12.576  21.270  0.00  0.00    +0.000 A 
ATOM     11  C   UNL     1      -1.305  13.278  20.536  0.00  0.00    +0.000 A 
ATOM     12  C   UNL     1      -2.641  13.271  20.932  0.00  0.00    +0.000 A 
BRANCH   7  16
ATOM     13  C   UNL     1      -6.832  12.607  21.851  0.00  0.00    +0.000 C 
ATOM     14  N   UNL     1      -5.445  12.600  21.419  0.00  0.00    +0.000 N 
ATOM     15  C   UNL     1      -5.186  12.334  20.011  0.00  0.00    +0.000 C 
ATOM     16  C   UNL     1      -4.480  12.579  22.428  0.00  0.00    +0.000 C 
ATOM     17  O   UNL     1      -4.779  12.536  23.622  0.00  0.00    +0.000 OA
ENDBRANCH   7  16
ENDBRANCH   1  10
BRANCH   2  18
ATOM     18  C   UNL     1       0.796  10.650  18.942  0.00  0.00    +0.000 C 
ATOM     19  O   UNL     1      -0.244  10.719  18.279  0.00  0.00    +0.000 OA
BRANCH  18  20
ATOM     20  C   UNL     1       1.395   9.320  19.133  0.00  0.00    +0.000 A 
ATOM     21  C   UNL     1       1.232   8.673  20.370  0.00  0.00    +0.000 A 
ATOM     22  C   UNL     1       1.723   7.381  20.558  0.00  0.00    +0.000 A 
ATOM     23  C   UNL     1       2.350   6.777  19.477  0.00  0.00    +0.000 A 
ATOM     24  N   UNL     1       2.497   7.369  18.250  0.00  0.00    +0.000 NA
ATOM     25  C   UNL     1       2.007   8.603  18.118  0.00  0.00    +0.000 A 
ENDBRANCH  18  20
ENDBRANCH   2  18
BRANCH   3  26
ATOM     26  O   UNL     1       2.417  12.486  17.381  0.00  0.00    +0.000 OA
ATOM     27  H   UNL     1       1.908  13.140  16.853  0.00  0.00    +0.000 HD
ENDBRANCH   3  26
BRANCH   6  28
ATOM     28  C   UNL     1       1.845  14.804  21.717  0.00  0.00    +0.000 C 
BRANCH  28  29
ATOM     29  C   UNL     1       1.115  16.143  21.682  0.00  0.00    +0.000 C 
BRANCH  29  30
ATOM     30  C   UNL     1      -0.354  16.279  21.967  0.00  0.00    +0.000 A 
ATOM     31  C   UNL     1      -1.198  16.862  21.033  0.00  0.00    +0.000 A 
ATOM     32  N   UNL     1      -2.123  17.507  21.785  0.00  0.00    +0.000 N 
ATOM     33  C   UNL     1      -2.420  16.682  22.839  0.00  0.00    +0.000 A 
ATOM     34  C   UNL     1      -3.575  16.601  23.615  0.00  0.00    +0.000 A 
ATOM     35  C   UNL     1      -3.563  15.678  24.657  0.00  0.00    +0.000 A 
ATOM     36  C   UNL     1      -2.391  14.989  24.969  0.00  0.00    +0.000 A 
ATOM     37  C   UNL     1      -1.207  15.153  24.220  0.00  0.00    +0.000 A 
ATOM     38  C   UNL     1      -1.234  15.963  23.059  0.00  0.00    +0.000 A 
ATOM     39  H   UNL     1      -2.503  18.428  21.618  0.00  0.00    +0.000 HD
ENDBRANCH  29  30
ENDBRANCH  28  29
ENDBRANCH   6  28
TORSDOF 8
ENDMDL
MODEL 4
REMARK VINA RESULT:      -7.2      2.796      6.215
REMARK  Name = 
REMARK  10 active torsions:
REMARK  status: ('A' for Active; 'I' for Inactive)
REMARK    1  A    between atoms: C_1  and  N_2
REMARK    2  A    between atoms: N_2  and  C_3
REMARK    3  A    between atoms: C_4  and  C_6
REMARK    4  A    between atoms: C_9  and  C_10
REMARK    5  A    between atoms: C_11  and  C_12
REMARK    6  A    between atoms: C_12  and  C_14
REMARK    7  A    between atoms: C_20  and  O_21
REMARK    8  A    between atoms: N_24  and  C_25
REMARK    9  A    between atoms: C_25  and  C_26
REMARK   10  A    between atoms: C_26  and  C_27
REMARK                            x       y       z     vdW  Elec       q    Type
REMARK                         _______ _______ _______ _____ _____    ______ ____
ROOT
ATOM      1  C   UNL     1      -0.748  11.907  20.954  0.00  0.00    +0.000 C 
ATOM      2  C   UNL     1      -0.197  10.742  21.722  0.00  0.00    +0.000 C 
ATOM      3  C   UNL     1      -0.865  10.543  22.871  0.00  0.00    +0.000 C 
ATOM      4  C   UNL     1      -1.979  11.521  22.907  0.00  0.00    +0.000 C 
ATOM      5  O   UNL     1      -2.925  11.471  23.670  0.00  0.00    +0.000 OA
ATOM      6  N   UNL     1      -1.733  12.438  21.891  0.00  0.00    +0.000 N 
ENDROOT
BRANCH   1  10
ATOM      7  C   UNL     1       2.121  14.927  19.768  0.00  0.00    +0.000 A 
ATOM      8  C   UNL     1       1.847  14.707  21.121  0.00  0.00    +0.000 A 
ATOM      9  C   UNL     1       0.937  13.715  21.501  0.00  0.00    +0.000 A 
ATOM     10  C   UNL     1       0.262  12.952  20.533  0.00  0.00    +0.000 A 
ATOM     11  C   UNL     1       0.553  13.176  19.178  0.00  0.00    +0.000 A 
ATOM     12  C   UNL     1       1.456  14.168  18.800  0.00  0.00    +0.000 A 
BRANCH   7  16
ATOM     13  C   UNL     1       5.172  17.117  19.144  0.00  0.00    +0.000 C 
ATOM     14  N   UNL     1       4.381  15.999  19.628  0.00  0.00    +0.000 N 
ATOM     15  C   UNL     1       5.103  14.851  20.156  0.00  0.00    +0.000 C 
ATOM     16  C   UNL     1       3.024  16.010  19.298  0.00  0.00    +0.000 C 
ATOM     17  O   UNL     1       2.523  16.897  18.608  0.00  0.00    +0.000 OA
ENDBRANCH   7  16
ENDBRANCH   1  10
BRANCH   2  18
ATOM     18  C   UNL     1       1.036   9.967  21.484  0.00  0.00    +0.000 C 
ATOM     19  O   UNL     1       1.886   9.912  22.378  0.00  0.00    +0.000 OA
BRANCH  18  20
ATOM     20  C   UNL     1       1.318   9.251  20.230  0.00  0.00    +0.000 A 
ATOM     21  C   UNL     1       1.149   9.928  19.010  0.00  0.00    +0.000 A 
ATOM     22  C   UNL     1       1.479   9.301  17.808  0.00  0.00    +0.000 A 
ATOM     23  C   UNL     1       1.989   8.013  17.882  0.00  0.00    +0.000 A 
ATOM     24  N   UNL     1       2.193   7.338  19.057  0.00  0.00    +0.000 NA
ATOM     25  C   UNL     1       1.867   7.980  20.181  0.00  0.00    +0.000 A 
ENDBRANCH  18  20
ENDBRANCH   2  18
BRANCH   3  26
ATOM     26  O   UNL     1      -0.591   9.658  23.871  0.00  0.00    +0.000 OA
ATOM     27  H   UNL     1       0.127  10.054  24.413  0.00  0.00    +0.000 HD
ENDBRANCH   3  26
BRANCH   6  28
ATOM     28  C   UNL     1      -2.702  13.444  21.481  0.00  0.00    +0.000 C 
BRANCH  28  29
ATOM     29  C   UNL     1      -4.068  12.980  20.987  0.00  0.00    +0.000 C 
BRANCH  29  30
ATOM     30  C   UNL     1      -4.330  12.590  19.560  0.00  0.00    +0.000 A 
ATOM     31  C   UNL     1      -5.467  13.047  18.906  0.00  0.00    +0.000 A 
ATOM     32  N   UNL     1      -5.805  12.024  18.083  0.00  0.00    +0.000 N 
ATOM     33  C   UNL     1      -4.635  11.531  17.566  0.00  0.00    +0.000 A 
ATOM     34  C   UNL     1      -4.401  10.849  16.372  0.00  0.00    +0.000 A 
ATOM     35  C   UNL     1      -3.093  10.432  16.138  0.00  0.00    +0.000 A 
ATOM     36  C   UNL     1      -2.123  10.580  17.129  0.00  0.00    +0.000 A 
ATOM     37  C   UNL     1      -2.406  11.198  18.365  0.00  0.00    +0.000 A 
ATOM     38  C   UNL     1      -3.684  11.773  18.570  0.00  0.00    +0.000 A 
ATOM     39  H   UNL     1      -6.735  11.674  17.904  0.00  0.00    +0.000 HD
ENDBRANCH  29  30
ENDBRANCH  28  29
ENDBRANCH   6  28
TORSDOF 8
ENDMDL
MODEL 5
REMARK VINA RESULT:      -7.2      3.608      8.409
REMARK  Name = 
REMARK  10 active torsions:
REMARK  status: ('A' for Active; 'I' for Inactive)
REMARK    1  A    between atoms: C_1  and  N_2
REMARK    2  A    between atoms: N_2  and  C_3
REMARK    3  A    between atoms: C_4  and  C_6
REMARK    4  A    between atoms: C_9  and  C_10
REMARK    5  A    between atoms: C_11  and  C_12
REMARK    6  A    between atoms: C_12  and  C_14
REMARK    7  A    between atoms: C_20  and  O_21
REMARK    8  A    between atoms: N_24  and  C_25
REMARK    9  A    between atoms: C_25  and  C_26
REMARK   10  A    between atoms: C_26  and  C_27
REMARK                            x       y       z     vdW  Elec       q    Type
REMARK                         _______ _______ _______ _____ _____    ______ ____
ROOT
ATOM      1  C   UNL     1       0.757  10.325  19.431  0.00  0.00    +0.000 C 
ATOM      2  C   UNL     1       0.845  10.712  20.878  0.00  0.00    +0.000 C 
ATOM      3  C   UNL     1       1.222   9.676  21.647  0.00  0.00    +0.000 C 
ATOM      4  C   UNL     1       1.499   8.535  20.742  0.00  0.00    +0.000 C 
ATOM      5  O   UNL     1       2.091   7.521  21.061  0.00  0.00    +0.000 OA
ATOM      6  N   UNL     1       0.995   8.887  19.495  0.00  0.00    +0.000 N 
ENDROOT
BRANCH   1  10
ATOM      7  C   UNL     1      -2.985  11.311  17.484  0.00  0.00    +0.000 A 
ATOM      8  C   UNL     1      -1.948  12.248  17.535  0.00  0.00    +0.000 A 
ATOM      9  C   UNL     1      -0.734  11.917  18.145  0.00  0.00    +0.000 A 
ATOM     10  C   UNL     1      -0.549  10.658  18.742  0.00  0.00    +0.000 A 
ATOM     11  C   UNL     1      -1.594   9.724  18.675  0.00  0.00    +0.000 A 
ATOM     12  C   UNL     1      -2.806  10.055  18.072  0.00  0.00    +0.000 A 
BRANCH   7  16
ATOM     13  C   UNL     1      -6.640  12.299  17.081  0.00  0.00    +0.000 C 
ATOM     14  N   UNL     1      -5.367  12.047  17.734  0.00  0.00    +0.000 N 
ATOM     15  C   UNL     1      -5.215  12.518  19.103  0.00  0.00    +0.000 C 
ATOM     16  C   UNL     1      -4.321  11.624  16.912  0.00  0.00    +0.000 C 
ATOM     17  O   UNL     1      -4.451  11.498  15.694  0.00  0.00    +0.000 OA
ENDBRANCH   7  16
ENDBRANCH   1  10
BRANCH   2  18
ATOM     18  C   UNL     1       0.401  11.953  21.541  0.00  0.00    +0.000 C 
ATOM     19  O   UNL     1       1.216  12.866  21.703  0.00  0.00    +0.000 OA
BRANCH  18  20
ATOM     20  C   UNL     1      -0.970  12.168  22.030  0.00  0.00    +0.000 A 
ATOM     21  C   UNL     1      -1.809  13.052  21.330  0.00  0.00    +0.000 A 
ATOM     22  C   UNL     1      -3.136  13.221  21.724  0.00  0.00    +0.000 A 
ATOM     23  C   UNL     1      -3.578  12.473  22.806  0.00  0.00    +0.000 A 
ATOM     24  N   UNL     1      -2.794  11.581  23.490  0.00  0.00    +0.000 NA
ATOM     25  C   UNL     1      -1.533  11.451  23.073  0.00  0.00    +0.000 A 
ENDBRANCH  18  20
ENDBRANCH   2  18
BRANCH   3  26
ATOM     26  O   UNL     1       1.308   9.614  23.006  0.00  0.00    +0.000 OA
ATOM     27  H   UNL     1       2.214   9.297  23.220  0.00  0.00    +0.000 HD
ENDBRANCH   3  26
BRANCH   6  28
ATOM     28  C   UNL     1       1.245   8.107  18.292  0.00  0.00    +0.000 C 
BRANCH  28  29
ATOM     29  C   UNL     1       2.689   7.865  17.866  0.00  0.00    +0.000 C 
BRANCH  29  30
ATOM     30  C   UNL     1       3.307   6.496  17.820  0.00  0.00    +0.000 A 
ATOM     31  C   UNL     1       4.680   6.353  17.680  0.00  0.00    +0.000 A 
ATOM     32  N   UNL     1       4.818   5.225  16.939  0.00  0.00    +0.000 N 
ATOM     33  C   UNL     1       3.886   4.333  17.402  0.00  0.00    +0.000 A 
ATOM     34  C   UNL     1       3.884   2.939  17.361  0.00  0.00    +0.000 A 
ATOM     35  C   UNL     1       2.761   2.302  17.883  0.00  0.00    +0.000 A 
ATOM     36  C   UNL     1       1.656   3.050  18.287  0.00  0.00    +0.000 A 
ATOM     37  C   UNL     1       1.650   4.460  18.239  0.00  0.00    +0.000 A 
ATOM     38  C   UNL     1       2.833   5.140  17.862  0.00  0.00    +0.000 A 
ATOM     39  H   UNL     1       5.463   5.078  16.176  0.00  0.00    +0.000 HD
ENDBRANCH  29  30
ENDBRANCH  28  29
ENDBRANCH   6  28
TORSDOF 8
ENDMDL
MODEL 6
REMARK VINA RESULT:      -7.2      2.465      6.778
REMARK  Name = 
REMARK  10 active torsions:
REMARK  status: ('A' for Active; 'I' for Inactive)
REMARK    1  A    between atoms: C_1  and  N_2
REMARK    2  A    between atoms: N_2  and  C_3
REMARK    3  A    between atoms: C_4  and  C_6
REMARK    4  A    between atoms: C_9  and  C_10
REMARK    5  A    between atoms: C_11  and  C_12
REMARK    6  A    between atoms: C_12  and  C_14
REMARK    7  A    between atoms: C_20  and  O_21
REMARK    8  A    between atoms: N_24  and  C_25
REMARK    9  A    between atoms: C_25  and  C_26
REMARK   10  A    between atoms: C_26  and  C_27
REMARK                            x       y       z     vdW  Elec       q    Type
REMARK                         _______ _______ _______ _____ _____    ______ ____
ROOT
ATOM      1  C   UNL     1      -3.578  14.383  22.095  0.00  0.00    +0.000 C 
ATOM      2  C   UNL     1      -4.975  14.001  22.482  0.00  0.00    +0.000 C 
ATOM      3  C   UNL     1      -5.406  14.702  23.545  0.00  0.00    +0.000 C 
ATOM      4  C   UNL     1      -4.342  15.676  23.890  0.00  0.00    +0.000 C 
ATOM      5  O   UNL     1      -4.484  16.628  24.632  0.00  0.00    +0.000 OA
ATOM      6  N   UNL     1      -3.213  15.298  23.172  0.00  0.00    +0.000 N 
ENDROOT
BRANCH   1  10
ATOM      7  C   UNL     1      -0.802  11.082  21.696  0.00  0.00    +0.000 A 
ATOM      8  C   UNL     1      -1.435  11.611  20.568  0.00  0.00    +0.000 A 
ATOM      9  C   UNL     1      -2.313  12.692  20.698  0.00  0.00    +0.000 A 
ATOM     10  C   UNL     1      -2.597  13.237  21.962  0.00  0.00    +0.000 A 
ATOM     11  C   UNL     1      -1.948  12.703  23.085  0.00  0.00    +0.000 A 
ATOM     12  C   UNL     1      -1.077  11.623  22.956  0.00  0.00    +0.000 A 
BRANCH   7  16
ATOM     13  C   UNL     1       1.458   8.279  20.457  0.00  0.00    +0.000 C 
ATOM     14  N   UNL     1       0.624   9.467  20.416  0.00  0.00    +0.000 N 
ATOM     15  C   UNL     1       0.652  10.259  19.194  0.00  0.00    +0.000 C 
ATOM     16  C   UNL     1       0.087   9.892  21.633  0.00  0.00    +0.000 C 
ATOM     17  O   UNL     1       0.327   9.315  22.693  0.00  0.00    +0.000 OA
ENDBRANCH   7  16
ENDBRANCH   1  10
BRANCH   2  18
ATOM     18  C   UNL     1      -5.804  12.880  21.999  0.00  0.00    +0.000 C 
ATOM     19  O   UNL     1      -6.234  12.061  22.818  0.00  0.00    +0.000 OA
BRANCH  18  20
ATOM     20  C   UNL     1      -6.150  12.675  20.584  0.00  0.00    +0.000 A 
ATOM     21  C   UNL     1      -6.525  11.389  20.157  0.00  0.00    +0.000 A 
ATOM     22  C   UNL     1      -6.930  11.177  18.839  0.00  0.00    +0.000 A 
ATOM     23  C   UNL     1      -6.960  12.281  17.999  0.00  0.00    +0.000 A 
ATOM     24  N   UNL     1      -6.630  13.552  18.393  0.00  0.00    +0.000 NA
ATOM     25  C   UNL     1      -6.253  13.705  19.664  0.00  0.00    +0.000 A 
ENDBRANCH  18  20
ENDBRANCH   2  18
BRANCH   3  26
ATOM     26  O   UNL     1      -6.569  14.560  24.242  0.00  0.00    +0.000 OA
ATOM     27  H   UNL     1      -6.747  13.595  24.306  0.00  0.00    +0.000 HD
ENDBRANCH   3  26
BRANCH   6  28
ATOM     28  C   UNL     1      -2.014  16.120  23.093  0.00  0.00    +0.000 C 
BRANCH  28  29
ATOM     29  C   UNL     1      -1.708  16.838  21.784  0.00  0.00    +0.000 C 
BRANCH  29  30
ATOM     30  C   UNL     1      -0.825  16.252  20.718  0.00  0.00    +0.000 A 
ATOM     31  C   UNL     1      -0.918  16.699  19.408  0.00  0.00    +0.000 A 
ATOM     32  N   UNL     1      -0.666  15.593  18.665  0.00  0.00    +0.000 N 
ATOM     33  C   UNL     1       0.351  14.921  19.292  0.00  0.00    +0.000 A 
ATOM     34  C   UNL     1       1.297  14.039  18.770  0.00  0.00    +0.000 A 
ATOM     35  C   UNL     1       2.190  13.474  19.676  0.00  0.00    +0.000 A 
ATOM     36  C   UNL     1       2.030  13.690  21.044  0.00  0.00    +0.000 A 
ATOM     37  C   UNL     1       1.010  14.520  21.555  0.00  0.00    +0.000 A 
ATOM     38  C   UNL     1       0.186  15.232  20.651  0.00  0.00    +0.000 A 
ATOM     39  H   UNL     1      -1.150  15.304  17.827  0.00  0.00    +0.000 HD
ENDBRANCH  29  30
ENDBRANCH  28  29
ENDBRANCH   6  28
TORSDOF 8
ENDMDL
MODEL 7
REMARK VINA RESULT:      -7.1      2.011      3.369
REMARK  Name = 
REMARK  10 active torsions:
REMARK  status: ('A' for Active; 'I' for Inactive)
REMARK    1  A    between atoms: C_1  and  N_2
REMARK    2  A    between atoms: N_2  and  C_3
REMARK    3  A    between atoms: C_4  and  C_6
REMARK    4  A    between atoms: C_9  and  C_10
REMARK    5  A    between atoms: C_11  and  C_12
REMARK    6  A    between atoms: C_12  and  C_14
REMARK    7  A    between atoms: C_20  and  O_21
REMARK    8  A    between atoms: N_24  and  C_25
REMARK    9  A    between atoms: C_25  and  C_26
REMARK   10  A    between atoms: C_26  and  C_27
REMARK                            x       y       z     vdW  Elec       q    Type
REMARK                         _______ _______ _______ _____ _____    ______ ____
ROOT
ATOM      1  C   UNL     1       0.815  12.764  20.830  0.00  0.00    +0.000 C 
ATOM      2  C   UNL     1       1.128  12.098  19.523  0.00  0.00    +0.000 C 
ATOM      3  C   UNL     1       1.827  12.907  18.708  0.00  0.00    +0.000 C 
ATOM      4  C   UNL     1       2.106  14.153  19.460  0.00  0.00    +0.000 C 
ATOM      5  O   UNL     1       2.916  14.998  19.130  0.00  0.00    +0.000 OA
ATOM      6  N   UNL     1       1.306  14.118  20.596  0.00  0.00    +0.000 N 
ENDROOT
BRANCH   1  10
ATOM      7  C   UNL     1      -3.351  12.674  22.015  0.00  0.00    +0.000 A 
ATOM      8  C   UNL     1      -2.366  12.151  22.858  0.00  0.00    +0.000 A 
ATOM      9  C   UNL     1      -1.020  12.203  22.482  0.00  0.00    +0.000 A 
ATOM     10  C   UNL     1      -0.642  12.747  21.242  0.00  0.00    +0.000 A 
ATOM     11  C   UNL     1      -1.639  13.277  20.409  0.00  0.00    +0.000 A 
ATOM     12  C   UNL     1      -2.980  13.221  20.782  0.00  0.00    +0.000 A 
BRANCH   7  16
ATOM     13  C   UNL     1      -7.140  12.465  21.710  0.00  0.00    +0.000 C 
ATOM     14  N   UNL     1      -5.748  12.516  21.301  0.00  0.00    +0.000 N 
ATOM     15  C   UNL     1      -5.449  12.208  19.910  0.00  0.00    +0.000 C 
ATOM     16  C   UNL     1      -4.802  12.589  22.326  0.00  0.00    +0.000 C 
ATOM     17  O   UNL     1      -5.119  12.578  23.515  0.00  0.00    +0.000 OA
ENDBRANCH   7  16
ENDBRANCH   1  10
BRANCH   2  18
ATOM     18  C   UNL     1       0.620  10.823  18.980  0.00  0.00    +0.000 C 
ATOM     19  O   UNL     1      -0.378  10.841  18.253  0.00  0.00    +0.000 OA
BRANCH  18  20
ATOM     20  C   UNL     1       1.238   9.517  19.259  0.00  0.00    +0.000 A 
ATOM     21  C   UNL     1       1.030   8.922  20.515  0.00  0.00    +0.000 A 
ATOM     22  C   UNL     1       1.540   7.652  20.784  0.00  0.00    +0.000 A 
ATOM     23  C   UNL     1       2.229   7.015  19.762  0.00  0.00    +0.000 A 
ATOM     24  N   UNL     1       2.421   7.555  18.517  0.00  0.00    +0.000 NA
ATOM     25  C   UNL     1       1.912   8.770  18.306  0.00  0.00    +0.000 A 
ENDBRANCH  18  20
ENDBRANCH   2  18
BRANCH   3  26
ATOM     26  O   UNL     1       2.197  12.694  17.413  0.00  0.00    +0.000 OA
ATOM     27  H   UNL     1       3.039  12.186  17.437  0.00  0.00    +0.000 HD
ENDBRANCH   3  26
BRANCH   6  28
ATOM     28  C   UNL     1       1.435  15.075  21.685  0.00  0.00    +0.000 C 
BRANCH  28  29
ATOM     29  C   UNL     1       0.366  16.151  21.842  0.00  0.00    +0.000 C 
BRANCH  29  30
ATOM     30  C   UNL     1      -0.707  16.088  22.892  0.00  0.00    +0.000 A 
ATOM     31  C   UNL     1      -0.368  15.944  24.230  0.00  0.00    +0.000 A 
ATOM     32  N   UNL     1      -1.373  15.190  24.743  0.00  0.00    +0.000 N 
ATOM     33  C   UNL     1      -2.535  15.646  24.177  0.00  0.00    +0.000 A 
ATOM     34  C   UNL     1      -3.845  15.589  24.653  0.00  0.00    +0.000 A 
ATOM     35  C   UNL     1      -4.833  16.106  23.821  0.00  0.00    +0.000 A 
ATOM     36  C   UNL     1      -4.515  16.521  22.528  0.00  0.00    +0.000 A 
ATOM     37  C   UNL     1      -3.193  16.488  22.038  0.00  0.00    +0.000 A 
ATOM     38  C   UNL     1      -2.144  16.116  22.914  0.00  0.00    +0.000 A 
ATOM     39  H   UNL     1      -1.281  14.425  25.395  0.00  0.00    +0.000 HD
ENDBRANCH  29  30
ENDBRANCH  28  29
ENDBRANCH   6  28
TORSDOF 8
ENDMDL
MODEL 8
REMARK VINA RESULT:      -7.1      2.535      8.523
REMARK  Name = 
REMARK  10 active torsions:
REMARK  status: ('A' for Active; 'I' for Inactive)
REMARK    1  A    between atoms: C_1  and  N_2
REMARK    2  A    between atoms: N_2  and  C_3
REMARK    3  A    between atoms: C_4  and  C_6
REMARK    4  A    between atoms: C_9  and  C_10
REMARK    5  A    between atoms: C_11  and  C_12
REMARK    6  A    between atoms: C_12  and  C_14
REMARK    7  A    between atoms: C_20  and  O_21
REMARK    8  A    between atoms: N_24  and  C_25
REMARK    9  A    between atoms: C_25  and  C_26
REMARK   10  A    between atoms: C_26  and  C_27
REMARK                            x       y       z     vdW  Elec       q    Type
REMARK                         _______ _______ _______ _____ _____    ______ ____
ROOT
ATOM      1  C   UNL     1      -0.083  11.437  19.583  0.00  0.00    +0.000 C 
ATOM      2  C   UNL     1      -1.474  11.994  19.525  0.00  0.00    +0.000 C 
ATOM      3  C   UNL     1      -2.181  11.461  18.514  0.00  0.00    +0.000 C 
ATOM      4  C   UNL     1      -1.326  10.434  17.874  0.00  0.00    +0.000 C 
ATOM      5  O   UNL     1      -1.719   9.588  17.093  0.00  0.00    +0.000 OA
ATOM      6  N   UNL     1      -0.043  10.618  18.377  0.00  0.00    +0.000 N 
ENDROOT
BRANCH   1  10
ATOM      7  C   UNL     1       3.128  14.344  19.648  0.00  0.00    +0.000 A 
ATOM      8  C   UNL     1       2.426  14.095  18.465  0.00  0.00    +0.000 A 
ATOM      9  C   UNL     1       1.374  13.173  18.455  0.00  0.00    +0.000 A 
ATOM     10  C   UNL     1       1.032  12.460  19.617  0.00  0.00    +0.000 A 
ATOM     11  C   UNL     1       1.739  12.726  20.799  0.00  0.00    +0.000 A 
ATOM     12  C   UNL     1       2.790  13.641  20.809  0.00  0.00    +0.000 A 
BRANCH   7  16
ATOM     13  C   UNL     1       5.322  17.448  19.867  0.00  0.00    +0.000 C 
ATOM     14  N   UNL     1       4.117  16.638  19.846  0.00  0.00    +0.000 N 
ATOM     15  C   UNL     1       2.874  17.281  20.245  0.00  0.00    +0.000 C 
ATOM     16  C   UNL     1       4.297  15.260  19.709  0.00  0.00    +0.000 C 
ATOM     17  O   UNL     1       5.414  14.747  19.642  0.00  0.00    +0.000 OA
ENDBRANCH   7  16
ENDBRANCH   1  10
BRANCH   2  18
ATOM     18  C   UNL     1      -2.057  13.129  20.267  0.00  0.00    +0.000 C 
ATOM     19  O   UNL     1      -1.817  14.278  19.882  0.00  0.00    +0.000 OA
BRANCH  18  20
ATOM     20  C   UNL     1      -2.913  12.973  21.453  0.00  0.00    +0.000 A 
ATOM     21  C   UNL     1      -2.350  13.165  22.726  0.00  0.00    +0.000 A 
ATOM     22  C   UNL     1      -3.151  13.097  23.866  0.00  0.00    +0.000 A 
ATOM     23  C   UNL     1      -4.504  12.855  23.678  0.00  0.00    +0.000 A 
ATOM     24  N   UNL     1      -5.088  12.694  22.449  0.00  0.00    +0.000 NA
ATOM     25  C   UNL     1      -4.282  12.772  21.388  0.00  0.00    +0.000 A 
ENDBRANCH  18  20
ENDBRANCH   2  18
BRANCH   3  26
ATOM     26  O   UNL     1      -3.432  11.792  18.085  0.00  0.00    +0.000 OA
ATOM     27  H   UNL     1      -3.347  12.631  17.579  0.00  0.00    +0.000 HD
ENDBRANCH   3  26
BRANCH   6  28
ATOM     28  C   UNL     1       1.044   9.680  18.135  0.00  0.00    +0.000 C 
BRANCH  28  29
ATOM     29  C   UNL     1       1.608   8.897  19.316  0.00  0.00    +0.000 C 
BRANCH  29  30
ATOM     30  C   UNL     1       2.275   7.559  19.164  0.00  0.00    +0.000 A 
ATOM     31  C   UNL     1       1.930   6.506  20.000  0.00  0.00    +0.000 A 
ATOM     32  N   UNL     1       3.090   5.823  20.163  0.00  0.00    +0.000 N 
ATOM     33  C   UNL     1       3.712   5.806  18.941  0.00  0.00    +0.000 A 
ATOM     34  C   UNL     1       4.632   4.897  18.418  0.00  0.00    +0.000 A 
ATOM     35  C   UNL     1       5.125   5.173  17.146  0.00  0.00    +0.000 A 
ATOM     36  C   UNL     1       4.805   6.374  16.515  0.00  0.00    +0.000 A 
ATOM     37  C   UNL     1       3.938   7.319  17.104  0.00  0.00    +0.000 A 
ATOM     38  C   UNL     1       3.297   6.997  18.324  0.00  0.00    +0.000 A 
ATOM     39  H   UNL     1       3.442   5.427  21.022  0.00  0.00    +0.000 HD
ENDBRANCH  29  30
ENDBRANCH  28  29
ENDBRANCH   6  28
TORSDOF 8
ENDMDL
MODEL 9
REMARK VINA RESULT:      -7.1      2.504      8.641
REMARK  Name = 
REMARK  10 active torsions:
REMARK  status: ('A' for Active; 'I' for Inactive)
REMARK    1  A    between atoms: C_1  and  N_2
REMARK    2  A    between atoms: N_2  and  C_3
REMARK    3  A    between atoms: C_4  and  C_6
REMARK    4  A    between atoms: C_9  and  C_10
REMARK    5  A    between atoms: C_11  and  C_12
REMARK    6  A    between atoms: C_12  and  C_14
REMARK    7  A    between atoms: C_20  and  O_21
REMARK    8  A    between atoms: N_24  and  C_25
REMARK    9  A    between atoms: C_25  and  C_26
REMARK   10  A    between atoms: C_26  and  C_27
REMARK                            x       y       z     vdW  Elec       q    Type
REMARK                         _______ _______ _______ _____ _____    ______ ____
ROOT
ATOM      1  C   UNL     1      -0.258  11.355  19.546  0.00  0.00    +0.000 C 
ATOM      2  C   UNL     1      -1.632  11.957  19.537  0.00  0.00    +0.000 C 
ATOM      3  C   UNL     1      -2.366  11.503  18.506  0.00  0.00    +0.000 C 
ATOM      4  C   UNL     1      -1.550  10.487  17.799  0.00  0.00    +0.000 C 
ATOM      5  O   UNL     1      -1.979   9.699  16.978  0.00  0.00    +0.000 OA
ATOM      6  N   UNL     1      -0.257  10.603  18.296  0.00  0.00    +0.000 N 
ENDROOT
BRANCH   1  10
ATOM      7  C   UNL     1       3.004  14.193  19.794  0.00  0.00    +0.000 A 
ATOM      8  C   UNL     1       2.618  13.463  20.922  0.00  0.00    +0.000 A 
ATOM      9  C   UNL     1       1.579  12.531  20.832  0.00  0.00    +0.000 A 
ATOM     10  C   UNL     1       0.889  12.339  19.622  0.00  0.00    +0.000 A 
ATOM     11  C   UNL     1       1.293  13.072  18.496  0.00  0.00    +0.000 A 
ATOM     12  C   UNL     1       2.325  14.004  18.587  0.00  0.00    +0.000 A 
BRANCH   7  16
ATOM     13  C   UNL     1       4.815  17.527  20.120  0.00  0.00    +0.000 C 
ATOM     14  N   UNL     1       3.721  16.571  20.127  0.00  0.00    +0.000 N 
ATOM     15  C   UNL     1       2.456  17.010  20.696  0.00  0.00    +0.000 C 
ATOM     16  C   UNL     1       4.053  15.245  19.841  0.00  0.00    +0.000 C 
ATOM     17  O   UNL     1       5.212  14.890  19.624  0.00  0.00    +0.000 OA
ENDBRANCH   7  16
ENDBRANCH   1  10
BRANCH   2  18
ATOM     18  C   UNL     1      -2.171  13.066  20.347  0.00  0.00    +0.000 C 
ATOM     19  O   UNL     1      -1.866  14.225  20.047  0.00  0.00    +0.000 OA
BRANCH  18  20
ATOM     20  C   UNL     1      -3.055  12.873  21.505  0.00  0.00    +0.000 A 
ATOM     21  C   UNL     1      -2.500  12.897  22.796  0.00  0.00    +0.000 A 
ATOM     22  C   UNL     1      -3.322  12.791  23.918  0.00  0.00    +0.000 A 
ATOM     23  C   UNL     1      -4.687  12.682  23.696  0.00  0.00    +0.000 A 
ATOM     24  N   UNL     1      -5.263  12.686  22.452  0.00  0.00    +0.000 NA
ATOM     25  C   UNL     1      -4.436  12.794  21.411  0.00  0.00    +0.000 A 
ENDBRANCH  18  20
ENDBRANCH   2  18
BRANCH   3  26
ATOM     26  O   UNL     1      -3.610  11.896  18.111  0.00  0.00    +0.000 OA
ATOM     27  H   UNL     1      -3.675  11.713  17.148  0.00  0.00    +0.000 HD
ENDBRANCH   3  26
BRANCH   6  28
ATOM     28  C   UNL     1       0.796   9.647  17.989  0.00  0.00    +0.000 C 
BRANCH  28  29
ATOM     29  C   UNL     1       1.441   8.879  19.138  0.00  0.00    +0.000 C 
BRANCH  29  30
ATOM     30  C   UNL     1       2.285   7.654  18.929  0.00  0.00    +0.000 A 
ATOM     31  C   UNL     1       3.293   7.652  17.975  0.00  0.00    +0.000 A 
ATOM     32  N   UNL     1       3.299   6.380  17.506  0.00  0.00    +0.000 N 
ATOM     33  C   UNL     1       3.117   5.560  18.589  0.00  0.00    +0.000 A 
ATOM     34  C   UNL     1       3.498   4.232  18.781  0.00  0.00    +0.000 A 
ATOM     35  C   UNL     1       3.129   3.646  19.989  0.00  0.00    +0.000 A 
ATOM     36  C   UNL     1       2.302   4.333  20.877  0.00  0.00    +0.000 A 
ATOM     37  C   UNL     1       1.858   5.647  20.620  0.00  0.00    +0.000 A 
ATOM     38  C   UNL     1       2.345   6.326  19.477  0.00  0.00    +0.000 A 
ATOM     39  H   UNL     1       3.393   6.091  16.543  0.00  0.00    +0.000 HD
ENDBRANCH  29  30
ENDBRANCH  28  29
ENDBRANCH   6  28
TORSDOF 8
ENDMDL
