MODEL 1
REMARK VINA RESULT:      -8.8      0.000      0.000
REMARK  Name = 
REMARK  4 active torsions:
REMARK  status: ('A' for Active; 'I' for Inactive)
REMARK    1  A    between atoms: C_1  and  C_2
REMARK    2  A    between atoms: N_4  and  C_5
REMARK    3  A    between atoms: N_4  and  C_6
REMARK    4  A    between atoms: C_10  and  N_11
REMARK                            x       y       z     vdW  Elec       q    Type
REMARK                         _______ _______ _______ _____ _____    ______ ____
ROOT
ATOM      1  N   UNL     1       2.222   6.435  20.201  0.00  0.00    +0.000 N 
ATOM      2  C   UNL     1       1.812   7.653  19.663  0.00  0.00    +0.000 A 
ATOM      3  N   UNL     1       2.084   7.886  18.380  0.00  0.00    +0.000 NA
ATOM      4  C   UNL     1       1.626   9.023  17.916  0.00  0.00    +0.000 A 
ATOM      5  N   UNL     1       0.963   9.920  18.621  0.00  0.00    +0.000 NA
ATOM      6  C   UNL     1       0.781   9.661  19.921  0.00  0.00    +0.000 A 
ATOM      7  N   UNL     1       0.369  10.740  20.688  0.00  0.00    +0.000 N 
ATOM      8  C   UNL     1       0.542  12.028  20.028  0.00  0.00    +0.000 C 
ATOM      9  C   UNL     1       0.854  13.137  21.017  0.00  0.00    +0.000 C 
ATOM     10  C   UNL     1      -0.146  13.164  22.127  0.00  0.00    +0.000 A 
ATOM     11  C   UNL     1      -0.394  14.401  22.731  0.00  0.00    +0.000 A 
ATOM     12  C   UNL     1      -1.614  14.615  23.343  0.00  0.00    +0.000 A 
ATOM     13  C   UNL     1      -2.524  13.563  23.429  0.00  0.00    +0.000 A 
ATOM     14  C   UNL     1      -2.174  12.265  23.007  0.00  0.00    +0.000 A 
ATOM     15  C   UNL     1      -0.952  12.036  22.358  0.00  0.00    +0.000 A 
ATOM     16  C   UNL     1      -0.468  10.651  21.887  0.00  0.00    +0.000 C 
ATOM     17  N   UNL     1       1.136   8.501  20.466  0.00  0.00    +0.000 NA
ATOM     18  H   UNL     1       2.024   6.402  21.192  0.00  0.00    +0.000 HD
ENDROOT
BRANCH   1  23
ATOM     19  C   UNL     1       5.401   5.316  18.640  0.00  0.00    +0.000 A 
ATOM     20  C   UNL     1       5.323   3.931  18.766  0.00  0.00    +0.000 A 
ATOM     21  C   UNL     1       4.241   3.369  19.444  0.00  0.00    +0.000 A 
ATOM     22  C   UNL     1       3.218   4.184  19.950  0.00  0.00    +0.000 A 
ATOM     23  C   UNL     1       3.248   5.573  19.771  0.00  0.00    +0.000 A 
ATOM     24  C   UNL     1       4.354   6.123  19.108  0.00  0.00    +0.000 A 
BRANCH  19  28
ATOM     25  C   UNL     1       5.295   6.042  15.847  0.00  0.00    +0.000 C 
ATOM     26  C   UNL     1       6.600   6.059  16.617  0.00  0.00    +0.000 C 
ATOM     27  O   UNL     1       7.659   6.271  16.027  0.00  0.00    +0.000 OA
ATOM     28  N   UNL     1       6.519   5.900  17.997  0.00  0.00    +0.000 N 
ATOM     29  C   UNL     1       7.722   6.021  18.811  0.00  0.00    +0.000 C 
ENDBRANCH  19  28
ENDBRANCH   1  23
TORSDOF 2
ENDMDL
MODEL 2
REMARK VINA RESULT:      -8.8      0.487      1.131
REMARK  Name = 
REMARK  4 active torsions:
REMARK  status: ('A' for Active; 'I' for Inactive)
REMARK    1  A    between atoms: C_1  and  C_2
REMARK    2  A    between atoms: N_4  and  C_5
REMARK    3  A    between atoms: N_4  and  C_6
REMARK    4  A    between atoms: C_10  and  N_11
REMARK                            x       y       z     vdW  Elec       q    Type
REMARK                         _______ _______ _______ _____ _____    ______ ____
ROOT
ATOM      1  N   UNL     1       2.299   6.578  20.064  0.00  0.00    +0.000 N 
ATOM      2  C   UNL     1       1.856   7.782  19.517  0.00  0.00    +0.000 A 
ATOM      3  N   UNL     1       2.021   7.965  18.207  0.00  0.00    +0.000 NA
ATOM      4  C   UNL     1       1.537   9.090  17.742  0.00  0.00    +0.000 A 
ATOM      5  N   UNL     1       0.946  10.021  18.467  0.00  0.00    +0.000 NA
ATOM      6  C   UNL     1       0.872   9.812  19.786  0.00  0.00    +0.000 A 
ATOM      7  N   UNL     1       0.538  10.923  20.544  0.00  0.00    +0.000 N 
ATOM      8  C   UNL     1       0.667  12.184  19.826  0.00  0.00    +0.000 C 
ATOM      9  C   UNL     1       1.072  13.323  20.743  0.00  0.00    +0.000 C 
ATOM     10  C   UNL     1       0.170  13.404  21.931  0.00  0.00    +0.000 A 
ATOM     11  C   UNL     1      -0.013  14.665  22.509  0.00  0.00    +0.000 A 
ATOM     12  C   UNL     1      -1.174  14.917  23.213  0.00  0.00    +0.000 A 
ATOM     13  C   UNL     1      -2.085  13.881  23.413  0.00  0.00    +0.000 A 
ATOM     14  C   UNL     1      -1.785  12.564  23.012  0.00  0.00    +0.000 A 
ATOM     15  C   UNL     1      -0.624  12.296  22.271  0.00  0.00    +0.000 A 
ATOM     16  C   UNL     1      -0.196  10.888  21.812  0.00  0.00    +0.000 C 
ATOM     17  N   UNL     1       1.259   8.667  20.342  0.00  0.00    +0.000 NA
ATOM     18  H   UNL     1       2.184   6.584  21.068  0.00  0.00    +0.000 HD
ENDROOT
BRANCH   1  23
ATOM     19  C   UNL     1       5.139   5.288  18.048  0.00  0.00    +0.000 A 
ATOM     20  C   UNL     1       5.213   3.958  18.455  0.00  0.00    +0.000 A 
ATOM     21  C   UNL     1       4.362   3.507  19.465  0.00  0.00    +0.000 A 
ATOM     22  C   UNL     1       3.409   4.368  20.029  0.00  0.00    +0.000 A 
ATOM     23  C   UNL     1       3.276   5.688  19.580  0.00  0.00    +0.000 A 
ATOM     24  C   UNL     1       4.154   6.132  18.582  0.00  0.00    +0.000 A 
BRANCH  19  28
ATOM     25  C   UNL     1       7.778   6.219  18.758  0.00  0.00    +0.000 C 
ATOM     26  C   UNL     1       7.215   6.432  17.367  0.00  0.00    +0.000 C 
ATOM     27  O   UNL     1       7.833   7.114  16.551  0.00  0.00    +0.000 OA
ATOM     28  N   UNL     1       6.030   5.769  17.059  0.00  0.00    +0.000 N 
ATOM     29  C   UNL     1       5.495   5.837  15.706  0.00  0.00    +0.000 C 
ENDBRANCH  19  28
ENDBRANCH   1  23
TORSDOF 2
ENDMDL
MODEL 3
REMARK VINA RESULT:      -8.7      0.922      1.017
REMARK  Name = 
REMARK  4 active torsions:
REMARK  status: ('A' for Active; 'I' for Inactive)
REMARK    1  A    between atoms: C_1  and  C_2
REMARK    2  A    between atoms: N_4  and  C_5
REMARK    3  A    between atoms: N_4  and  C_6
REMARK    4  A    between atoms: C_10  and  N_11
REMARK                            x       y       z     vdW  Elec       q    Type
REMARK                         _______ _______ _______ _____ _____    ______ ____
ROOT
ATOM      1  N   UNL     1       2.121   6.387  20.374  0.00  0.00    +0.000 N 
ATOM      2  C   UNL     1       1.903   7.589  19.701  0.00  0.00    +0.000 A 
ATOM      3  N   UNL     1       2.224   7.641  18.409  0.00  0.00    +0.000 NA
ATOM      4  C   UNL     1       1.946   8.777  17.817  0.00  0.00    +0.000 A 
ATOM      5  N   UNL     1       1.414   9.831  18.406  0.00  0.00    +0.000 NA
ATOM      6  C   UNL     1       1.178   9.742  19.720  0.00  0.00    +0.000 A 
ATOM      7  N   UNL     1       0.920  10.944  20.359  0.00  0.00    +0.000 N 
ATOM      8  C   UNL     1       1.290  12.116  19.576  0.00  0.00    +0.000 C 
ATOM      9  C   UNL     1       1.749  13.266  20.454  0.00  0.00    +0.000 C 
ATOM     10  C   UNL     1       0.748  13.557  21.525  0.00  0.00    +0.000 A 
ATOM     11  C   UNL     1       0.678  14.874  21.991  0.00  0.00    +0.000 A 
ATOM     12  C   UNL     1      -0.505  15.327  22.542  0.00  0.00    +0.000 A 
ATOM     13  C   UNL     1      -1.562  14.434  22.708  0.00  0.00    +0.000 A 
ATOM     14  C   UNL     1      -1.402  13.061  22.433  0.00  0.00    +0.000 A 
ATOM     15  C   UNL     1      -0.218  12.589  21.847  0.00  0.00    +0.000 A 
ATOM     16  C   UNL     1       0.062  11.106  21.536  0.00  0.00    +0.000 C 
ATOM     17  N   UNL     1       1.349   8.607  20.392  0.00  0.00    +0.000 NA
ATOM     18  H   UNL     1       1.906   6.490  21.356  0.00  0.00    +0.000 HD
ENDROOT
BRANCH   1  23
ATOM     19  C   UNL     1       5.134   4.662  19.056  0.00  0.00    +0.000 A 
ATOM     20  C   UNL     1       4.839   3.322  19.297  0.00  0.00    +0.000 A 
ATOM     21  C   UNL     1       3.663   2.995  19.973  0.00  0.00    +0.000 A 
ATOM     22  C   UNL     1       2.764   3.999  20.362  0.00  0.00    +0.000 A 
ATOM     23  C   UNL     1       3.014   5.345  20.065  0.00  0.00    +0.000 A 
ATOM     24  C   UNL     1       4.211   5.658  19.406  0.00  0.00    +0.000 A 
BRANCH  19  28
ATOM     25  C   UNL     1       5.548   4.091  16.256  0.00  0.00    +0.000 C 
ATOM     26  C   UNL     1       6.685   4.559  17.141  0.00  0.00    +0.000 C 
ATOM     27  O   UNL     1       7.834   4.590  16.702  0.00  0.00    +0.000 OA
ATOM     28  N   UNL     1       6.347   5.008  18.415  0.00  0.00    +0.000 N 
ATOM     29  C   UNL     1       7.375   5.579  19.276  0.00  0.00    +0.000 C 
ENDBRANCH  19  28
ENDBRANCH   1  23
TORSDOF 2
ENDMDL
MODEL 4
REMARK VINA RESULT:      -8.7      3.096      3.606
REMARK  Name = 
REMARK  4 active torsions:
REMARK  status: ('A' for Active; 'I' for Inactive)
REMARK    1  A    between atoms: C_1  and  C_2
REMARK    2  A    between atoms: N_4  and  C_5
REMARK    3  A    between atoms: N_4  and  C_6
REMARK    4  A    between atoms: C_10  and  N_11
REMARK                            x       y       z     vdW  Elec       q    Type
REMARK                         _______ _______ _______ _____ _____    ______ ____
ROOT
ATOM      1  N   UNL     1       1.617   7.876  17.722  0.00  0.00    +0.000 N 
ATOM      2  C   UNL     1       1.268   9.190  18.031  0.00  0.00    +0.000 A 
ATOM      3  N   UNL     1       2.243  10.016  18.410  0.00  0.00    +0.000 NA
ATOM      4  C   UNL     1       1.864  11.251  18.635  0.00  0.00    +0.000 A 
ATOM      5  N   UNL     1       0.626  11.696  18.536  0.00  0.00    +0.000 NA
ATOM      6  C   UNL     1      -0.320  10.804  18.219  0.00  0.00    +0.000 A 
ATOM      7  N   UNL     1      -1.624  11.224  18.428  0.00  0.00    +0.000 N 
ATOM      8  C   UNL     1      -1.731  12.408  19.271  0.00  0.00    +0.000 C 
ATOM      9  C   UNL     1      -2.999  12.401  20.105  0.00  0.00    +0.000 C 
ATOM     10  C   UNL     1      -4.203  12.167  19.250  0.00  0.00    +0.000 A 
ATOM     11  C   UNL     1      -5.412  12.721  19.685  0.00  0.00    +0.000 A 
ATOM     12  C   UNL     1      -6.390  13.009  18.754  0.00  0.00    +0.000 A 
ATOM     13  C   UNL     1      -6.186  12.651  17.422  0.00  0.00    +0.000 A 
ATOM     14  C   UNL     1      -5.057  11.900  17.038  0.00  0.00    +0.000 A 
ATOM     15  C   UNL     1      -4.041  11.623  17.965  0.00  0.00    +0.000 A 
ATOM     16  C   UNL     1      -2.785  10.787  17.649  0.00  0.00    +0.000 C 
ATOM     17  N   UNL     1      -0.025   9.549  17.893  0.00  0.00    +0.000 NA
ATOM     18  H   UNL     1       0.791   7.332  17.517  0.00  0.00    +0.000 HD
ENDROOT
BRANCH   1  23
ATOM     19  C   UNL     1       5.034   6.423  17.713  0.00  0.00    +0.000 A 
ATOM     20  C   UNL     1       5.006   5.589  18.829  0.00  0.00    +0.000 A 
ATOM     21  C   UNL     1       3.867   5.569  19.634  0.00  0.00    +0.000 A 
ATOM     22  C   UNL     1       2.745   6.341  19.299  0.00  0.00    +0.000 A 
ATOM     23  C   UNL     1       2.733   7.130  18.142  0.00  0.00    +0.000 A 
ATOM     24  C   UNL     1       3.894   7.158  17.357  0.00  0.00    +0.000 A 
BRANCH  19  28
ATOM     25  C   UNL     1       5.363   4.702  15.417  0.00  0.00    +0.000 C 
ATOM     26  C   UNL     1       6.510   5.539  15.945  0.00  0.00    +0.000 C 
ATOM     27  O   UNL     1       7.638   5.407  15.471  0.00  0.00    +0.000 OA
ATOM     28  N   UNL     1       6.202   6.488  16.917  0.00  0.00    +0.000 N 
ATOM     29  C   UNL     1       7.235   7.404  17.385  0.00  0.00    +0.000 C 
ENDBRANCH  19  28
ENDBRANCH   1  23
TORSDOF 2
ENDMDL
MODEL 5
REMARK VINA RESULT:      -8.0      3.104      3.676
REMARK  Name = 
REMARK  4 active torsions:
REMARK  status: ('A' for Active; 'I' for Inactive)
REMARK    1  A    between atoms: C_1  and  C_2
REMARK    2  A    between atoms: N_4  and  C_5
REMARK    3  A    between atoms: N_4  and  C_6
REMARK    4  A    between atoms: C_10  and  N_11
REMARK                            x       y       z     vdW  Elec       q    Type
REMARK                         _______ _______ _______ _____ _____    ______ ____
ROOT
ATOM      1  N   UNL     1       1.577   7.594  17.763  0.00  0.00    +0.000 N 
ATOM      2  C   UNL     1       1.276   8.926  18.044  0.00  0.00    +0.000 A 
ATOM      3  N   UNL     1       2.274   9.716  18.438  0.00  0.00    +0.000 NA
ATOM      4  C   UNL     1       1.942  10.969  18.635  0.00  0.00    +0.000 A 
ATOM      5  N   UNL     1       0.727  11.464  18.496  0.00  0.00    +0.000 NA
ATOM      6  C   UNL     1      -0.247  10.608  18.167  0.00  0.00    +0.000 A 
ATOM      7  N   UNL     1      -1.538  11.084  18.334  0.00  0.00    +0.000 N 
ATOM      8  C   UNL     1      -1.617  12.285  19.157  0.00  0.00    +0.000 C 
ATOM      9  C   UNL     1      -2.907  12.343  19.956  0.00  0.00    +0.000 C 
ATOM     10  C   UNL     1      -4.096  12.146  19.072  0.00  0.00    +0.000 A 
ATOM     11  C   UNL     1      -5.291  12.757  19.466  0.00  0.00    +0.000 A 
ATOM     12  C   UNL     1      -6.231  13.072  18.505  0.00  0.00    +0.000 A 
ATOM     13  C   UNL     1      -6.007  12.686  17.184  0.00  0.00    +0.000 A 
ATOM     14  C   UNL     1      -4.901  11.882  16.841  0.00  0.00    +0.000 A 
ATOM     15  C   UNL     1      -3.923  11.577  17.799  0.00  0.00    +0.000 A 
ATOM     16  C   UNL     1      -2.695  10.685  17.529  0.00  0.00    +0.000 C 
ATOM     17  N   UNL     1       0.003   9.336  17.866  0.00  0.00    +0.000 NA
ATOM     18  H   UNL     1       0.734   7.082  17.543  0.00  0.00    +0.000 HD
ENDROOT
BRANCH   1  23
ATOM     19  C   UNL     1       4.730   5.633  17.706  0.00  0.00    +0.000 A 
ATOM     20  C   UNL     1       4.800   5.143  19.009  0.00  0.00    +0.000 A 
ATOM     21  C   UNL     1       3.830   5.532  19.934  0.00  0.00    +0.000 A 
ATOM     22  C   UNL     1       2.770   6.365  19.546  0.00  0.00    +0.000 A 
ATOM     23  C   UNL     1       2.649   6.809  18.224  0.00  0.00    +0.000 A 
ATOM     24  C   UNL     1       3.645   6.429  17.313  0.00  0.00    +0.000 A 
BRANCH  19  28
ATOM     25  C   UNL     1       7.216   7.097  17.589  0.00  0.00    +0.000 C 
ATOM     26  C   UNL     1       6.845   6.088  16.522  0.00  0.00    +0.000 C 
ATOM     27  O   UNL     1       7.550   5.963  15.521  0.00  0.00    +0.000 OA
ATOM     28  N   UNL     1       5.735   5.286  16.773  0.00  0.00    +0.000 N 
ATOM     29  C   UNL     1       5.391   4.217  15.843  0.00  0.00    +0.000 C 
ENDBRANCH  19  28
ENDBRANCH   1  23
TORSDOF 2
ENDMDL
MODEL 6
REMARK VINA RESULT:      -8.0      3.681      9.945
REMARK  Name = 
REMARK  4 active torsions:
REMARK  status: ('A' for Active; 'I' for Inactive)
REMARK    1  A    between atoms: C_1  and  C_2
REMARK    2  A    between atoms: N_4  and  C_5
REMARK    3  A    between atoms: N_4  and  C_6
REMARK    4  A    between atoms: C_10  and  N_11
REMARK                            x       y       z     vdW  Elec       q    Type
REMARK                         _______ _______ _______ _____ _____    ______ ____
ROOT
ATOM      1  N   UNL     1       0.256  10.008  21.074  0.00  0.00    +0.000 N 
ATOM      2  C   UNL     1       0.986   9.433  20.035  0.00  0.00    +0.000 A 
ATOM      3  N   UNL     1       1.239  10.187  18.965  0.00  0.00    +0.000 NA
ATOM      4  C   UNL     1       1.974   9.611  18.046  0.00  0.00    +0.000 A 
ATOM      5  N   UNL     1       2.435   8.376  18.104  0.00  0.00    +0.000 NA
ATOM      6  C   UNL     1       2.090   7.645  19.169  0.00  0.00    +0.000 A 
ATOM      7  N   UNL     1       2.319   6.283  19.054  0.00  0.00    +0.000 N 
ATOM      8  C   UNL     1       2.565   5.844  17.687  0.00  0.00    +0.000 C 
ATOM      9  C   UNL     1       2.050   4.438  17.439  0.00  0.00    +0.000 C 
ATOM     10  C   UNL     1       2.564   3.488  18.472  0.00  0.00    +0.000 A 
ATOM     11  C   UNL     1       2.723   2.152  18.088  0.00  0.00    +0.000 A 
ATOM     12  C   UNL     1       3.645   1.369  18.753  0.00  0.00    +0.000 A 
ATOM     13  C   UNL     1       4.321   1.899  19.850  0.00  0.00    +0.000 A 
ATOM     14  C   UNL     1       3.992   3.173  20.357  0.00  0.00    +0.000 A 
ATOM     15  C   UNL     1       3.079   3.992  19.678  0.00  0.00    +0.000 A 
ATOM     16  C   UNL     1       2.635   5.384  20.168  0.00  0.00    +0.000 C 
ATOM     17  N   UNL     1       1.417   8.164  20.193  0.00  0.00    +0.000 NA
ATOM     18  H   UNL     1       0.069   9.323  21.793  0.00  0.00    +0.000 HD
ENDROOT
BRANCH   1  23
ATOM     19  C   UNL     1      -1.698  12.946  22.233  0.00  0.00    +0.000 A 
ATOM     20  C   UNL     1      -2.481  13.241  21.119  0.00  0.00    +0.000 A 
ATOM     21  C   UNL     1      -2.302  12.505  19.948  0.00  0.00    +0.000 A 
ATOM     22  C   UNL     1      -1.380  11.448  19.905  0.00  0.00    +0.000 A 
ATOM     23  C   UNL     1      -0.636  11.095  21.038  0.00  0.00    +0.000 A 
ATOM     24  C   UNL     1      -0.810  11.860  22.200  0.00  0.00    +0.000 A 
BRANCH  19  28
ATOM     25  C   UNL     1      -3.842  12.436  24.099  0.00  0.00    +0.000 C 
ATOM     26  C   UNL     1      -2.967  13.666  24.222  0.00  0.00    +0.000 C 
ATOM     27  O   UNL     1      -3.235  14.532  25.055  0.00  0.00    +0.000 OA
ATOM     28  N   UNL     1      -1.836  13.718  23.411  0.00  0.00    +0.000 N 
ATOM     29  C   UNL     1      -0.889  14.816  23.561  0.00  0.00    +0.000 C 
ENDBRANCH  19  28
ENDBRANCH   1  23
TORSDOF 2
ENDMDL
MODEL 7
REMARK VINA RESULT:      -7.8      3.280      9.976
REMARK  Name = 
REMARK  4 active torsions:
REMARK  status: ('A' for Active; 'I' for Inactive)
REMARK    1  A    between atoms: C_1  and  C_2
REMARK    2  A    between atoms: N_4  and  C_5
REMARK    3  A    between atoms: N_4  and  C_6
REMARK    4  A    between atoms: C_10  and  N_11
REMARK                            x       y       z     vdW  Elec       q    Type
REMARK                         _______ _______ _______ _____ _____    ______ ____
ROOT
ATOM      1  N   UNL     1       0.838  10.546  19.168  0.00  0.00    +0.000 N 
ATOM      2  C   UNL     1       1.269   9.267  19.515  0.00  0.00    +0.000 A 
ATOM      3  N   UNL     1       0.797   8.740  20.645  0.00  0.00    +0.000 NA
ATOM      4  C   UNL     1       1.194   7.516  20.891  0.00  0.00    +0.000 A 
ATOM      5  N   UNL     1       2.015   6.816  20.132  0.00  0.00    +0.000 NA
ATOM      6  C   UNL     1       2.510   7.422  19.047  0.00  0.00    +0.000 A 
ATOM      7  N   UNL     1       3.591   6.789  18.455  0.00  0.00    +0.000 N 
ATOM      8  C   UNL     1       4.215   5.780  19.301  0.00  0.00    +0.000 C 
ATOM      9  C   UNL     1       5.710   5.677  19.057  0.00  0.00    +0.000 C 
ATOM     10  C   UNL     1       6.006   5.501  17.603  0.00  0.00    +0.000 A 
ATOM     11  C   UNL     1       7.169   4.799  17.270  0.00  0.00    +0.000 A 
ATOM     12  C   UNL     1       7.235   4.153  16.051  0.00  0.00    +0.000 A 
ATOM     13  C   UNL     1       6.184   4.299  15.148  0.00  0.00    +0.000 A 
ATOM     14  C   UNL     1       5.119   5.184  15.411  0.00  0.00    +0.000 A 
ATOM     15  C   UNL     1       5.022   5.826  16.654  0.00  0.00    +0.000 A 
ATOM     16  C   UNL     1       3.914   6.830  17.026  0.00  0.00    +0.000 C 
ATOM     17  N   UNL     1       2.106   8.632  18.669  0.00  0.00    +0.000 NA
ATOM     18  H   UNL     1       1.313  10.864  18.335  0.00  0.00    +0.000 HD
ENDROOT
BRANCH   1  23
ATOM     19  C   UNL     1      -1.620  12.689  20.945  0.00  0.00    +0.000 A 
ATOM     20  C   UNL     1      -0.804  13.648  21.541  0.00  0.00    +0.000 A 
ATOM     21  C   UNL     1       0.581  13.536  21.414  0.00  0.00    +0.000 A 
ATOM     22  C   UNL     1       1.144  12.499  20.654  0.00  0.00    +0.000 A 
ATOM     23  C   UNL     1       0.333  11.569  19.993  0.00  0.00    +0.000 A 
ATOM     24  C   UNL     1      -1.055  11.681  20.151  0.00  0.00    +0.000 A 
BRANCH  19  28
ATOM     25  C   UNL     1      -2.811  12.661  23.576  0.00  0.00    +0.000 C 
ATOM     26  C   UNL     1      -3.658  12.530  22.326  0.00  0.00    +0.000 C 
ATOM     27  O   UNL     1      -4.861  12.290  22.421  0.00  0.00    +0.000 OA
ATOM     28  N   UNL     1      -3.024  12.764  21.109  0.00  0.00    +0.000 N 
ATOM     29  C   UNL     1      -3.804  12.769  19.878  0.00  0.00    +0.000 C 
ENDBRANCH  19  28
ENDBRANCH   1  23
TORSDOF 2
ENDMDL
MODEL 8
REMARK VINA RESULT:      -7.8      3.273      9.886
REMARK  Name = 
REMARK  4 active torsions:
REMARK  status: ('A' for Active; 'I' for Inactive)
REMARK    1  A    between atoms: C_1  and  C_2
REMARK    2  A    between atoms: N_4  and  C_5
REMARK    3  A    between atoms: N_4  and  C_6
REMARK    4  A    between atoms: C_10  and  N_11
REMARK                            x       y       z     vdW  Elec       q    Type
REMARK                         _______ _______ _______ _____ _____    ______ ____
ROOT
ATOM      1  N   UNL     1       0.919  10.533  19.381  0.00  0.00    +0.000 N 
ATOM      2  C   UNL     1       1.318   9.229  19.667  0.00  0.00    +0.000 A 
ATOM      3  N   UNL     1       0.829   8.660  20.769  0.00  0.00    +0.000 NA
ATOM      4  C   UNL     1       1.196   7.416  20.956  0.00  0.00    +0.000 A 
ATOM      5  N   UNL     1       2.004   6.734  20.167  0.00  0.00    +0.000 NA
ATOM      6  C   UNL     1       2.518   7.380  19.115  0.00  0.00    +0.000 A 
ATOM      7  N   UNL     1       3.586   6.750  18.496  0.00  0.00    +0.000 N 
ATOM      8  C   UNL     1       4.183   5.687  19.295  0.00  0.00    +0.000 C 
ATOM      9  C   UNL     1       5.675   5.561  19.051  0.00  0.00    +0.000 C 
ATOM     10  C   UNL     1       5.974   5.449  17.591  0.00  0.00    +0.000 A 
ATOM     11  C   UNL     1       7.121   4.736  17.227  0.00  0.00    +0.000 A 
ATOM     12  C   UNL     1       7.177   4.147  15.979  0.00  0.00    +0.000 A 
ATOM     13  C   UNL     1       6.133   4.362  15.080  0.00  0.00    +0.000 A 
ATOM     14  C   UNL     1       5.088   5.258  15.383  0.00  0.00    +0.000 A 
ATOM     15  C   UNL     1       5.002   5.842  16.656  0.00  0.00    +0.000 A 
ATOM     16  C   UNL     1       3.916   6.853  17.072  0.00  0.00    +0.000 C 
ATOM     17  N   UNL     1       2.143   8.616  18.794  0.00  0.00    +0.000 NA
ATOM     18  H   UNL     1       1.405  10.880  18.565  0.00  0.00    +0.000 HD
ENDROOT
BRANCH   1  23
ATOM     19  C   UNL     1      -1.398  12.345  21.648  0.00  0.00    +0.000 A 
ATOM     20  C   UNL     1      -0.687  13.510  21.932  0.00  0.00    +0.000 A 
ATOM     21  C   UNL     1       0.604  13.658  21.427  0.00  0.00    +0.000 A 
ATOM     22  C   UNL     1       1.164  12.670  20.602  0.00  0.00    +0.000 A 
ATOM     23  C   UNL     1       0.435  11.527  20.252  0.00  0.00    +0.000 A 
ATOM     24  C   UNL     1      -0.852  11.382  20.787  0.00  0.00    +0.000 A 
BRANCH  19  28
ATOM     25  C   UNL     1      -3.761  12.710  20.029  0.00  0.00    +0.000 C 
ATOM     26  C   UNL     1      -3.854  12.540  21.532  0.00  0.00    +0.000 C 
ATOM     27  O   UNL     1      -4.937  12.674  22.101  0.00  0.00    +0.000 OA
ATOM     28  N   UNL     1      -2.690  12.162  22.196  0.00  0.00    +0.000 N 
ATOM     29  C   UNL     1      -2.735  11.869  23.623  0.00  0.00    +0.000 C 
ENDBRANCH  19  28
ENDBRANCH   1  23
TORSDOF 2
ENDMDL
MODEL 9
REMARK VINA RESULT:      -7.8      3.442      9.790
REMARK  Name = 
REMARK  4 active torsions:
REMARK  status: ('A' for Active; 'I' for Inactive)
REMARK    1  A    between atoms: C_1  and  C_2
REMARK    2  A    between atoms: N_4  and  C_5
REMARK    3  A    between atoms: N_4  and  C_6
REMARK    4  A    between atoms: C_10  and  N_11
REMARK                            x       y       z     vdW  Elec       q    Type
REMARK                         _______ _______ _______ _____ _____    ______ ____
ROOT
ATOM      1  N   UNL     1       0.281   9.836  20.839  0.00  0.00    +0.000 N 
ATOM      2  C   UNL     1       1.065   9.255  19.843  0.00  0.00    +0.000 A 
ATOM      3  N   UNL     1       1.368  10.000  18.780  0.00  0.00    +0.000 NA
ATOM      4  C   UNL     1       2.152   9.420  17.905  0.00  0.00    +0.000 A 
ATOM      5  N   UNL     1       2.617   8.189  17.999  0.00  0.00    +0.000 NA
ATOM      6  C   UNL     1       2.222   7.466  19.053  0.00  0.00    +0.000 A 
ATOM      7  N   UNL     1       2.466   6.105  18.964  0.00  0.00    +0.000 N 
ATOM      8  C   UNL     1       2.783   5.653  17.615  0.00  0.00    +0.000 C 
ATOM      9  C   UNL     1       2.290   4.241  17.357  0.00  0.00    +0.000 C 
ATOM     10  C   UNL     1       2.757   3.305  18.424  0.00  0.00    +0.000 A 
ATOM     11  C   UNL     1       2.943   1.967  18.061  0.00  0.00    +0.000 A 
ATOM     12  C   UNL     1       3.835   1.196  18.780  0.00  0.00    +0.000 A 
ATOM     13  C   UNL     1       4.452   1.742  19.905  0.00  0.00    +0.000 A 
ATOM     14  C   UNL     1       4.090   3.018  20.382  0.00  0.00    +0.000 A 
ATOM     15  C   UNL     1       3.207   3.825  19.649  0.00  0.00    +0.000 A 
ATOM     16  C   UNL     1       2.730   5.219  20.101  0.00  0.00    +0.000 C 
ATOM     17  N   UNL     1       1.495   7.991  20.036  0.00  0.00    +0.000 NA
ATOM     18  H   UNL     1       0.061   9.157  21.555  0.00  0.00    +0.000 HD
ENDROOT
BRANCH   1  23
ATOM     19  C   UNL     1      -1.733  12.783  21.863  0.00  0.00    +0.000 A 
ATOM     20  C   UNL     1      -2.474  13.052  20.714  0.00  0.00    +0.000 A 
ATOM     21  C   UNL     1      -2.245  12.294  19.565  0.00  0.00    +0.000 A 
ATOM     22  C   UNL     1      -1.317  11.243  19.579  0.00  0.00    +0.000 A 
ATOM     23  C   UNL     1      -0.615  10.917  20.747  0.00  0.00    +0.000 A 
ATOM     24  C   UNL     1      -0.839  11.703  21.886  0.00  0.00    +0.000 A 
BRANCH  19  28
ATOM     25  C   UNL     1       0.059  14.964  22.474  0.00  0.00    +0.000 C 
ATOM     26  C   UNL     1      -0.970  14.485  23.477  0.00  0.00    +0.000 C 
ATOM     27  O   UNL     1      -0.977  14.945  24.619  0.00  0.00    +0.000 OA
ATOM     28  N   UNL     1      -1.921  13.577  23.019  0.00  0.00    +0.000 N 
ATOM     29  C   UNL     1      -3.008  13.164  23.899  0.00  0.00    +0.000 C 
ENDBRANCH  19  28
ENDBRANCH   1  23
TORSDOF 2
ENDMDL
