MODEL 1
REMARK VINA RESULT:      -8.8      0.000      0.000
REMARK  Name = 
REMARK  8 active torsions:
REMARK  status: ('A' for Active; 'I' for Inactive)
REMARK    1  A    between atoms: C_1  and  C_2
REMARK    2  A    between atoms: C_2  and  C_3
REMARK    3  A    between atoms: C_3  and  C_4
REMARK    4  A    between atoms: C_4  and  N_5
REMARK    5  A    between atoms: C_7  and  C_8
REMARK    6  A    between atoms: C_8  and  O_10
REMARK    7  A    between atoms: O_10  and  C_11
REMARK    8  A    between atoms: C_15  and  C_16
REMARK                            x       y       z     vdW  Elec       q    Type
REMARK                         _______ _______ _______ _____ _____    ______ ____
ROOT
ATOM      1  N   UNL     1       5.962   4.089  14.935  0.00  0.00    +0.000 N 
ATOM      2  N   UNL     1       5.021   3.438  15.709  0.00  0.00    +0.000 NA
ATOM      3  C   UNL     1       4.963   3.704  16.987  0.00  0.00    +0.000 A 
ATOM      4  C   UNL     1       5.856   4.674  17.653  0.00  0.00    +0.000 A 
ATOM      5  C   UNL     1       5.879   4.903  19.035  0.00  0.00    +0.000 A 
ATOM      6  C   UNL     1       6.884   5.690  19.606  0.00  0.00    +0.000 A 
ATOM      7  C   UNL     1       7.826   6.322  18.803  0.00  0.00    +0.000 A 
ATOM      8  C   UNL     1       7.762   6.166  17.426  0.00  0.00    +0.000 A 
ATOM      9  C   UNL     1       6.794   5.318  16.858  0.00  0.00    +0.000 A 
ATOM     10  C   UNL     1       6.845   5.050  15.415  0.00  0.00    +0.000 A 
ATOM     11  O   UNL     1       7.677   5.635  14.721  0.00  0.00    +0.000 OA
ENDROOT
BRANCH   3  12
ATOM     12  C   UNL     1       3.903   2.965  17.834  0.00  0.00    +0.000 C 
ATOM     13  O   UNL     1       4.181   2.158  18.707  0.00  0.00    +0.000 OA
BRANCH  12  14
ATOM     14  O   UNL     1       2.644   3.467  17.560  0.00  0.00    +0.000 OA
BRANCH  14  15
ATOM     15  C   UNL     1       2.365   4.655  18.255  0.00  0.00    +0.000 A 
ATOM     16  C   UNL     1       2.006   4.619  19.606  0.00  0.00    +0.000 A 
ATOM     17  C   UNL     1       1.780   5.800  20.313  0.00  0.00    +0.000 A 
ATOM     18  C   UNL     1       1.878   7.040  19.682  0.00  0.00    +0.000 A 
ATOM     19  C   UNL     1       1.569   8.312  20.348  0.00  0.00    +0.000 A 
ATOM     20  C   UNL     1       1.191   8.396  21.800  0.00  0.00    +0.000 C 
ATOM     21  C   UNL     1       1.598   9.431  19.610  0.00  0.00    +0.000 A 
ATOM     22  C   UNL     1       1.954   9.460  18.184  0.00  0.00    +0.000 A 
ATOM     23  O   UNL     1       1.924  10.516  17.551  0.00  0.00    +0.000 OA
ATOM     24  O   UNL     1       2.337   8.261  17.609  0.00  0.00    +0.000 OA
ATOM     25  C   UNL     1       2.256   7.050  18.332  0.00  0.00    +0.000 A 
ATOM     26  C   UNL     1       2.526   5.876  17.614  0.00  0.00    +0.000 A 
ENDBRANCH  14  15
ENDBRANCH  12  14
ENDBRANCH   3  12
BRANCH   1  27
ATOM     27  C   UNL     1       6.168   3.594  13.573  0.00  0.00    +0.000 C 
BRANCH  27  28
ATOM     28  C   UNL     1       5.001   3.996  12.665  0.00  0.00    +0.000 C 
BRANCH  28  30
ATOM     29  C   UNL     1       3.512   3.324  10.753  0.00  0.00    +0.000 C 
ATOM     30  C   UNL     1       4.744   2.963  11.569  0.00  0.00    +0.000 C 
ENDBRANCH  28  30
ENDBRANCH  27  28
ENDBRANCH   1  27
TORSDOF 6
ENDMDL
MODEL 2
REMARK VINA RESULT:      -8.2      2.994      5.441
REMARK  Name = 
REMARK  8 active torsions:
REMARK  status: ('A' for Active; 'I' for Inactive)
REMARK    1  A    between atoms: C_1  and  C_2
REMARK    2  A    between atoms: C_2  and  C_3
REMARK    3  A    between atoms: C_3  and  C_4
REMARK    4  A    between atoms: C_4  and  N_5
REMARK    5  A    between atoms: C_7  and  C_8
REMARK    6  A    between atoms: C_8  and  O_10
REMARK    7  A    between atoms: O_10  and  C_11
REMARK    8  A    between atoms: C_15  and  C_16
REMARK                            x       y       z     vdW  Elec       q    Type
REMARK                         _______ _______ _______ _____ _____    ______ ____
ROOT
ATOM      1  N   UNL     1       4.290   5.846  17.252  0.00  0.00    +0.000 N 
ATOM      2  N   UNL     1       3.656   6.787  18.041  0.00  0.00    +0.000 NA
ATOM      3  C   UNL     1       2.728   6.390  18.870  0.00  0.00    +0.000 A 
ATOM      4  C   UNL     1       2.320   4.978  19.013  0.00  0.00    +0.000 A 
ATOM      5  C   UNL     1       1.262   4.542  19.822  0.00  0.00    +0.000 A 
ATOM      6  C   UNL     1       0.815   3.218  19.752  0.00  0.00    +0.000 A 
ATOM      7  C   UNL     1       1.465   2.298  18.938  0.00  0.00    +0.000 A 
ATOM      8  C   UNL     1       2.564   2.702  18.194  0.00  0.00    +0.000 A 
ATOM      9  C   UNL     1       2.969   4.048  18.212  0.00  0.00    +0.000 A 
ATOM     10  C   UNL     1       4.036   4.481  17.301  0.00  0.00    +0.000 A 
ATOM     11  O   UNL     1       4.610   3.644  16.602  0.00  0.00    +0.000 OA
ENDROOT
BRANCH   3  12
ATOM     12  C   UNL     1       2.032   7.458  19.744  0.00  0.00    +0.000 C 
ATOM     13  O   UNL     1       1.541   7.219  20.836  0.00  0.00    +0.000 OA
BRANCH  12  14
ATOM     14  O   UNL     1       2.191   8.709  19.180  0.00  0.00    +0.000 OA
BRANCH  14  15
ATOM     15  C   UNL     1       1.001   9.455  19.158  0.00  0.00    +0.000 A 
ATOM     16  C   UNL     1       0.649  10.260  20.245  0.00  0.00    +0.000 A 
ATOM     17  C   UNL     1      -0.505  11.044  20.205  0.00  0.00    +0.000 A 
ATOM     18  C   UNL     1      -1.346  11.021  19.092  0.00  0.00    +0.000 A 
ATOM     19  C   UNL     1      -2.616  11.756  19.024  0.00  0.00    +0.000 A 
ATOM     20  C   UNL     1      -3.087  12.664  20.125  0.00  0.00    +0.000 C 
ATOM     21  C   UNL     1      -3.390  11.573  17.945  0.00  0.00    +0.000 A 
ATOM     22  C   UNL     1      -3.024  10.708  16.814  0.00  0.00    +0.000 A 
ATOM     23  O   UNL     1      -3.797  10.550  15.869  0.00  0.00    +0.000 OA
ATOM     24  O   UNL     1      -1.778  10.107  16.862  0.00  0.00    +0.000 OA
ATOM     25  C   UNL     1      -0.961  10.219  18.008  0.00  0.00    +0.000 A 
ATOM     26  C   UNL     1       0.214   9.454  18.013  0.00  0.00    +0.000 A 
ENDBRANCH  14  15
ENDBRANCH  12  14
ENDBRANCH   3  12
BRANCH   1  27
ATOM     27  C   UNL     1       5.138   6.344  16.168  0.00  0.00    +0.000 C 
BRANCH  27  28
ATOM     28  C   UNL     1       6.604   5.968  16.405  0.00  0.00    +0.000 C 
BRANCH  28  30
ATOM     29  C   UNL     1       7.679   6.182  18.669  0.00  0.00    +0.000 C 
ATOM     30  C   UNL     1       7.286   6.913  17.393  0.00  0.00    +0.000 C 
ENDBRANCH  28  30
ENDBRANCH  27  28
ENDBRANCH   1  27
TORSDOF 6
ENDMDL
MODEL 3
REMARK VINA RESULT:      -7.9      2.660      5.303
REMARK  Name = 
REMARK  8 active torsions:
REMARK  status: ('A' for Active; 'I' for Inactive)
REMARK    1  A    between atoms: C_1  and  C_2
REMARK    2  A    between atoms: C_2  and  C_3
REMARK    3  A    between atoms: C_3  and  C_4
REMARK    4  A    between atoms: C_4  and  N_5
REMARK    5  A    between atoms: C_7  and  C_8
REMARK    6  A    between atoms: C_8  and  O_10
REMARK    7  A    between atoms: O_10  and  C_11
REMARK    8  A    between atoms: C_15  and  C_16
REMARK                            x       y       z     vdW  Elec       q    Type
REMARK                         _______ _______ _______ _____ _____    ______ ____
ROOT
ATOM      1  N   UNL     1       4.964   5.865  17.027  0.00  0.00    +0.000 N 
ATOM      2  N   UNL     1       4.131   6.820  17.578  0.00  0.00    +0.000 NA
ATOM      3  C   UNL     1       3.038   6.430  18.179  0.00  0.00    +0.000 A 
ATOM      4  C   UNL     1       2.645   5.012  18.304  0.00  0.00    +0.000 A 
ATOM      5  C   UNL     1       1.432   4.577  18.856  0.00  0.00    +0.000 A 
ATOM      6  C   UNL     1       1.051   3.235  18.760  0.00  0.00    +0.000 A 
ATOM      7  C   UNL     1       1.905   2.300  18.187  0.00  0.00    +0.000 A 
ATOM      8  C   UNL     1       3.142   2.708  17.710  0.00  0.00    +0.000 A 
ATOM      9  C   UNL     1       3.495   4.069  17.744  0.00  0.00    +0.000 A 
ATOM     10  C   UNL     1       4.742   4.495  17.096  0.00  0.00    +0.000 A 
ATOM     11  O   UNL     1       5.491   3.646  16.611  0.00  0.00    +0.000 OA
ENDROOT
BRANCH   3  12
ATOM     12  C   UNL     1       2.121   7.514  18.790  0.00  0.00    +0.000 C 
ATOM     13  O   UNL     1       2.102   7.788  19.979  0.00  0.00    +0.000 OA
BRANCH  12  14
ATOM     14  O   UNL     1       1.468   8.202  17.785  0.00  0.00    +0.000 OA
BRANCH  14  15
ATOM     15  C   UNL     1       1.215   9.544  18.115  0.00  0.00    +0.000 A 
ATOM     16  C   UNL     1      -0.018   9.921  18.656  0.00  0.00    +0.000 A 
ATOM     17  C   UNL     1      -0.253  11.243  19.035  0.00  0.00    +0.000 A 
ATOM     18  C   UNL     1       0.725  12.222  18.856  0.00  0.00    +0.000 A 
ATOM     19  C   UNL     1       0.507  13.644  19.155  0.00  0.00    +0.000 A 
ATOM     20  C   UNL     1      -0.770  14.161  19.754  0.00  0.00    +0.000 C 
ATOM     21  C   UNL     1       1.485  14.507  18.843  0.00  0.00    +0.000 A 
ATOM     22  C   UNL     1       2.770  14.107  18.254  0.00  0.00    +0.000 A 
ATOM     23  O   UNL     1       3.614  14.953  17.953  0.00  0.00    +0.000 OA
ATOM     24  O   UNL     1       2.985  12.752  18.076  0.00  0.00    +0.000 OA
ATOM     25  C   UNL     1       1.957  11.815  18.328  0.00  0.00    +0.000 A 
ATOM     26  C   UNL     1       2.228  10.484  17.978  0.00  0.00    +0.000 A 
ENDBRANCH  14  15
ENDBRANCH  12  14
ENDBRANCH   3  12
BRANCH   1  27
ATOM     27  C   UNL     1       6.039   6.339  16.154  0.00  0.00    +0.000 C 
BRANCH  27  28
ATOM     28  C   UNL     1       7.409   6.096  16.795  0.00  0.00    +0.000 C 
BRANCH  28  30
ATOM     29  C   UNL     1       7.830   8.423  17.651  0.00  0.00    +0.000 C 
ATOM     30  C   UNL     1       7.626   6.964  18.033  0.00  0.00    +0.000 C 
ENDBRANCH  28  30
ENDBRANCH  27  28
ENDBRANCH   1  27
TORSDOF 6
ENDMDL
MODEL 4
REMARK VINA RESULT:      -7.8      3.052      5.765
REMARK  Name = 
REMARK  8 active torsions:
REMARK  status: ('A' for Active; 'I' for Inactive)
REMARK    1  A    between atoms: C_1  and  C_2
REMARK    2  A    between atoms: C_2  and  C_3
REMARK    3  A    between atoms: C_3  and  C_4
REMARK    4  A    between atoms: C_4  and  N_5
REMARK    5  A    between atoms: C_7  and  C_8
REMARK    6  A    between atoms: C_8  and  O_10
REMARK    7  A    between atoms: O_10  and  C_11
REMARK    8  A    between atoms: C_15  and  C_16
REMARK                            x       y       z     vdW  Elec       q    Type
REMARK                         _______ _______ _______ _____ _____    ______ ____
ROOT
ATOM      1  N   UNL     1       1.970   4.233  18.240  0.00  0.00    +0.000 N 
ATOM      2  N   UNL     1       1.789   5.592  18.410  0.00  0.00    +0.000 NA
ATOM      3  C   UNL     1       2.731   6.406  18.016  0.00  0.00    +0.000 A 
ATOM      4  C   UNL     1       3.989   5.948  17.392  0.00  0.00    +0.000 A 
ATOM      5  C   UNL     1       5.053   6.793  17.052  0.00  0.00    +0.000 A 
ATOM      6  C   UNL     1       6.281   6.259  16.647  0.00  0.00    +0.000 A 
ATOM      7  C   UNL     1       6.437   4.886  16.498  0.00  0.00    +0.000 A 
ATOM      8  C   UNL     1       5.363   4.046  16.755  0.00  0.00    +0.000 A 
ATOM      9  C   UNL     1       4.151   4.579  17.229  0.00  0.00    +0.000 A 
ATOM     10  C   UNL     1       3.083   3.657  17.639  0.00  0.00    +0.000 A 
ATOM     11  O   UNL     1       3.237   2.446  17.482  0.00  0.00    +0.000 OA
ENDROOT
BRANCH   3  12
ATOM     12  C   UNL     1       2.509   7.922  18.214  0.00  0.00    +0.000 C 
ATOM     13  O   UNL     1       2.464   8.722  17.293  0.00  0.00    +0.000 OA
BRANCH  12  14
ATOM     14  O   UNL     1       2.221   8.190  19.539  0.00  0.00    +0.000 OA
BRANCH  14  15
ATOM     15  C   UNL     1       1.196   9.137  19.697  0.00  0.00    +0.000 A 
ATOM     16  C   UNL     1       0.279   9.368  18.668  0.00  0.00    +0.000 A 
ATOM     17  C   UNL     1      -0.772  10.269  18.841  0.00  0.00    +0.000 A 
ATOM     18  C   UNL     1      -0.915  10.979  20.033  0.00  0.00    +0.000 A 
ATOM     19  C   UNL     1      -1.948  12.002  20.245  0.00  0.00    +0.000 A 
ATOM     20  C   UNL     1      -2.996  12.321  19.217  0.00  0.00    +0.000 C 
ATOM     21  C   UNL     1      -1.920  12.693  21.393  0.00  0.00    +0.000 A 
ATOM     22  C   UNL     1      -0.940  12.461  22.463  0.00  0.00    +0.000 A 
ATOM     23  O   UNL     1      -0.943  13.157  23.480  0.00  0.00    +0.000 OA
ATOM     24  O   UNL     1      -0.042  11.425  22.277  0.00  0.00    +0.000 OA
ATOM     25  C   UNL     1       0.007  10.717  21.056  0.00  0.00    +0.000 A 
ATOM     26  C   UNL     1       1.048   9.787  20.916  0.00  0.00    +0.000 A 
ENDBRANCH  14  15
ENDBRANCH  12  14
ENDBRANCH   3  12
BRANCH   1  27
ATOM     27  C   UNL     1       1.020   3.342  18.910  0.00  0.00    +0.000 C 
BRANCH  27  28
ATOM     28  C   UNL     1       0.819   3.758  20.370  0.00  0.00    +0.000 C 
BRANCH  28  30
ATOM     29  C   UNL     1       2.866   2.694  21.370  0.00  0.00    +0.000 C 
ATOM     30  C   UNL     1       1.345   2.706  21.345  0.00  0.00    +0.000 C 
ENDBRANCH  28  30
ENDBRANCH  27  28
ENDBRANCH   1  27
TORSDOF 6
ENDMDL
MODEL 5
REMARK VINA RESULT:      -7.8      2.867      5.549
REMARK  Name = 
REMARK  8 active torsions:
REMARK  status: ('A' for Active; 'I' for Inactive)
REMARK    1  A    between atoms: C_1  and  C_2
REMARK    2  A    between atoms: C_2  and  C_3
REMARK    3  A    between atoms: C_3  and  C_4
REMARK    4  A    between atoms: C_4  and  N_5
REMARK    5  A    between atoms: C_7  and  C_8
REMARK    6  A    between atoms: C_8  and  O_10
REMARK    7  A    between atoms: O_10  and  C_11
REMARK    8  A    between atoms: C_15  and  C_16
REMARK                            x       y       z     vdW  Elec       q    Type
REMARK                         _______ _______ _______ _____ _____    ______ ____
ROOT
ATOM      1  N   UNL     1       5.437   5.989  17.371  0.00  0.00    +0.000 N 
ATOM      2  N   UNL     1       4.515   6.905  17.840  0.00  0.00    +0.000 NA
ATOM      3  C   UNL     1       3.344   6.476  18.229  0.00  0.00    +0.000 A 
ATOM      4  C   UNL     1       2.951   5.053  18.195  0.00  0.00    +0.000 A 
ATOM      5  C   UNL     1       1.670   4.581  18.512  0.00  0.00    +0.000 A 
ATOM      6  C   UNL     1       1.325   3.248  18.268  0.00  0.00    +0.000 A 
ATOM      7  C   UNL     1       2.271   2.353  17.782  0.00  0.00    +0.000 A 
ATOM      8  C   UNL     1       3.564   2.793  17.540  0.00  0.00    +0.000 A 
ATOM      9  C   UNL     1       3.892   4.149  17.721  0.00  0.00    +0.000 A 
ATOM     10  C   UNL     1       5.222   4.618  17.313  0.00  0.00    +0.000 A 
ATOM     11  O   UNL     1       6.050   3.803  16.902  0.00  0.00    +0.000 OA
ENDROOT
BRANCH   3  12
ATOM     12  C   UNL     1       2.327   7.516  18.751  0.00  0.00    +0.000 C 
ATOM     13  O   UNL     1       2.126   7.724  19.937  0.00  0.00    +0.000 OA
BRANCH  12  14
ATOM     14  O   UNL     1       1.821   8.254  17.698  0.00  0.00    +0.000 OA
BRANCH  14  15
ATOM     15  C   UNL     1       1.430   9.549  18.075  0.00  0.00    +0.000 A 
ATOM     16  C   UNL     1       2.341  10.609  18.023  0.00  0.00    +0.000 A 
ATOM     17  C   UNL     1       1.941  11.906  18.346  0.00  0.00    +0.000 A 
ATOM     18  C   UNL     1       0.633  12.170  18.753  0.00  0.00    +0.000 A 
ATOM     19  C   UNL     1       0.175  13.497  19.187  0.00  0.00    +0.000 A 
ATOM     20  C   UNL     1       1.061  14.710  19.157  0.00  0.00    +0.000 C 
ATOM     21  C   UNL     1      -1.076  13.606  19.656  0.00  0.00    +0.000 A 
ATOM     22  C   UNL     1      -2.022  12.484  19.729  0.00  0.00    +0.000 A 
ATOM     23  O   UNL     1      -3.146  12.640  20.208  0.00  0.00    +0.000 OA
ATOM     24  O   UNL     1      -1.595  11.269  19.221  0.00  0.00    +0.000 OA
ATOM     25  C   UNL     1      -0.265  11.094  18.780  0.00  0.00    +0.000 A 
ATOM     26  C   UNL     1       0.106   9.790  18.422  0.00  0.00    +0.000 A 
ENDBRANCH  14  15
ENDBRANCH  12  14
ENDBRANCH   3  12
BRANCH   1  27
ATOM     27  C   UNL     1       6.635   6.520  16.717  0.00  0.00    +0.000 C 
BRANCH  27  28
ATOM     28  C   UNL     1       6.938   7.941  17.205  0.00  0.00    +0.000 C 
BRANCH  28  30
ATOM     29  C   UNL     1       8.600   9.420  18.377  0.00  0.00    +0.000 C 
ATOM     30  C   UNL     1       8.166   7.986  18.113  0.00  0.00    +0.000 C 
ENDBRANCH  28  30
ENDBRANCH  27  28
ENDBRANCH   1  27
TORSDOF 6
ENDMDL
MODEL 6
REMARK VINA RESULT:      -7.8      2.937      5.450
REMARK  Name = 
REMARK  8 active torsions:
REMARK  status: ('A' for Active; 'I' for Inactive)
REMARK    1  A    between atoms: C_1  and  C_2
REMARK    2  A    between atoms: C_2  and  C_3
REMARK    3  A    between atoms: C_3  and  C_4
REMARK    4  A    between atoms: C_4  and  N_5
REMARK    5  A    between atoms: C_7  and  C_8
REMARK    6  A    between atoms: C_8  and  O_10
REMARK    7  A    between atoms: O_10  and  C_11
REMARK    8  A    between atoms: C_15  and  C_16
REMARK                            x       y       z     vdW  Elec       q    Type
REMARK                         _______ _______ _______ _____ _____    ______ ____
ROOT
ATOM      1  N   UNL     1       2.361   4.435  17.799  0.00  0.00    +0.000 N 
ATOM      2  N   UNL     1       2.076   5.778  17.957  0.00  0.00    +0.000 NA
ATOM      3  C   UNL     1       3.038   6.648  17.805  0.00  0.00    +0.000 A 
ATOM      4  C   UNL     1       4.426   6.270  17.468  0.00  0.00    +0.000 A 
ATOM      5  C   UNL     1       5.493   7.174  17.397  0.00  0.00    +0.000 A 
ATOM      6  C   UNL     1       6.807   6.712  17.265  0.00  0.00    +0.000 A 
ATOM      7  C   UNL     1       7.064   5.354  17.122  0.00  0.00    +0.000 A 
ATOM      8  C   UNL     1       6.006   4.457  17.111  0.00  0.00    +0.000 A 
ATOM      9  C   UNL     1       4.692   4.916  17.313  0.00  0.00    +0.000 A 
ATOM     10  C   UNL     1       3.609   3.933  17.450  0.00  0.00    +0.000 A 
ATOM     11  O   UNL     1       3.858   2.736  17.301  0.00  0.00    +0.000 OA
ENDROOT
BRANCH   3  12
ATOM     12  C   UNL     1       2.697   8.144  17.985  0.00  0.00    +0.000 C 
ATOM     13  O   UNL     1       2.765   8.963  17.082  0.00  0.00    +0.000 OA
BRANCH  12  14
ATOM     14  O   UNL     1       2.172   8.363  19.244  0.00  0.00    +0.000 OA
BRANCH  14  15
ATOM     15  C   UNL     1       1.046   9.202  19.230  0.00  0.00    +0.000 A 
ATOM     16  C   UNL     1       0.765  10.030  20.321  0.00  0.00    +0.000 A 
ATOM     17  C   UNL     1      -0.322  10.903  20.289  0.00  0.00    +0.000 A 
ATOM     18  C   UNL     1      -1.168  10.951  19.180  0.00  0.00    +0.000 A 
ATOM     19  C   UNL     1      -2.375  11.786  19.121  0.00  0.00    +0.000 A 
ATOM     20  C   UNL     1      -2.766  12.726  20.226  0.00  0.00    +0.000 C 
ATOM     21  C   UNL     1      -3.167  11.668  18.045  0.00  0.00    +0.000 A 
ATOM     22  C   UNL     1      -2.877  10.780  16.911  0.00  0.00    +0.000 A 
ATOM     23  O   UNL     1      -3.665  10.687  15.969  0.00  0.00    +0.000 OA
ATOM     24  O   UNL     1      -1.684  10.081  16.950  0.00  0.00    +0.000 OA
ATOM     25  C   UNL     1      -0.854  10.124  18.093  0.00  0.00    +0.000 A 
ATOM     26  C   UNL     1       0.256   9.267  18.089  0.00  0.00    +0.000 A 
ENDBRANCH  14  15
ENDBRANCH  12  14
ENDBRANCH   3  12
BRANCH   1  27
ATOM     27  C   UNL     1       1.334   3.479  18.216  0.00  0.00    +0.000 C 
BRANCH  27  28
ATOM     28  C   UNL     1       1.088   3.566  19.726  0.00  0.00    +0.000 C 
BRANCH  28  30
ATOM     29  C   UNL     1       1.602   2.600  21.990  0.00  0.00    +0.000 C 
ATOM     30  C   UNL     1       1.913   2.540  20.501  0.00  0.00    +0.000 C 
ENDBRANCH  28  30
ENDBRANCH  27  28
ENDBRANCH   1  27
TORSDOF 6
ENDMDL
MODEL 7
REMARK VINA RESULT:      -7.7      2.720      5.311
REMARK  Name = 
REMARK  8 active torsions:
REMARK  status: ('A' for Active; 'I' for Inactive)
REMARK    1  A    between atoms: C_1  and  C_2
REMARK    2  A    between atoms: C_2  and  C_3
REMARK    3  A    between atoms: C_3  and  C_4
REMARK    4  A    between atoms: C_4  and  N_5
REMARK    5  A    between atoms: C_7  and  C_8
REMARK    6  A    between atoms: C_8  and  O_10
REMARK    7  A    between atoms: O_10  and  C_11
REMARK    8  A    between atoms: C_15  and  C_16
REMARK                            x       y       z     vdW  Elec       q    Type
REMARK                         _______ _______ _______ _____ _____    ______ ____
ROOT
ATOM      1  N   UNL     1       5.528   6.378  17.355  0.00  0.00    +0.000 N 
ATOM      2  N   UNL     1       4.522   7.237  17.756  0.00  0.00    +0.000 NA
ATOM      3  C   UNL     1       3.355   6.738  18.067  0.00  0.00    +0.000 A 
ATOM      4  C   UNL     1       3.052   5.294  18.013  0.00  0.00    +0.000 A 
ATOM      5  C   UNL     1       1.784   4.746  18.246  0.00  0.00    +0.000 A 
ATOM      6  C   UNL     1       1.536   3.395  17.986  0.00  0.00    +0.000 A 
ATOM      7  C   UNL     1       2.565   2.558  17.569  0.00  0.00    +0.000 A 
ATOM      8  C   UNL     1       3.843   3.074  17.413  0.00  0.00    +0.000 A 
ATOM      9  C   UNL     1       4.075   4.448  17.609  0.00  0.00    +0.000 A 
ATOM     10  C   UNL     1       5.400   4.995  17.289  0.00  0.00    +0.000 A 
ATOM     11  O   UNL     1       6.301   4.232  16.940  0.00  0.00    +0.000 OA
ENDROOT
BRANCH   3  12
ATOM     12  C   UNL     1       2.245   7.716  18.514  0.00  0.00    +0.000 C 
ATOM     13  O   UNL     1       1.503   8.293  17.736  0.00  0.00    +0.000 OA
BRANCH  12  14
ATOM     14  O   UNL     1       2.132   7.707  19.891  0.00  0.00    +0.000 OA
BRANCH  14  15
ATOM     15  C   UNL     1       1.291   8.720  20.379  0.00  0.00    +0.000 A 
ATOM     16  C   UNL     1       0.505   8.504  21.514  0.00  0.00    +0.000 A 
ATOM     17  C   UNL     1      -0.291   9.526  22.032  0.00  0.00    +0.000 A 
ATOM     18  C   UNL     1      -0.342  10.775  21.414  0.00  0.00    +0.000 A 
ATOM     19  C   UNL     1      -1.223  11.862  21.861  0.00  0.00    +0.000 A 
ATOM     20  C   UNL     1      -2.099  11.749  23.077  0.00  0.00    +0.000 C 
ATOM     21  C   UNL     1      -1.262  12.981  21.124  0.00  0.00    +0.000 A 
ATOM     22  C   UNL     1      -0.448  13.195  19.918  0.00  0.00    +0.000 A 
ATOM     23  O   UNL     1      -0.559  14.231  19.262  0.00  0.00    +0.000 OA
ATOM     24  O   UNL     1       0.445  12.194  19.579  0.00  0.00    +0.000 OA
ATOM     25  C   UNL     1       0.470  10.972  20.288  0.00  0.00    +0.000 A 
ATOM     26  C   UNL     1       1.306   9.971  19.774  0.00  0.00    +0.000 A 
ENDBRANCH  14  15
ENDBRANCH  12  14
ENDBRANCH   3  12
BRANCH   1  27
ATOM     27  C   UNL     1       6.732   6.980  16.781  0.00  0.00    +0.000 C 
BRANCH  27  28
ATOM     28  C   UNL     1       7.666   7.490  17.884  0.00  0.00    +0.000 C 
BRANCH  28  30
ATOM     29  C   UNL     1       8.859   9.480  18.853  0.00  0.00    +0.000 C 
ATOM     30  C   UNL     1       8.061   8.950  17.671  0.00  0.00    +0.000 C 
ENDBRANCH  28  30
ENDBRANCH  27  28
ENDBRANCH   1  27
TORSDOF 6
ENDMDL
MODEL 8
REMARK VINA RESULT:      -7.7      2.853      5.657
REMARK  Name = 
REMARK  8 active torsions:
REMARK  status: ('A' for Active; 'I' for Inactive)
REMARK    1  A    between atoms: C_1  and  C_2
REMARK    2  A    between atoms: C_2  and  C_3
REMARK    3  A    between atoms: C_3  and  C_4
REMARK    4  A    between atoms: C_4  and  N_5
REMARK    5  A    between atoms: C_7  and  C_8
REMARK    6  A    between atoms: C_8  and  O_10
REMARK    7  A    between atoms: O_10  and  C_11
REMARK    8  A    between atoms: C_15  and  C_16
REMARK                            x       y       z     vdW  Elec       q    Type
REMARK                         _______ _______ _______ _____ _____    ______ ____
ROOT
ATOM      1  N   UNL     1       1.981   3.819  18.384  0.00  0.00    +0.000 N 
ATOM      2  N   UNL     1       1.692   5.115  18.766  0.00  0.00    +0.000 NA
ATOM      3  C   UNL     1       2.498   6.074  18.395  0.00  0.00    +0.000 A 
ATOM      4  C   UNL     1       3.709   5.845  17.582  0.00  0.00    +0.000 A 
ATOM      5  C   UNL     1       4.639   6.841  17.257  0.00  0.00    +0.000 A 
ATOM      6  C   UNL     1       5.855   6.506  16.652  0.00  0.00    +0.000 A 
ATOM      7  C   UNL     1       6.123   5.191  16.292  0.00  0.00    +0.000 A 
ATOM      8  C   UNL     1       5.174   4.209  16.538  0.00  0.00    +0.000 A 
ATOM      9  C   UNL     1       3.981   4.536  17.209  0.00  0.00    +0.000 A 
ATOM     10  C   UNL     1       3.064   3.456  17.593  0.00  0.00    +0.000 A 
ATOM     11  O   UNL     1       3.313   2.301  17.247  0.00  0.00    +0.000 OA
ENDROOT
BRANCH   3  12
ATOM     12  C   UNL     1       2.156   7.517  18.832  0.00  0.00    +0.000 C 
ATOM     13  O   UNL     1       2.290   7.924  19.975  0.00  0.00    +0.000 OA
BRANCH  12  14
ATOM     14  O   UNL     1       1.838   8.283  17.727  0.00  0.00    +0.000 OA
BRANCH  14  15
ATOM     15  C   UNL     1       1.451   9.592  18.060  0.00  0.00    +0.000 A 
ATOM     16  C   UNL     1       0.168   9.849  18.551  0.00  0.00    +0.000 A 
ATOM     17  C   UNL     1      -0.202  11.138  18.933  0.00  0.00    +0.000 A 
ATOM     18  C   UNL     1       0.690  12.204  18.808  0.00  0.00    +0.000 A 
ATOM     19  C   UNL     1       0.333  13.596  19.113  0.00  0.00    +0.000 A 
ATOM     20  C   UNL     1      -1.010  13.987  19.661  0.00  0.00    +0.000 C 
ATOM     21  C   UNL     1       1.241  14.547  18.853  0.00  0.00    +0.000 A 
ATOM     22  C   UNL     1       2.582  14.273  18.317  0.00  0.00    +0.000 A 
ATOM     23  O   UNL     1       3.357  15.196  18.063  0.00  0.00    +0.000 OA
ATOM     24  O   UNL     1       2.924  12.945  18.134  0.00  0.00    +0.000 OA
ATOM     25  C   UNL     1       1.976  11.917  18.330  0.00  0.00    +0.000 A 
ATOM     26  C   UNL     1       2.380  10.621  17.977  0.00  0.00    +0.000 A 
ENDBRANCH  14  15
ENDBRANCH  12  14
ENDBRANCH   3  12
BRANCH   1  27
ATOM     27  C   UNL     1       1.208   2.747  19.015  0.00  0.00    +0.000 C 
BRANCH  27  28
ATOM     28  C   UNL     1       0.672   3.193  20.380  0.00  0.00    +0.000 C 
BRANCH  28  30
ATOM     29  C   UNL     1       2.908   2.711  21.425  0.00  0.00    +0.000 C 
ATOM     30  C   UNL     1       1.403   2.511  21.534  0.00  0.00    +0.000 C 
ENDBRANCH  28  30
ENDBRANCH  27  28
ENDBRANCH   1  27
TORSDOF 6
ENDMDL
MODEL 9
REMARK VINA RESULT:      -7.7      2.829      4.809
REMARK  Name = 
REMARK  8 active torsions:
REMARK  status: ('A' for Active; 'I' for Inactive)
REMARK    1  A    between atoms: C_1  and  C_2
REMARK    2  A    between atoms: C_2  and  C_3
REMARK    3  A    between atoms: C_3  and  C_4
REMARK    4  A    between atoms: C_4  and  N_5
REMARK    5  A    between atoms: C_7  and  C_8
REMARK    6  A    between atoms: C_8  and  O_10
REMARK    7  A    between atoms: O_10  and  C_11
REMARK    8  A    between atoms: C_15  and  C_16
REMARK                            x       y       z     vdW  Elec       q    Type
REMARK                         _______ _______ _______ _____ _____    ______ ____
ROOT
ATOM      1  N   UNL     1       4.802   5.428  17.235  0.00  0.00    +0.000 N 
ATOM      2  N   UNL     1       4.121   6.427  17.904  0.00  0.00    +0.000 NA
ATOM      3  C   UNL     1       3.061   6.109  18.598  0.00  0.00    +0.000 A 
ATOM      4  C   UNL     1       2.548   4.729  18.708  0.00  0.00    +0.000 A 
ATOM      5  C   UNL     1       1.360   4.380  19.363  0.00  0.00    +0.000 A 
ATOM      6  C   UNL     1       0.845   3.084  19.255  0.00  0.00    +0.000 A 
ATOM      7  C   UNL     1       1.545   2.103  18.563  0.00  0.00    +0.000 A 
ATOM      8  C   UNL     1       2.763   2.420  17.978  0.00  0.00    +0.000 A 
ATOM      9  C   UNL     1       3.246   3.740  18.029  0.00  0.00    +0.000 A 
ATOM     10  C   UNL     1       4.458   4.082  17.273  0.00  0.00    +0.000 A 
ATOM     11  O   UNL     1       5.072   3.193  16.682  0.00  0.00    +0.000 OA
ENDROOT
BRANCH   3  12
ATOM     12  C   UNL     1       2.315   7.241  19.340  0.00  0.00    +0.000 C 
ATOM     13  O   UNL     1       1.844   7.117  20.459  0.00  0.00    +0.000 OA
BRANCH  12  14
ATOM     14  O   UNL     1       2.404   8.418  18.622  0.00  0.00    +0.000 OA
BRANCH  14  15
ATOM     15  C   UNL     1       1.264   9.228  18.751  0.00  0.00    +0.000 A 
ATOM     16  C   UNL     1       1.106  10.057  19.866  0.00  0.00    +0.000 A 
ATOM     17  C   UNL     1       0.000  10.901  19.972  0.00  0.00    +0.000 A 
ATOM     18  C   UNL     1      -0.984  10.917  18.984  0.00  0.00    +0.000 A 
ATOM     19  C   UNL     1      -2.211  11.719  19.079  0.00  0.00    +0.000 A 
ATOM     20  C   UNL     1      -2.480  12.658  20.221  0.00  0.00    +0.000 C 
ATOM     21  C   UNL     1      -3.133  11.572  18.117  0.00  0.00    +0.000 A 
ATOM     22  C   UNL     1      -2.971  10.682  16.959  0.00  0.00    +0.000 A 
ATOM     23  O   UNL     1      -3.873  10.560  16.129  0.00  0.00    +0.000 OA
ATOM     24  O   UNL     1      -1.764  10.015  16.845  0.00  0.00    +0.000 OA
ATOM     25  C   UNL     1      -0.794  10.090  17.869  0.00  0.00    +0.000 A 
ATOM     26  C   UNL     1       0.330   9.262  17.724  0.00  0.00    +0.000 A 
ENDBRANCH  14  15
ENDBRANCH  12  14
ENDBRANCH   3  12
BRANCH   1  27
ATOM     27  C   UNL     1       5.826   5.843  16.275  0.00  0.00    +0.000 C 
BRANCH  27  28
ATOM     28  C   UNL     1       5.477   5.364  14.863  0.00  0.00    +0.000 C 
BRANCH  28  30
ATOM     29  C   UNL     1       6.220   3.770  13.064  0.00  0.00    +0.000 C 
ATOM     30  C   UNL     1       6.673   4.722  14.162  0.00  0.00    +0.000 C 
ENDBRANCH  28  30
ENDBRANCH  27  28
ENDBRANCH   1  27
TORSDOF 6
ENDMDL
