MODEL 1
REMARK VINA RESULT:      -7.6      0.000      0.000
REMARK  Name = 
REMARK  7 active torsions:
REMARK  status: ('A' for Active; 'I' for Inactive)
REMARK    1  A    between atoms: C_1  and  O_2
REMARK    2  A    between atoms: O_2  and  C_3
REMARK    3  A    between atoms: C_6  and  C_7
REMARK    4  A    between atoms: C_9  and  C_10
REMARK    5  A    between atoms: C_19  and  C_21
REMARK    6  A    between atoms: C_31  and  O_32
REMARK    7  A    between atoms: O_32  and  C_33
REMARK                            x       y       z     vdW  Elec       q    Type
REMARK                         _______ _______ _______ _____ _____    ______ ____
ROOT
ATOM      1  C   UNL     1      -1.111  11.652  20.721  0.00  0.00    +0.000 C 
ATOM      2  C   UNL     1      -1.966  12.026  19.522  0.00  0.00    +0.000 C 
ATOM      3  C   UNL     1      -1.649  10.875  18.608  0.00  0.00    +0.000 C 
ATOM      4  N   UNL     1      -0.686  10.096  19.002  0.00  0.00    +0.000 NA
ATOM      5  N   UNL     1      -0.250  10.576  20.213  0.00  0.00    +0.000 N 
ATOM      6  C   UNL     1       0.610   9.872  21.068  0.00  0.00    +0.000 C 
ATOM      7  O   UNL     1       0.813  10.313  22.206  0.00  0.00    +0.000 OA
ENDROOT
BRANCH   6   8
ATOM      8  C   UNL     1       1.257   8.621  20.673  0.00  0.00    +0.000 A 
ATOM      9  C   UNL     1       1.160   7.412  21.350  0.00  0.00    +0.000 A 
ATOM     10  C   UNL     1       1.816   6.430  20.579  0.00  0.00    +0.000 A 
ATOM     11  C   UNL     1       2.010   5.044  20.700  0.00  0.00    +0.000 A 
ATOM     12  C   UNL     1       2.736   4.377  19.708  0.00  0.00    +0.000 A 
ATOM     13  C   UNL     1       3.264   5.079  18.622  0.00  0.00    +0.000 A 
ATOM     14  C   UNL     1       3.073   6.462  18.481  0.00  0.00    +0.000 A 
ATOM     15  C   UNL     1       2.335   7.103  19.479  0.00  0.00    +0.000 A 
ATOM     16  O   UNL     1       2.002   8.434  19.533  0.00  0.00    +0.000 OA
ENDBRANCH   6   8
BRANCH   3  17
ATOM     17  C   UNL     1      -2.394  10.682  17.341  0.00  0.00    +0.000 A 
ATOM     18  C   UNL     1      -3.564  11.398  17.059  0.00  0.00    +0.000 A 
ATOM     19  C   UNL     1      -4.234  11.192  15.850  0.00  0.00    +0.000 A 
ATOM     20  C   UNL     1      -3.737  10.276  14.925  0.00  0.00    +0.000 A 
ATOM     21 CL   UNL     1      -4.565  10.026  13.437  0.00  0.00    +0.000 Cl
ATOM     22  C   UNL     1      -2.577   9.557  15.199  0.00  0.00    +0.000 A 
ATOM     23  C   UNL     1      -1.903   9.763  16.406  0.00  0.00    +0.000 A 
ENDBRANCH   3  17
BRANCH   1  27
ATOM     24  C   UNL     1       0.727  15.257  22.300  0.00  0.00    +0.000 A 
ATOM     25  C   UNL     1       1.220  14.632  21.147  0.00  0.00    +0.000 A 
ATOM     26  C   UNL     1       0.629  13.467  20.655  0.00  0.00    +0.000 A 
ATOM     27  C   UNL     1      -0.454  12.880  21.322  0.00  0.00    +0.000 A 
ATOM     28  C   UNL     1      -0.865  13.444  22.536  0.00  0.00    +0.000 A 
ATOM     29  C   UNL     1      -0.289  14.627  23.035  0.00  0.00    +0.000 A 
BRANCH  24  31
ATOM     30  C   UNL     1       0.606  17.619  22.227  0.00  0.00    +0.000 C 
ATOM     31  O   UNL     1       1.254  16.448  22.726  0.00  0.00    +0.000 OA
ENDBRANCH  24  31
BRANCH  29  32
ATOM     32  O   UNL     1      -0.859  15.011  24.221  0.00  0.00    +0.000 OA
ATOM     33  C   UNL     1      -2.214  14.683  24.474  0.00  0.00    +0.000 C 
ENDBRANCH  29  32
ENDBRANCH   1  27
TORSDOF 5
ENDMDL
MODEL 2
REMARK VINA RESULT:      -7.6      0.734      1.676
REMARK  Name = 
REMARK  7 active torsions:
REMARK  status: ('A' for Active; 'I' for Inactive)
REMARK    1  A    between atoms: C_1  and  O_2
REMARK    2  A    between atoms: O_2  and  C_3
REMARK    3  A    between atoms: C_6  and  C_7
REMARK    4  A    between atoms: C_9  and  C_10
REMARK    5  A    between atoms: C_19  and  C_21
REMARK    6  A    between atoms: C_31  and  O_32
REMARK    7  A    between atoms: O_32  and  C_33
REMARK                            x       y       z     vdW  Elec       q    Type
REMARK                         _______ _______ _______ _____ _____    ______ ____
ROOT
ATOM      1  C   UNL     1      -1.373  11.663  20.727  0.00  0.00    +0.000 C 
ATOM      2  C   UNL     1      -2.216  12.020  19.514  0.00  0.00    +0.000 C 
ATOM      3  C   UNL     1      -1.822  10.904  18.587  0.00  0.00    +0.000 C 
ATOM      4  N   UNL     1      -0.833  10.165  18.990  0.00  0.00    +0.000 NA
ATOM      5  N   UNL     1      -0.449  10.641  20.220  0.00  0.00    +0.000 N 
ATOM      6  C   UNL     1       0.423   9.961  21.082  0.00  0.00    +0.000 C 
ATOM      7  O   UNL     1       0.576  10.388  22.234  0.00  0.00    +0.000 OA
ENDROOT
BRANCH   6   8
ATOM      8  C   UNL     1       1.138   8.750  20.681  0.00  0.00    +0.000 A 
ATOM      9  C   UNL     1       1.104   7.532  21.346  0.00  0.00    +0.000 A 
ATOM     10  C   UNL     1       1.816   6.594  20.571  0.00  0.00    +0.000 A 
ATOM     11  C   UNL     1       2.084   5.219  20.681  0.00  0.00    +0.000 A 
ATOM     12  C   UNL     1       2.850   4.602  19.687  0.00  0.00    +0.000 A 
ATOM     13  C   UNL     1       3.344   5.340  18.610  0.00  0.00    +0.000 A 
ATOM     14  C   UNL     1       3.079   6.713  18.479  0.00  0.00    +0.000 A 
ATOM     15  C   UNL     1       2.303   7.303  19.479  0.00  0.00    +0.000 A 
ATOM     16  O   UNL     1       1.898   8.614  19.543  0.00  0.00    +0.000 OA
ENDBRANCH   6   8
BRANCH   3  17
ATOM     17  C   UNL     1      -2.526  10.701  17.298  0.00  0.00    +0.000 A 
ATOM     18  C   UNL     1      -3.701  11.396  16.984  0.00  0.00    +0.000 A 
ATOM     19  C   UNL     1      -4.331  11.182  15.756  0.00  0.00    +0.000 A 
ATOM     20  C   UNL     1      -3.791  10.278  14.843  0.00  0.00    +0.000 A 
ATOM     21 CL   UNL     1      -4.571  10.018  13.331  0.00  0.00    +0.000 Cl
ATOM     22  C   UNL     1      -2.626   9.580  15.149  0.00  0.00    +0.000 A 
ATOM     23  C   UNL     1      -1.991   9.795  16.375  0.00  0.00    +0.000 A 
ENDBRANCH   3  17
BRANCH   1  27
ATOM     24  C   UNL     1       0.333  15.137  22.700  0.00  0.00    +0.000 A 
ATOM     25  C   UNL     1      -0.803  14.493  23.209  0.00  0.00    +0.000 A 
ATOM     26  C   UNL     1      -1.350  13.385  22.561  0.00  0.00    +0.000 A 
ATOM     27  C   UNL     1      -0.791  12.909  21.367  0.00  0.00    +0.000 A 
ATOM     28  C   UNL     1       0.270  13.627  20.803  0.00  0.00    +0.000 A 
ATOM     29  C   UNL     1       0.842  14.737  21.454  0.00  0.00    +0.000 A 
BRANCH  24  31
ATOM     30  C   UNL     1       0.043  16.909  24.240  0.00  0.00    +0.000 C 
ATOM     31  O   UNL     1       0.918  16.168  23.388  0.00  0.00    +0.000 OA
ENDBRANCH  24  31
BRANCH  29  32
ATOM     32  O   UNL     1       1.879  15.272  20.736  0.00  0.00    +0.000 OA
ATOM     33  C   UNL     1       1.690  15.562  19.362  0.00  0.00    +0.000 C 
ENDBRANCH  29  32
ENDBRANCH   1  27
TORSDOF 5
ENDMDL
MODEL 3
REMARK VINA RESULT:      -7.5      3.841      5.759
REMARK  Name = 
REMARK  7 active torsions:
REMARK  status: ('A' for Active; 'I' for Inactive)
REMARK    1  A    between atoms: C_1  and  O_2
REMARK    2  A    between atoms: O_2  and  C_3
REMARK    3  A    between atoms: C_6  and  C_7
REMARK    4  A    between atoms: C_9  and  C_10
REMARK    5  A    between atoms: C_19  and  C_21
REMARK    6  A    between atoms: C_31  and  O_32
REMARK    7  A    between atoms: O_32  and  C_33
REMARK                            x       y       z     vdW  Elec       q    Type
REMARK                         _______ _______ _______ _____ _____    ______ ____
ROOT
ATOM      1  C   UNL     1      -0.519  12.532  19.449  0.00  0.00    +0.000 C 
ATOM      2  C   UNL     1       0.320  13.786  19.634  0.00  0.00    +0.000 C 
ATOM      3  C   UNL     1       1.694  13.211  19.425  0.00  0.00    +0.000 C 
ATOM      4  N   UNL     1       1.754  11.915  19.355  0.00  0.00    +0.000 NA
ATOM      5  N   UNL     1       0.468  11.445  19.473  0.00  0.00    +0.000 N 
ATOM      6  C   UNL     1       0.094  10.121  19.206  0.00  0.00    +0.000 C 
ATOM      7  O   UNL     1      -1.110   9.835  19.178  0.00  0.00    +0.000 OA
ENDROOT
BRANCH   6   8
ATOM      8  C   UNL     1       1.072   9.069  18.931  0.00  0.00    +0.000 A 
ATOM      9  C   UNL     1       1.897   9.000  17.816  0.00  0.00    +0.000 A 
ATOM     10  C   UNL     1       2.777   7.914  17.993  0.00  0.00    +0.000 A 
ATOM     11  C   UNL     1       3.850   7.379  17.259  0.00  0.00    +0.000 A 
ATOM     12  C   UNL     1       4.515   6.257  17.762  0.00  0.00    +0.000 A 
ATOM     13  C   UNL     1       4.116   5.675  18.967  0.00  0.00    +0.000 A 
ATOM     14  C   UNL     1       3.053   6.201  19.718  0.00  0.00    +0.000 A 
ATOM     15  C   UNL     1       2.412   7.329  19.200  0.00  0.00    +0.000 A 
ATOM     16  O   UNL     1       1.374   8.022  19.771  0.00  0.00    +0.000 OA
ENDBRANCH   6   8
BRANCH   3  17
ATOM     17  C   UNL     1       2.881  14.094  19.328  0.00  0.00    +0.000 A 
ATOM     18  C   UNL     1       3.618  14.462  20.460  0.00  0.00    +0.000 A 
ATOM     19  C   UNL     1       4.736  15.291  20.327  0.00  0.00    +0.000 A 
ATOM     20  C   UNL     1       5.116  15.751  19.067  0.00  0.00    +0.000 A 
ATOM     21 CL   UNL     1       6.493  16.771  18.907  0.00  0.00    +0.000 Cl
ATOM     22  C   UNL     1       4.386  15.392  17.937  0.00  0.00    +0.000 A 
ATOM     23  C   UNL     1       3.271  14.561  18.067  0.00  0.00    +0.000 A 
ENDBRANCH   3  17
BRANCH   1  27
ATOM     24  C   UNL     1      -3.713  12.548  22.392  0.00  0.00    +0.000 A 
ATOM     25  C   UNL     1      -2.398  12.213  22.744  0.00  0.00    +0.000 A 
ATOM     26  C   UNL     1      -1.383  12.200  21.788  0.00  0.00    +0.000 A 
ATOM     27  C   UNL     1      -1.661  12.493  20.446  0.00  0.00    +0.000 A 
ATOM     28  C   UNL     1      -2.995  12.711  20.082  0.00  0.00    +0.000 A 
ATOM     29  C   UNL     1      -4.028  12.744  21.038  0.00  0.00    +0.000 A 
BRANCH  24  31
ATOM     30  C   UNL     1      -4.245  12.458  24.696  0.00  0.00    +0.000 C 
ATOM     31  O   UNL     1      -4.688  12.647  23.351  0.00  0.00    +0.000 OA
ENDBRANCH  24  31
BRANCH  29  32
ATOM     32  O   UNL     1      -5.247  12.995  20.465  0.00  0.00    +0.000 OA
ATOM     33  C   UNL     1      -6.115  11.910  20.185  0.00  0.00    +0.000 C 
ENDBRANCH  29  32
ENDBRANCH   1  27
TORSDOF 5
ENDMDL
MODEL 4
REMARK VINA RESULT:      -7.5      3.909      7.641
REMARK  Name = 
REMARK  7 active torsions:
REMARK  status: ('A' for Active; 'I' for Inactive)
REMARK    1  A    between atoms: C_1  and  O_2
REMARK    2  A    between atoms: O_2  and  C_3
REMARK    3  A    between atoms: C_6  and  C_7
REMARK    4  A    between atoms: C_9  and  C_10
REMARK    5  A    between atoms: C_19  and  C_21
REMARK    6  A    between atoms: C_31  and  O_32
REMARK    7  A    between atoms: O_32  and  C_33
REMARK                            x       y       z     vdW  Elec       q    Type
REMARK                         _______ _______ _______ _____ _____    ______ ____
ROOT
ATOM      1  C   UNL     1      -1.091  11.143  19.360  0.00  0.00    +0.000 C 
ATOM      2  C   UNL     1      -0.687   9.685  19.212  0.00  0.00    +0.000 C 
ATOM      3  C   UNL     1       0.785   9.849  18.952  0.00  0.00    +0.000 C 
ATOM      4  N   UNL     1       1.186  11.069  18.754  0.00  0.00    +0.000 NA
ATOM      5  N   UNL     1       0.084  11.880  18.878  0.00  0.00    +0.000 N 
ATOM      6  C   UNL     1       0.150  13.277  18.971  0.00  0.00    +0.000 C 
ATOM      7  O   UNL     1      -0.879  13.906  19.247  0.00  0.00    +0.000 OA
ENDROOT
BRANCH   6   8
ATOM      8  C   UNL     1       1.397  14.019  18.781  0.00  0.00    +0.000 A 
ATOM      9  C   UNL     1       1.626  15.332  19.170  0.00  0.00    +0.000 A 
ATOM     10  C   UNL     1       2.983  15.626  18.928  0.00  0.00    +0.000 A 
ATOM     11  C   UNL     1       3.810  16.740  19.154  0.00  0.00    +0.000 A 
ATOM     12  C   UNL     1       5.153  16.668  18.772  0.00  0.00    +0.000 A 
ATOM     13  C   UNL     1       5.660  15.514  18.172  0.00  0.00    +0.000 A 
ATOM     14  C   UNL     1       4.852  14.389  17.947  0.00  0.00    +0.000 A 
ATOM     15  C   UNL     1       3.516  14.481  18.347  0.00  0.00    +0.000 A 
ATOM     16  O   UNL     1       2.557  13.504  18.251  0.00  0.00    +0.000 OA
ENDBRANCH   6   8
BRANCH   3  17
ATOM     17  C   UNL     1       1.687   8.673  18.913  0.00  0.00    +0.000 A 
ATOM     18  C   UNL     1       1.746   7.756  19.971  0.00  0.00    +0.000 A 
ATOM     19  C   UNL     1       2.604   6.656  19.893  0.00  0.00    +0.000 A 
ATOM     20  C   UNL     1       3.401   6.471  18.765  0.00  0.00    +0.000 A 
ATOM     21 CL   UNL     1       4.456   5.114  18.673  0.00  0.00    +0.000 Cl
ATOM     22  C   UNL     1       3.351   7.381  17.711  0.00  0.00    +0.000 A 
ATOM     23  C   UNL     1       2.491   8.479  17.784  0.00  0.00    +0.000 A 
ENDBRANCH   3  17
BRANCH   1  27
ATOM     24  C   UNL     1      -4.907  12.056  17.496  0.00  0.00    +0.000 A 
ATOM     25  C   UNL     1      -4.706  12.233  18.872  0.00  0.00    +0.000 A 
ATOM     26  C   UNL     1      -3.480  11.925  19.462  0.00  0.00    +0.000 A 
ATOM     27  C   UNL     1      -2.429  11.403  18.695  0.00  0.00    +0.000 A 
ATOM     28  C   UNL     1      -2.676  11.119  17.347  0.00  0.00    +0.000 A 
ATOM     29  C   UNL     1      -3.902  11.439  16.734  0.00  0.00    +0.000 A 
BRANCH  24  31
ATOM     30  C   UNL     1      -7.192  12.591  17.796  0.00  0.00    +0.000 C 
ATOM     31  O   UNL     1      -6.083  12.443  16.908  0.00  0.00    +0.000 OA
ENDBRANCH  24  31
BRANCH  29  32
ATOM     32  O   UNL     1      -3.916  11.095  15.408  0.00  0.00    +0.000 OA
ATOM     33  C   UNL     1      -2.967  10.159  14.928  0.00  0.00    +0.000 C 
ENDBRANCH  29  32
ENDBRANCH   1  27
TORSDOF 5
ENDMDL
MODEL 5
REMARK VINA RESULT:      -7.5      3.806      5.682
REMARK  Name = 
REMARK  7 active torsions:
REMARK  status: ('A' for Active; 'I' for Inactive)
REMARK    1  A    between atoms: C_1  and  O_2
REMARK    2  A    between atoms: O_2  and  C_3
REMARK    3  A    between atoms: C_6  and  C_7
REMARK    4  A    between atoms: C_9  and  C_10
REMARK    5  A    between atoms: C_19  and  C_21
REMARK    6  A    between atoms: C_31  and  O_32
REMARK    7  A    between atoms: O_32  and  C_33
REMARK                            x       y       z     vdW  Elec       q    Type
REMARK                         _______ _______ _______ _____ _____    ______ ____
ROOT
ATOM      1  C   UNL     1      -0.589  12.605  19.503  0.00  0.00    +0.000 C 
ATOM      2  C   UNL     1       0.190  13.903  19.649  0.00  0.00    +0.000 C 
ATOM      3  C   UNL     1       1.590  13.386  19.466  0.00  0.00    +0.000 C 
ATOM      4  N   UNL     1       1.711  12.093  19.442  0.00  0.00    +0.000 NA
ATOM      5  N   UNL     1       0.448  11.567  19.570  0.00  0.00    +0.000 N 
ATOM      6  C   UNL     1       0.137  10.219  19.348  0.00  0.00    +0.000 C 
ATOM      7  O   UNL     1      -1.052   9.876  19.325  0.00  0.00    +0.000 OA
ENDROOT
BRANCH   6   8
ATOM      8  C   UNL     1       1.166   9.204  19.116  0.00  0.00    +0.000 A 
ATOM      9  C   UNL     1       1.470   8.150  19.967  0.00  0.00    +0.000 A 
ATOM     10  C   UNL     1       2.421   7.333  19.322  0.00  0.00    +0.000 A 
ATOM     11  C   UNL     1       3.063   6.124  19.638  0.00  0.00    +0.000 A 
ATOM     12  C   UNL     1       3.978   5.590  18.726  0.00  0.00    +0.000 A 
ATOM     13  C   UNL     1       4.252   6.250  17.526  0.00  0.00    +0.000 A 
ATOM     14  C   UNL     1       3.614   7.454  17.190  0.00  0.00    +0.000 A 
ATOM     15  C   UNL     1       2.697   7.962  18.113  0.00  0.00    +0.000 A 
ATOM     16  O   UNL     1       1.941   9.101  17.985  0.00  0.00    +0.000 OA
ENDBRANCH   6   8
BRANCH   3  17
ATOM     17  C   UNL     1       2.736  14.319  19.344  0.00  0.00    +0.000 A 
ATOM     18  C   UNL     1       3.628  14.531  20.402  0.00  0.00    +0.000 A 
ATOM     19  C   UNL     1       4.699  15.414  20.245  0.00  0.00    +0.000 A 
ATOM     20  C   UNL     1       4.880  16.085  19.036  0.00  0.00    +0.000 A 
ATOM     21 CL   UNL     1       6.201  17.171  18.847  0.00  0.00    +0.000 Cl
ATOM     22  C   UNL     1       3.994  15.883  17.981  0.00  0.00    +0.000 A 
ATOM     23  C   UNL     1       2.924  14.997  18.133  0.00  0.00    +0.000 A 
ENDBRANCH   3  17
BRANCH   1  27
ATOM     24  C   UNL     1      -3.798  12.573  22.431  0.00  0.00    +0.000 A 
ATOM     25  C   UNL     1      -2.474  12.288  22.795  0.00  0.00    +0.000 A 
ATOM     26  C   UNL     1      -1.453  12.290  21.844  0.00  0.00    +0.000 A 
ATOM     27  C   UNL     1      -1.734  12.548  20.496  0.00  0.00    +0.000 A 
ATOM     28  C   UNL     1      -3.073  12.714  20.122  0.00  0.00    +0.000 A 
ATOM     29  C   UNL     1      -4.111  12.731  21.072  0.00  0.00    +0.000 A 
BRANCH  24  31
ATOM     30  C   UNL     1      -4.346  12.463  24.730  0.00  0.00    +0.000 C 
ATOM     31  O   UNL     1      -4.780  12.657  23.383  0.00  0.00    +0.000 OA
ENDBRANCH  24  31
BRANCH  29  32
ATOM     32  O   UNL     1      -5.335  12.930  20.488  0.00  0.00    +0.000 OA
ATOM     33  C   UNL     1      -5.894  11.903  19.688  0.00  0.00    +0.000 C 
ENDBRANCH  29  32
ENDBRANCH   1  27
TORSDOF 5
ENDMDL
MODEL 6
REMARK VINA RESULT:      -7.4      3.812      7.518
REMARK  Name = 
REMARK  7 active torsions:
REMARK  status: ('A' for Active; 'I' for Inactive)
REMARK    1  A    between atoms: C_1  and  O_2
REMARK    2  A    between atoms: O_2  and  C_3
REMARK    3  A    between atoms: C_6  and  C_7
REMARK    4  A    between atoms: C_9  and  C_10
REMARK    5  A    between atoms: C_19  and  C_21
REMARK    6  A    between atoms: C_31  and  O_32
REMARK    7  A    between atoms: O_32  and  C_33
REMARK                            x       y       z     vdW  Elec       q    Type
REMARK                         _______ _______ _______ _____ _____    ______ ____
ROOT
ATOM      1  C   UNL     1      -1.426  12.549  22.076  0.00  0.00    +0.000 C 
ATOM      2  C   UNL     1      -1.052  11.123  21.704  0.00  0.00    +0.000 C 
ATOM      3  C   UNL     1      -0.149  11.390  20.531  0.00  0.00    +0.000 C 
ATOM      4  N   UNL     1      -0.125  12.619  20.111  0.00  0.00    +0.000 NA
ATOM      5  N   UNL     1      -0.958  13.342  20.932  0.00  0.00    +0.000 N 
ATOM      6  C   UNL     1      -1.011  14.743  20.952  0.00  0.00    +0.000 C 
ATOM      7  O   UNL     1      -1.668  15.302  21.839  0.00  0.00    +0.000 OA
ENDROOT
BRANCH   6   8
ATOM      8  C   UNL     1      -0.297  15.569  19.978  0.00  0.00    +0.000 A 
ATOM      9  C   UNL     1       1.056  15.481  19.680  0.00  0.00    +0.000 A 
ATOM     10  C   UNL     1       1.320  16.353  18.605  0.00  0.00    +0.000 A 
ATOM     11  C   UNL     1       2.456  16.662  17.837  0.00  0.00    +0.000 A 
ATOM     12  C   UNL     1       2.340  17.610  16.815  0.00  0.00    +0.000 A 
ATOM     13  C   UNL     1       1.119  18.242  16.568  0.00  0.00    +0.000 A 
ATOM     14  C   UNL     1      -0.028  17.939  17.319  0.00  0.00    +0.000 A 
ATOM     15  C   UNL     1       0.112  16.982  18.326  0.00  0.00    +0.000 A 
ATOM     16  O   UNL     1      -0.872  16.513  19.160  0.00  0.00    +0.000 OA
ENDBRANCH   6   8
BRANCH   3  17
ATOM     17  C   UNL     1       0.633  10.295  19.909  0.00  0.00    +0.000 A 
ATOM     18  C   UNL     1       1.005   9.154  20.631  0.00  0.00    +0.000 A 
ATOM     19  C   UNL     1       1.736   8.141  20.006  0.00  0.00    +0.000 A 
ATOM     20  C   UNL     1       2.096   8.266  18.665  0.00  0.00    +0.000 A 
ATOM     21 CL   UNL     1       2.998   7.015  17.900  0.00  0.00    +0.000 Cl
ATOM     22  C   UNL     1       1.735   9.399  17.942  0.00  0.00    +0.000 A 
ATOM     23  C   UNL     1       1.000  10.412  18.563  0.00  0.00    +0.000 A 
ENDBRANCH   3  17
BRANCH   1  27
ATOM     24  C   UNL     1      -5.579  12.954  23.283  0.00  0.00    +0.000 A 
ATOM     25  C   UNL     1      -4.564  12.733  24.224  0.00  0.00    +0.000 A 
ATOM     26  C   UNL     1      -3.235  12.593  23.824  0.00  0.00    +0.000 A 
ATOM     27  C   UNL     1      -2.889  12.640  22.467  0.00  0.00    +0.000 A 
ATOM     28  C   UNL     1      -3.922  12.742  21.527  0.00  0.00    +0.000 A 
ATOM     29  C   UNL     1      -5.265  12.900  21.916  0.00  0.00    +0.000 A 
BRANCH  24  31
ATOM     30  C   UNL     1      -7.775  12.095  23.484  0.00  0.00    +0.000 C 
ATOM     31  O   UNL     1      -6.869  13.180  23.689  0.00  0.00    +0.000 OA
ENDBRANCH  24  31
BRANCH  29  32
ATOM     32  O   UNL     1      -6.101  13.004  20.836  0.00  0.00    +0.000 OA
ATOM     33  C   UNL     1      -5.796  12.281  19.655  0.00  0.00    +0.000 C 
ENDBRANCH  29  32
ENDBRANCH   1  27
TORSDOF 5
ENDMDL
MODEL 7
REMARK VINA RESULT:      -7.3      0.571      1.022
REMARK  Name = 
REMARK  7 active torsions:
REMARK  status: ('A' for Active; 'I' for Inactive)
REMARK    1  A    between atoms: C_1  and  O_2
REMARK    2  A    between atoms: O_2  and  C_3
REMARK    3  A    between atoms: C_6  and  C_7
REMARK    4  A    between atoms: C_9  and  C_10
REMARK    5  A    between atoms: C_19  and  C_21
REMARK    6  A    between atoms: C_31  and  O_32
REMARK    7  A    between atoms: O_32  and  C_33
REMARK                            x       y       z     vdW  Elec       q    Type
REMARK                         _______ _______ _______ _____ _____    ______ ____
ROOT
ATOM      1  C   UNL     1      -0.991  11.742  20.481  0.00  0.00    +0.000 C 
ATOM      2  C   UNL     1      -1.843  12.076  19.267  0.00  0.00    +0.000 C 
ATOM      3  C   UNL     1      -1.561  10.870  18.413  0.00  0.00    +0.000 C 
ATOM      4  N   UNL     1      -0.617  10.088  18.844  0.00  0.00    +0.000 NA
ATOM      5  N   UNL     1      -0.161  10.619  20.026  0.00  0.00    +0.000 N 
ATOM      6  C   UNL     1       0.684   9.938  20.913  0.00  0.00    +0.000 C 
ATOM      7  O   UNL     1       0.904  10.432  22.026  0.00  0.00    +0.000 OA
ENDROOT
BRANCH   6   8
ATOM      8  C   UNL     1       1.295   8.651  20.582  0.00  0.00    +0.000 A 
ATOM      9  C   UNL     1       1.155   7.477  21.310  0.00  0.00    +0.000 A 
ATOM     10  C   UNL     1       1.787   6.442  20.592  0.00  0.00    +0.000 A 
ATOM     11  C   UNL     1       1.937   5.057  20.776  0.00  0.00    +0.000 A 
ATOM     12  C   UNL     1       2.653   4.325  19.824  0.00  0.00    +0.000 A 
ATOM     13  C   UNL     1       3.214   4.961  18.714  0.00  0.00    +0.000 A 
ATOM     14  C   UNL     1       3.067   6.342  18.509  0.00  0.00    +0.000 A 
ATOM     15  C   UNL     1       2.339   7.049  19.469  0.00  0.00    +0.000 A 
ATOM     16  O   UNL     1       2.047   8.390  19.461  0.00  0.00    +0.000 OA
ENDBRANCH   6   8
BRANCH   3  17
ATOM     17  C   UNL     1      -2.317  10.631  17.160  0.00  0.00    +0.000 A 
ATOM     18  C   UNL     1      -1.905   9.675  16.224  0.00  0.00    +0.000 A 
ATOM     19  C   UNL     1      -2.649   9.475  15.058  0.00  0.00    +0.000 A 
ATOM     20  C   UNL     1      -3.799  10.227  14.827  0.00  0.00    +0.000 A 
ATOM     21 CL   UNL     1      -4.712   9.977  13.389  0.00  0.00    +0.000 Cl
ATOM     22  C   UNL     1      -4.212  11.183  15.751  0.00  0.00    +0.000 A 
ATOM     23  C   UNL     1      -3.473  11.382  16.920  0.00  0.00    +0.000 A 
ENDBRANCH   3  17
BRANCH   1  27
ATOM     24  C   UNL     1       0.935  15.379  21.869  0.00  0.00    +0.000 A 
ATOM     25  C   UNL     1       1.344  14.741  20.690  0.00  0.00    +0.000 A 
ATOM     26  C   UNL     1       0.726  13.566  20.260  0.00  0.00    +0.000 A 
ATOM     27  C   UNL     1      -0.300  12.982  21.014  0.00  0.00    +0.000 A 
ATOM     28  C   UNL     1      -0.622  13.560  22.248  0.00  0.00    +0.000 A 
ATOM     29  C   UNL     1      -0.018  14.753  22.688  0.00  0.00    +0.000 A 
BRANCH  24  31
ATOM     30  C   UNL     1       2.750  16.496  22.897  0.00  0.00    +0.000 C 
ATOM     31  O   UNL     1       1.485  16.579  22.239  0.00  0.00    +0.000 OA
ENDBRANCH  24  31
BRANCH  29  32
ATOM     32  O   UNL     1      -0.498  15.149  23.908  0.00  0.00    +0.000 OA
ATOM     33  C   UNL     1      -1.615  16.021  23.960  0.00  0.00    +0.000 C 
ENDBRANCH  29  32
ENDBRANCH   1  27
TORSDOF 5
ENDMDL
MODEL 8
REMARK VINA RESULT:      -7.2      3.487      6.534
REMARK  Name = 
REMARK  7 active torsions:
REMARK  status: ('A' for Active; 'I' for Inactive)
REMARK    1  A    between atoms: C_1  and  O_2
REMARK    2  A    between atoms: O_2  and  C_3
REMARK    3  A    between atoms: C_6  and  C_7
REMARK    4  A    between atoms: C_9  and  C_10
REMARK    5  A    between atoms: C_19  and  C_21
REMARK    6  A    between atoms: C_31  and  O_32
REMARK    7  A    between atoms: O_32  and  C_33
REMARK                            x       y       z     vdW  Elec       q    Type
REMARK                         _______ _______ _______ _____ _____    ______ ____
ROOT
ATOM      1  C   UNL     1      -0.421  11.513  21.624  0.00  0.00    +0.000 C 
ATOM      2  C   UNL     1      -0.414  10.077  21.124  0.00  0.00    +0.000 C 
ATOM      3  C   UNL     1       0.885  10.074  20.365  0.00  0.00    +0.000 C 
ATOM      4  N   UNL     1       1.449  11.234  20.215  0.00  0.00    +0.000 NA
ATOM      5  N   UNL     1       0.654  12.154  20.856  0.00  0.00    +0.000 N 
ATOM      6  C   UNL     1       1.047  13.473  21.123  0.00  0.00    +0.000 C 
ATOM      7  O   UNL     1       0.331  14.173  21.851  0.00  0.00    +0.000 OA
ENDROOT
BRANCH   6   8
ATOM      8  C   UNL     1       2.287  14.045  20.597  0.00  0.00    +0.000 A 
ATOM      9  C   UNL     1       3.385  14.431  21.354  0.00  0.00    +0.000 A 
ATOM     10  C   UNL     1       4.414  14.805  20.465  0.00  0.00    +0.000 A 
ATOM     11  C   UNL     1       5.747  15.225  20.614  0.00  0.00    +0.000 A 
ATOM     12  C   UNL     1       6.491  15.519  19.468  0.00  0.00    +0.000 A 
ATOM     13  C   UNL     1       5.919  15.403  18.200  0.00  0.00    +0.000 A 
ATOM     14  C   UNL     1       4.592  14.977  18.031  0.00  0.00    +0.000 A 
ATOM     15  C   UNL     1       3.872  14.679  19.191  0.00  0.00    +0.000 A 
ATOM     16  O   UNL     1       2.580  14.222  19.266  0.00  0.00    +0.000 OA
ENDBRANCH   6   8
BRANCH   3  17
ATOM     17  C   UNL     1       1.445   8.813  19.822  0.00  0.00    +0.000 A 
ATOM     18  C   UNL     1       1.592   7.670  20.618  0.00  0.00    +0.000 A 
ATOM     19  C   UNL     1       2.118   6.499  20.067  0.00  0.00    +0.000 A 
ATOM     20  C   UNL     1       2.497   6.468  18.727  0.00  0.00    +0.000 A 
ATOM     21 CL   UNL     1       3.145   5.023  18.052  0.00  0.00    +0.000 Cl
ATOM     22  C   UNL     1       2.359   7.601  17.930  0.00  0.00    +0.000 A 
ATOM     23  C   UNL     1       1.829   8.773  18.476  0.00  0.00    +0.000 A 
ENDBRANCH   3  17
BRANCH   1  27
ATOM     24  C   UNL     1      -4.468  13.063  21.334  0.00  0.00    +0.000 A 
ATOM     25  C   UNL     1      -3.717  12.763  20.189  0.00  0.00    +0.000 A 
ATOM     26  C   UNL     1      -2.414  12.277  20.293  0.00  0.00    +0.000 A 
ATOM     27  C   UNL     1      -1.815  12.105  21.548  0.00  0.00    +0.000 A 
ATOM     28  C   UNL     1      -2.527  12.517  22.681  0.00  0.00    +0.000 A 
ATOM     29  C   UNL     1      -3.849  12.994  22.592  0.00  0.00    +0.000 A 
BRANCH  24  31
ATOM     30  C   UNL     1      -6.741  12.409  21.352  0.00  0.00    +0.000 C 
ATOM     31  O   UNL     1      -5.777  13.455  21.227  0.00  0.00    +0.000 OA
ENDBRANCH  24  31
BRANCH  29  32
ATOM     32  O   UNL     1      -4.359  13.317  23.821  0.00  0.00    +0.000 OA
ATOM     33  C   UNL     1      -4.505  12.300  24.797  0.00  0.00    +0.000 C 
ENDBRANCH  29  32
ENDBRANCH   1  27
TORSDOF 5
ENDMDL
MODEL 9
REMARK VINA RESULT:      -7.2      3.802      7.697
REMARK  Name = 
REMARK  7 active torsions:
REMARK  status: ('A' for Active; 'I' for Inactive)
REMARK    1  A    between atoms: C_1  and  O_2
REMARK    2  A    between atoms: O_2  and  C_3
REMARK    3  A    between atoms: C_6  and  C_7
REMARK    4  A    between atoms: C_9  and  C_10
REMARK    5  A    between atoms: C_19  and  C_21
REMARK    6  A    between atoms: C_31  and  O_32
REMARK    7  A    between atoms: O_32  and  C_33
REMARK                            x       y       z     vdW  Elec       q    Type
REMARK                         _______ _______ _______ _____ _____    ______ ____
ROOT
ATOM      1  C   UNL     1      -0.575  10.591  19.250  0.00  0.00    +0.000 C 
ATOM      2  C   UNL     1      -0.185   9.146  18.983  0.00  0.00    +0.000 C 
ATOM      3  C   UNL     1       1.305   9.300  18.851  0.00  0.00    +0.000 C 
ATOM      4  N   UNL     1       1.740  10.523  18.810  0.00  0.00    +0.000 NA
ATOM      5  N   UNL     1       0.646  11.345  18.936  0.00  0.00    +0.000 N 
ATOM      6  C   UNL     1       0.728  12.723  19.178  0.00  0.00    +0.000 C 
ATOM      7  O   UNL     1      -0.309  13.346  19.441  0.00  0.00    +0.000 OA
ENDROOT
BRANCH   6   8
ATOM      8  C   UNL     1       1.998  13.449  19.158  0.00  0.00    +0.000 A 
ATOM      9  C   UNL     1       2.668  13.877  18.020  0.00  0.00    +0.000 A 
ATOM     10  C   UNL     1       3.776  14.646  18.433  0.00  0.00    +0.000 A 
ATOM     11  C   UNL     1       4.777  15.376  17.769  0.00  0.00    +0.000 A 
ATOM     12  C   UNL     1       5.745  16.036  18.531  0.00  0.00    +0.000 A 
ATOM     13  C   UNL     1       5.720  15.967  19.925  0.00  0.00    +0.000 A 
ATOM     14  C   UNL     1       4.724  15.250  20.606  0.00  0.00    +0.000 A 
ATOM     15  C   UNL     1       3.762  14.608  19.822  0.00  0.00    +0.000 A 
ATOM     16  O   UNL     1       2.688  13.878  20.268  0.00  0.00    +0.000 OA
ENDBRANCH   6   8
BRANCH   3  17
ATOM     17  C   UNL     1       2.187   8.112  18.757  0.00  0.00    +0.000 A 
ATOM     18  C   UNL     1       2.178   7.110  19.736  0.00  0.00    +0.000 A 
ATOM     19  C   UNL     1       3.020   6.002  19.608  0.00  0.00    +0.000 A 
ATOM     20  C   UNL     1       3.868   5.894  18.507  0.00  0.00    +0.000 A 
ATOM     21 CL   UNL     1       4.903   4.528  18.354  0.00  0.00    +0.000 Cl
ATOM     22  C   UNL     1       3.886   6.888  17.532  0.00  0.00    +0.000 A 
ATOM     23  C   UNL     1       3.042   7.995  17.655  0.00  0.00    +0.000 A 
ENDBRANCH   3  17
BRANCH   1  27
ATOM     24  C   UNL     1      -4.227  11.780  17.222  0.00  0.00    +0.000 A 
ATOM     25  C   UNL     1      -4.146  11.750  18.621  0.00  0.00    +0.000 A 
ATOM     26  C   UNL     1      -2.971  11.355  19.262  0.00  0.00    +0.000 A 
ATOM     27  C   UNL     1      -1.854  10.951  18.519  0.00  0.00    +0.000 A 
ATOM     28  C   UNL     1      -1.982  10.871  17.127  0.00  0.00    +0.000 A 
ATOM     29  C   UNL     1      -3.155  11.281  16.466  0.00  0.00    +0.000 A 
BRANCH  24  31
ATOM     30  C   UNL     1      -6.487  12.442  17.446  0.00  0.00    +0.000 C 
ATOM     31  O   UNL     1      -5.352  12.254  16.600  0.00  0.00    +0.000 OA
ENDBRANCH  24  31
BRANCH  29  32
ATOM     32  O   UNL     1      -3.052  11.139  15.108  0.00  0.00    +0.000 OA
ATOM     33  C   UNL     1      -3.640  10.010  14.485  0.00  0.00    +0.000 C 
ENDBRANCH  29  32
ENDBRANCH   1  27
TORSDOF 5
ENDMDL
