MODEL 1
REMARK VINA RESULT:      -6.8      0.000      0.000
REMARK  Name = 
REMARK  9 active torsions:
REMARK  status: ('A' for Active; 'I' for Inactive)
REMARK    1  A    between atoms: C_1  and  C_2
REMARK    2  A    between atoms: C_2  and  C_3
REMARK    3  A    between atoms: C_2  and  N_7
REMARK    4  A    between atoms: C_3  and  C_4
REMARK    5  A    between atoms: C_4  and  O_6
REMARK    6  A    between atoms: N_7  and  C_8
REMARK    7  A    between atoms: C_15  and  C_16
REMARK    8  A    between atoms: C_25  and  C_26
REMARK    9  A    between atoms: C_26  and  O_28
REMARK                            x       y       z     vdW  Elec       q    Type
REMARK                         _______ _______ _______ _____ _____    ______ ____
ROOT
ATOM      1  C   UNL     1       3.980  14.841  19.787  0.00  0.00    +0.000 C 
ATOM      2  C   UNL     1       3.472  16.285  19.762  0.00  0.00    +0.000 C 
ATOM      3  C   UNL     1       2.818  16.478  21.119  0.00  0.00    +0.000 C 
ATOM      4  N   UNL     1       2.205  15.187  21.379  0.00  0.00    +0.000 N 
ATOM      5  C   UNL     1       1.009  14.958  22.038  0.00  0.00    +0.000 A 
ATOM      6  N   UNL     1       0.480  13.760  21.963  0.00  0.00    +0.000 NA
ATOM      7  C   UNL     1      -0.723  13.484  22.584  0.00  0.00    +0.000 A 
ATOM      8  C   UNL     1      -1.246  12.234  22.498  0.00  0.00    +0.000 A 
ATOM      9  C   UNL     1      -2.505  11.929  23.159  0.00  0.00    +0.000 A 
ATOM     10  C   UNL     1      -3.190  12.848  23.858  0.00  0.00    +0.000 A 
ATOM     11  C   UNL     1      -2.640  14.221  23.934  0.00  0.00    +0.000 A 
ATOM     12  O   UNL     1      -3.279  15.075  24.560  0.00  0.00    +0.000 OA
ATOM     13  N   UNL     1      -1.429  14.461  23.294  0.00  0.00    +0.000 N 
ATOM     14  C   UNL     1      -0.855  15.716  23.364  0.00  0.00    +0.000 A 
ATOM     15  C   UNL     1       0.308  16.019  22.803  0.00  0.00    +0.000 A 
ATOM     16  F   UNL     1       0.862  17.239  22.912  0.00  0.00    +0.000 F 
ATOM     17  C   UNL     1       2.949  14.123  20.698  0.00  0.00    +0.000 C 
ENDROOT
BRANCH   8  18
ATOM     18  C   UNL     1      -0.519  11.179  21.754  0.00  0.00    +0.000 A 
ATOM     19  C   UNL     1      -0.359  11.269  20.361  0.00  0.00    +0.000 A 
ATOM     20  C   UNL     1       0.336  10.271  19.673  0.00  0.00    +0.000 A 
ATOM     21  C   UNL     1       0.861   9.188  20.372  0.00  0.00    +0.000 A 
ATOM     22  F   UNL     1       1.529   8.237  19.705  0.00  0.00    +0.000 F 
ATOM     23  C   UNL     1       0.700   9.073  21.745  0.00  0.00    +0.000 A 
ATOM     24  C   UNL     1       0.009  10.070  22.426  0.00  0.00    +0.000 A 
ATOM     25  F   UNL     1      -0.159   9.943  23.752  0.00  0.00    +0.000 F 
ENDBRANCH   8  18
BRANCH   1  26
ATOM     26  N   UNL     1       5.388  14.790  20.228  0.00  0.00    +0.000 NA
ATOM     27  H   UNL     1       5.414  14.419  21.179  0.00  0.00    +0.000 HD
BRANCH  26  29
ATOM     28  C   UNL     1       6.595  16.504  21.591  0.00  0.00    +0.000 C 
ATOM     29  C   UNL     1       6.076  16.104  20.201  0.00  0.00    +0.000 C 
BRANCH  29  30
ATOM     30  C   UNL     1       7.239  16.013  19.193  0.00  0.00    +0.000 C 
BRANCH  30  31
ATOM     31  C   UNL     1       7.351  14.636  18.578  0.00  0.00    +0.000 C 
ATOM     32  O   UNL     1       6.725  14.255  17.602  0.00  0.00    +0.000 OA
BRANCH  31  33
ATOM     33  O   UNL     1       8.216  13.830  19.235  0.00  0.00    +0.000 OA
ATOM     34  H   UNL     1       7.821  13.320  19.966  0.00  0.00    +0.000 HD
ENDBRANCH  31  33
ENDBRANCH  30  31
ENDBRANCH  29  30
ENDBRANCH  26  29
ENDBRANCH   1  26
BRANCH  10  35
ATOM     35  C   UNL     1      -4.451  12.451  24.523  0.00  0.00    +0.000 C 
ATOM     36  O   UNL     1      -5.448  12.097  23.907  0.00  0.00    +0.000 OA
BRANCH  35  37
ATOM     37  O   UNL     1      -4.434  12.506  25.872  0.00  0.00    +0.000 OA
ATOM     38  H   UNL     1      -4.887  11.750  26.320  0.00  0.00    +0.000 HD
ENDBRANCH  35  37
ENDBRANCH  10  35
TORSDOF 8
ENDMDL
MODEL 2
REMARK VINA RESULT:      -6.7      0.874      1.184
REMARK  Name = 
REMARK  9 active torsions:
REMARK  status: ('A' for Active; 'I' for Inactive)
REMARK    1  A    between atoms: C_1  and  C_2
REMARK    2  A    between atoms: C_2  and  C_3
REMARK    3  A    between atoms: C_2  and  N_7
REMARK    4  A    between atoms: C_3  and  C_4
REMARK    5  A    between atoms: C_4  and  O_6
REMARK    6  A    between atoms: N_7  and  C_8
REMARK    7  A    between atoms: C_15  and  C_16
REMARK    8  A    between atoms: C_25  and  C_26
REMARK    9  A    between atoms: C_26  and  O_28
REMARK                            x       y       z     vdW  Elec       q    Type
REMARK                         _______ _______ _______ _____ _____    ______ ____
ROOT
ATOM      1  C   UNL     1       3.707  14.784  19.384  0.00  0.00    +0.000 C 
ATOM      2  C   UNL     1       3.132  16.198  19.266  0.00  0.00    +0.000 C 
ATOM      3  C   UNL     1       2.526  16.473  20.631  0.00  0.00    +0.000 C 
ATOM      4  N   UNL     1       1.985  15.184  21.020  0.00  0.00    +0.000 N 
ATOM      5  C   UNL     1       0.829  14.958  21.748  0.00  0.00    +0.000 A 
ATOM      6  N   UNL     1       0.353  13.737  21.793  0.00  0.00    +0.000 NA
ATOM      7  C   UNL     1      -0.810  13.462  22.487  0.00  0.00    +0.000 A 
ATOM      8  C   UNL     1      -1.277  12.187  22.525  0.00  0.00    +0.000 A 
ATOM      9  C   UNL     1      -2.493  11.884  23.264  0.00  0.00    +0.000 A 
ATOM     10  C   UNL     1      -3.190  12.827  23.916  0.00  0.00    +0.000 A 
ATOM     11  C   UNL     1      -2.703  14.224  23.857  0.00  0.00    +0.000 A 
ATOM     12  O   UNL     1      -3.354  15.098  24.440  0.00  0.00    +0.000 OA
ATOM     13  N   UNL     1      -1.530  14.462  23.147  0.00  0.00    +0.000 N 
ATOM     14  C   UNL     1      -1.013  15.742  23.091  0.00  0.00    +0.000 A 
ATOM     15  C   UNL     1       0.111  16.048  22.456  0.00  0.00    +0.000 A 
ATOM     16  F   UNL     1       0.612  17.295  22.443  0.00  0.00    +0.000 F 
ATOM     17  C   UNL     1       2.749  14.100  20.395  0.00  0.00    +0.000 C 
ENDROOT
BRANCH   8  18
ATOM     18  C   UNL     1      -0.533  11.107  21.836  0.00  0.00    +0.000 A 
ATOM     19  C   UNL     1       0.287  10.229  22.562  0.00  0.00    +0.000 A 
ATOM     20  C   UNL     1       0.977   9.210  21.900  0.00  0.00    +0.000 A 
ATOM     21  C   UNL     1       0.852   9.075  20.519  0.00  0.00    +0.000 A 
ATOM     22  F   UNL     1       1.514   8.093  19.893  0.00  0.00    +0.000 F 
ATOM     23  C   UNL     1       0.058   9.942  19.783  0.00  0.00    +0.000 A 
ATOM     24  C   UNL     1      -0.628  10.954  20.447  0.00  0.00    +0.000 A 
ATOM     25  F   UNL     1      -1.380  11.800  19.725  0.00  0.00    +0.000 F 
ENDBRANCH   8  18
BRANCH   1  26
ATOM     26  N   UNL     1       5.133  14.829  19.765  0.00  0.00    +0.000 NA
ATOM     27  H   UNL     1       5.207  14.616  20.761  0.00  0.00    +0.000 HD
BRANCH  26  29
ATOM     28  C   UNL     1       6.298  16.789  20.791  0.00  0.00    +0.000 C 
ATOM     29  C   UNL     1       5.786  16.135  19.499  0.00  0.00    +0.000 C 
BRANCH  29  30
ATOM     30  C   UNL     1       6.949  15.895  18.516  0.00  0.00    +0.000 C 
BRANCH  30  31
ATOM     31  C   UNL     1       7.281  14.426  18.377  0.00  0.00    +0.000 C 
ATOM     32  O   UNL     1       6.864  13.697  17.491  0.00  0.00    +0.000 OA
BRANCH  31  33
ATOM     33  O   UNL     1       8.090  13.969  19.361  0.00  0.00    +0.000 OA
ATOM     34  H   UNL     1       9.039  14.145  19.222  0.00  0.00    +0.000 HD
ENDBRANCH  31  33
ENDBRANCH  30  31
ENDBRANCH  29  30
ENDBRANCH  26  29
ENDBRANCH   1  26
BRANCH  10  35
ATOM     35  C   UNL     1      -4.404  12.432  24.667  0.00  0.00    +0.000 C 
ATOM     36  O   UNL     1      -5.414  12.004  24.124  0.00  0.00    +0.000 OA
BRANCH  35  37
ATOM     37  O   UNL     1      -4.327  12.579  26.006  0.00  0.00    +0.000 OA
ATOM     38  H   UNL     1      -4.855  11.921  26.523  0.00  0.00    +0.000 HD
ENDBRANCH  35  37
ENDBRANCH  10  35
TORSDOF 8
ENDMDL
MODEL 3
REMARK VINA RESULT:      -6.7      5.065      8.231
REMARK  Name = 
REMARK  9 active torsions:
REMARK  status: ('A' for Active; 'I' for Inactive)
REMARK    1  A    between atoms: C_1  and  C_2
REMARK    2  A    between atoms: C_2  and  C_3
REMARK    3  A    between atoms: C_2  and  N_7
REMARK    4  A    between atoms: C_3  and  C_4
REMARK    5  A    between atoms: C_4  and  O_6
REMARK    6  A    between atoms: N_7  and  C_8
REMARK    7  A    between atoms: C_15  and  C_16
REMARK    8  A    between atoms: C_25  and  C_26
REMARK    9  A    between atoms: C_26  and  O_28
REMARK                            x       y       z     vdW  Elec       q    Type
REMARK                         _______ _______ _______ _____ _____    ______ ____
ROOT
ATOM      1  C   UNL     1      -6.736  11.088  19.947  0.00  0.00    +0.000 C 
ATOM      2  C   UNL     1      -7.877  11.518  20.873  0.00  0.00    +0.000 C 
ATOM      3  C   UNL     1      -7.556  12.960  21.223  0.00  0.00    +0.000 C 
ATOM      4  N   UNL     1      -6.108  12.963  21.322  0.00  0.00    +0.000 N 
ATOM      5  C   UNL     1      -5.341  13.712  22.199  0.00  0.00    +0.000 A 
ATOM      6  N   UNL     1      -4.072  13.407  22.328  0.00  0.00    +0.000 NA
ATOM      7  C   UNL     1      -3.268  14.109  23.207  0.00  0.00    +0.000 A 
ATOM      8  C   UNL     1      -1.955  13.779  23.316  0.00  0.00    +0.000 A 
ATOM      9  C   UNL     1      -1.096  14.520  24.228  0.00  0.00    +0.000 A 
ATOM     10  C   UNL     1      -1.555  15.528  24.985  0.00  0.00    +0.000 A 
ATOM     11  C   UNL     1      -2.991  15.876  24.893  0.00  0.00    +0.000 A 
ATOM     12  O   UNL     1      -3.421  16.791  25.604  0.00  0.00    +0.000 OA
ATOM     13  N   UNL     1      -3.769  15.147  23.999  0.00  0.00    +0.000 N 
ATOM     14  C   UNL     1      -5.108  15.454  23.848  0.00  0.00    +0.000 A 
ATOM     15  C   UNL     1      -5.911  14.824  23.002  0.00  0.00    +0.000 A 
ATOM     16  F   UNL     1      -7.202  15.162  22.849  0.00  0.00    +0.000 F 
ATOM     17  C   UNL     1      -5.535  11.925  20.460  0.00  0.00    +0.000 C 
ENDROOT
BRANCH   8  18
ATOM     18  C   UNL     1      -1.397  12.685  22.488  0.00  0.00    +0.000 A 
ATOM     19  C   UNL     1      -1.238  11.396  23.021  0.00  0.00    +0.000 A 
ATOM     20  C   UNL     1      -0.718  10.371  22.225  0.00  0.00    +0.000 A 
ATOM     21  C   UNL     1      -0.353  10.637  20.908  0.00  0.00    +0.000 A 
ATOM     22  F   UNL     1       0.141   9.648  20.151  0.00  0.00    +0.000 F 
ATOM     23  C   UNL     1      -0.489  11.908  20.368  0.00  0.00    +0.000 A 
ATOM     24  C   UNL     1      -1.008  12.924  21.163  0.00  0.00    +0.000 A 
ATOM     25  F   UNL     1      -1.119  14.155  20.641  0.00  0.00    +0.000 F 
ENDBRANCH   8  18
BRANCH   1  26
ATOM     26  N   UNL     1      -7.110  11.284  18.531  0.00  0.00    +0.000 NA
ATOM     27  H   UNL     1      -6.950  10.408  18.032  0.00  0.00    +0.000 HD
BRANCH  26  29
ATOM     28  C   UNL     1      -5.319  11.819  16.870  0.00  0.00    +0.000 C 
ATOM     29  C   UNL     1      -6.360  12.372  17.855  0.00  0.00    +0.000 C 
BRANCH  29  30
ATOM     30  C   UNL     1      -7.378  13.268  17.122  0.00  0.00    +0.000 C 
BRANCH  30  31
ATOM     31  C   UNL     1      -6.948  14.718  17.103  0.00  0.00    +0.000 C 
ATOM     32  O   UNL     1      -6.735  15.396  18.096  0.00  0.00    +0.000 OA
BRANCH  31  33
ATOM     33  O   UNL     1      -6.836  15.222  15.852  0.00  0.00    +0.000 OA
ATOM     34  H   UNL     1      -6.557  14.575  15.178  0.00  0.00    +0.000 HD
ENDBRANCH  31  33
ENDBRANCH  30  31
ENDBRANCH  29  30
ENDBRANCH  26  29
ENDBRANCH   1  26
BRANCH  10  35
ATOM     35  C   UNL     1      -0.611  16.249  25.869  0.00  0.00    +0.000 C 
ATOM     36  O   UNL     1       0.449  16.717  25.472  0.00  0.00    +0.000 OA
BRANCH  35  37
ATOM     37  O   UNL     1      -0.995  16.356  27.158  0.00  0.00    +0.000 OA
ATOM     38  H   UNL     1      -0.454  15.825  27.794  0.00  0.00    +0.000 HD
ENDBRANCH  35  37
ENDBRANCH  10  35
TORSDOF 8
ENDMDL
MODEL 4
REMARK VINA RESULT:      -6.7      1.094      1.344
REMARK  Name = 
REMARK  9 active torsions:
REMARK  status: ('A' for Active; 'I' for Inactive)
REMARK    1  A    between atoms: C_1  and  C_2
REMARK    2  A    between atoms: C_2  and  C_3
REMARK    3  A    between atoms: C_2  and  N_7
REMARK    4  A    between atoms: C_3  and  C_4
REMARK    5  A    between atoms: C_4  and  O_6
REMARK    6  A    between atoms: N_7  and  C_8
REMARK    7  A    between atoms: C_15  and  C_16
REMARK    8  A    between atoms: C_25  and  C_26
REMARK    9  A    between atoms: C_26  and  O_28
REMARK                            x       y       z     vdW  Elec       q    Type
REMARK                         _______ _______ _______ _____ _____    ______ ____
ROOT
ATOM      1  C   UNL     1       3.935  15.080  19.979  0.00  0.00    +0.000 C 
ATOM      2  C   UNL     1       3.411  16.519  19.998  0.00  0.00    +0.000 C 
ATOM      3  C   UNL     1       2.747  16.660  21.356  0.00  0.00    +0.000 C 
ATOM      4  N   UNL     1       2.147  15.355  21.569  0.00  0.00    +0.000 N 
ATOM      5  C   UNL     1       0.949  15.091  22.213  0.00  0.00    +0.000 A 
ATOM      6  N   UNL     1       0.434  13.891  22.095  0.00  0.00    +0.000 NA
ATOM      7  C   UNL     1      -0.770  13.582  22.699  0.00  0.00    +0.000 A 
ATOM      8  C   UNL     1      -1.279  12.329  22.568  0.00  0.00    +0.000 A 
ATOM      9  C   UNL     1      -2.539  11.990  23.211  0.00  0.00    +0.000 A 
ATOM     10  C   UNL     1      -3.238  12.878  23.934  0.00  0.00    +0.000 A 
ATOM     11  C   UNL     1      -2.704  14.254  24.059  0.00  0.00    +0.000 A 
ATOM     12  O   UNL     1      -3.356  15.080  24.708  0.00  0.00    +0.000 OA
ATOM     13  N   UNL     1      -1.491  14.527  23.436  0.00  0.00    +0.000 N 
ATOM     14  C   UNL     1      -0.932  15.786  23.550  0.00  0.00    +0.000 A 
ATOM     15  C   UNL     1       0.231  16.120  23.008  0.00  0.00    +0.000 A 
ATOM     16  F   UNL     1       0.771  17.341  23.160  0.00  0.00    +0.000 F 
ATOM     17  C   UNL     1       2.907  14.322  20.860  0.00  0.00    +0.000 C 
ENDROOT
BRANCH   8  18
ATOM     18  C   UNL     1      -0.536  11.308  21.795  0.00  0.00    +0.000 A 
ATOM     19  C   UNL     1      -0.345  11.459  20.412  0.00  0.00    +0.000 A 
ATOM     20  C   UNL     1       0.365  10.491  19.696  0.00  0.00    +0.000 A 
ATOM     21  C   UNL     1       0.874   9.377  20.359  0.00  0.00    +0.000 A 
ATOM     22  F   UNL     1       1.557   8.456  19.665  0.00  0.00    +0.000 F 
ATOM     23  C   UNL     1       0.683   9.203  21.721  0.00  0.00    +0.000 A 
ATOM     24  C   UNL     1      -0.023  10.170  22.430  0.00  0.00    +0.000 A 
ATOM     25  F   UNL     1      -0.220   9.985  23.745  0.00  0.00    +0.000 F 
ENDBRANCH   8  18
BRANCH   1  26
ATOM     26  N   UNL     1       5.341  15.029  20.428  0.00  0.00    +0.000 NA
ATOM     27  H   UNL     1       5.577  15.930  20.849  0.00  0.00    +0.000 HD
BRANCH  26  29
ATOM     28  C   UNL     1       5.644  14.771  17.960  0.00  0.00    +0.000 C 
ATOM     29  C   UNL     1       6.309  14.731  19.344  0.00  0.00    +0.000 C 
BRANCH  29  30
ATOM     30  C   UNL     1       7.451  15.764  19.427  0.00  0.00    +0.000 C 
BRANCH  30  31
ATOM     31  C   UNL     1       7.046  16.997  20.205  0.00  0.00    +0.000 C 
ATOM     32  O   UNL     1       6.420  17.938  19.745  0.00  0.00    +0.000 OA
BRANCH  31  33
ATOM     33  O   UNL     1       7.470  16.975  21.490  0.00  0.00    +0.000 OA
ATOM     34  H   UNL     1       6.756  17.011  22.154  0.00  0.00    +0.000 HD
ENDBRANCH  31  33
ENDBRANCH  30  31
ENDBRANCH  29  30
ENDBRANCH  26  29
ENDBRANCH   1  26
BRANCH  10  35
ATOM     35  C   UNL     1      -4.499  12.446  24.578  0.00  0.00    +0.000 C 
ATOM     36  O   UNL     1      -5.486  12.094  23.943  0.00  0.00    +0.000 OA
BRANCH  35  37
ATOM     37  O   UNL     1      -4.494  12.466  25.927  0.00  0.00    +0.000 OA
ATOM     38  H   UNL     1      -4.357  11.583  26.352  0.00  0.00    +0.000 HD
ENDBRANCH  35  37
ENDBRANCH  10  35
TORSDOF 8
ENDMDL
MODEL 5
REMARK VINA RESULT:      -6.5      2.269      2.699
REMARK  Name = 
REMARK  9 active torsions:
REMARK  status: ('A' for Active; 'I' for Inactive)
REMARK    1  A    between atoms: C_1  and  C_2
REMARK    2  A    between atoms: C_2  and  C_3
REMARK    3  A    between atoms: C_2  and  N_7
REMARK    4  A    between atoms: C_3  and  C_4
REMARK    5  A    between atoms: C_4  and  O_6
REMARK    6  A    between atoms: N_7  and  C_8
REMARK    7  A    between atoms: C_15  and  C_16
REMARK    8  A    between atoms: C_25  and  C_26
REMARK    9  A    between atoms: C_26  and  O_28
REMARK                            x       y       z     vdW  Elec       q    Type
REMARK                         _______ _______ _______ _____ _____    ______ ____
ROOT
ATOM      1  C   UNL     1       1.673  16.519  18.256  0.00  0.00    +0.000 C 
ATOM      2  C   UNL     1       1.075  17.899  18.543  0.00  0.00    +0.000 C 
ATOM      3  C   UNL     1       0.717  17.855  20.019  0.00  0.00    +0.000 C 
ATOM      4  N   UNL     1       0.264  16.490  20.210  0.00  0.00    +0.000 N 
ATOM      5  C   UNL     1      -0.743  16.064  21.060  0.00  0.00    +0.000 A 
ATOM      6  N   UNL     1      -1.193  14.840  20.923  0.00  0.00    +0.000 NA
ATOM      7  C   UNL     1      -2.213  14.373  21.731  0.00  0.00    +0.000 A 
ATOM      8  C   UNL     1      -2.656  13.099  21.575  0.00  0.00    +0.000 A 
ATOM      9  C   UNL     1      -3.720  12.593  22.430  0.00  0.00    +0.000 A 
ATOM     10  C   UNL     1      -4.298  13.347  23.378  0.00  0.00    +0.000 A 
ATOM     11  C   UNL     1      -3.839  14.746  23.536  0.00  0.00    +0.000 A 
ATOM     12  O   UNL     1      -4.384  15.449  24.395  0.00  0.00    +0.000 OA
ATOM     13  N   UNL     1      -2.813  15.180  22.703  0.00  0.00    +0.000 N 
ATOM     14  C   UNL     1      -2.324  16.466  22.833  0.00  0.00    +0.000 A 
ATOM     15  C   UNL     1      -1.333  16.948  22.096  0.00  0.00    +0.000 A 
ATOM     16  F   UNL     1      -0.853  18.192  22.264  0.00  0.00    +0.000 F 
ATOM     17  C   UNL     1       0.915  15.596  19.246  0.00  0.00    +0.000 C 
ENDROOT
BRANCH   8  18
ATOM     18  C   UNL     1      -2.037  12.222  20.555  0.00  0.00    +0.000 A 
ATOM     19  C   UNL     1      -2.603  12.105  19.275  0.00  0.00    +0.000 A 
ATOM     20  C   UNL     1      -2.004  11.280  18.319  0.00  0.00    +0.000 A 
ATOM     21  C   UNL     1      -0.850  10.572  18.645  0.00  0.00    +0.000 A 
ATOM     22  F   UNL     1      -0.280   9.786  17.721  0.00  0.00    +0.000 F 
ATOM     23  C   UNL     1      -0.284  10.663  19.908  0.00  0.00    +0.000 A 
ATOM     24  C   UNL     1      -0.883  11.486  20.855  0.00  0.00    +0.000 A 
ATOM     25  F   UNL     1      -0.341  11.555  22.081  0.00  0.00    +0.000 F 
ENDBRANCH   8  18
BRANCH   1  26
ATOM     26  N   UNL     1       3.144  16.549  18.388  0.00  0.00    +0.000 NA
ATOM     27  H   UNL     1       3.551  16.543  17.452  0.00  0.00    +0.000 HD
BRANCH  26  29
ATOM     28  C   UNL     1       4.326  14.350  18.255  0.00  0.00    +0.000 C 
ATOM     29  C   UNL     1       3.702  15.416  19.168  0.00  0.00    +0.000 C 
BRANCH  29  30
ATOM     30  C   UNL     1       4.755  15.981  20.142  0.00  0.00    +0.000 C 
BRANCH  30  31
ATOM     31  C   UNL     1       5.088  17.426  19.844  0.00  0.00    +0.000 C 
ATOM     32  O   UNL     1       6.012  17.798  19.138  0.00  0.00    +0.000 OA
BRANCH  31  33
ATOM     33  O   UNL     1       4.260  18.299  20.462  0.00  0.00    +0.000 OA
ATOM     34  H   UNL     1       4.551  18.575  21.351  0.00  0.00    +0.000 HD
ENDBRANCH  31  33
ENDBRANCH  30  31
ENDBRANCH  29  30
ENDBRANCH  26  29
ENDBRANCH   1  26
BRANCH  10  35
ATOM     35  C   UNL     1      -5.356  12.749  24.223  0.00  0.00    +0.000 C 
ATOM     36  O   UNL     1      -6.550  12.945  24.035  0.00  0.00    +0.000 OA
BRANCH  35  37
ATOM     37  O   UNL     1      -4.916  11.965  25.229  0.00  0.00    +0.000 OA
ATOM     38  H   UNL     1      -4.664  12.454  26.051  0.00  0.00    +0.000 HD
ENDBRANCH  35  37
ENDBRANCH  10  35
TORSDOF 8
ENDMDL
MODEL 6
REMARK VINA RESULT:      -6.5      4.841      7.352
REMARK  Name = 
REMARK  9 active torsions:
REMARK  status: ('A' for Active; 'I' for Inactive)
REMARK    1  A    between atoms: C_1  and  C_2
REMARK    2  A    between atoms: C_2  and  C_3
REMARK    3  A    between atoms: C_2  and  N_7
REMARK    4  A    between atoms: C_3  and  C_4
REMARK    5  A    between atoms: C_4  and  O_6
REMARK    6  A    between atoms: N_7  and  C_8
REMARK    7  A    between atoms: C_15  and  C_16
REMARK    8  A    between atoms: C_25  and  C_26
REMARK    9  A    between atoms: C_26  and  O_28
REMARK                            x       y       z     vdW  Elec       q    Type
REMARK                         _______ _______ _______ _____ _____    ______ ____
ROOT
ATOM      1  C   UNL     1      -4.930  11.031  17.774  0.00  0.00    +0.000 C 
ATOM      2  C   UNL     1      -6.342  11.367  18.262  0.00  0.00    +0.000 C 
ATOM      3  C   UNL     1      -6.231  12.788  18.788  0.00  0.00    +0.000 C 
ATOM      4  N   UNL     1      -4.911  12.816  19.391  0.00  0.00    +0.000 N 
ATOM      5  C   UNL     1      -4.536  13.517  20.525  0.00  0.00    +0.000 A 
ATOM      6  N   UNL     1      -3.380  13.233  21.075  0.00  0.00    +0.000 NA
ATOM      7  C   UNL     1      -2.968  13.887  22.220  0.00  0.00    +0.000 A 
ATOM      8  C   UNL     1      -1.762  13.581  22.766  0.00  0.00    +0.000 A 
ATOM      9  C   UNL     1      -1.313  14.273  23.964  0.00  0.00    +0.000 A 
ATOM     10  C   UNL     1      -2.054  15.214  24.569  0.00  0.00    +0.000 A 
ATOM     11  C   UNL     1      -3.382  15.535  23.997  0.00  0.00    +0.000 A 
ATOM     12  O   UNL     1      -4.075  16.387  24.564  0.00  0.00    +0.000 OA
ATOM     13  N   UNL     1      -3.763  14.854  22.845  0.00  0.00    +0.000 N 
ATOM     14  C   UNL     1      -4.976  15.141  22.251  0.00  0.00    +0.000 A 
ATOM     15  C   UNL     1      -5.402  14.555  21.140  0.00  0.00    +0.000 A 
ATOM     16  F   UNL     1      -6.572  14.875  20.561  0.00  0.00    +0.000 F 
ATOM     17  C   UNL     1      -4.025  11.856  18.727  0.00  0.00    +0.000 C 
ENDROOT
BRANCH   8  18
ATOM     18  C   UNL     1      -0.900  12.562  22.124  0.00  0.00    +0.000 A 
ATOM     19  C   UNL     1      -0.022  12.919  21.089  0.00  0.00    +0.000 A 
ATOM     20  C   UNL     1       0.792  11.949  20.497  0.00  0.00    +0.000 A 
ATOM     21  C   UNL     1       0.722  10.629  20.936  0.00  0.00    +0.000 A 
ATOM     22  F   UNL     1       1.509   9.706  20.366  0.00  0.00    +0.000 F 
ATOM     23  C   UNL     1      -0.150  10.254  21.947  0.00  0.00    +0.000 A 
ATOM     24  C   UNL     1      -0.956  11.223  22.533  0.00  0.00    +0.000 A 
ATOM     25  F   UNL     1      -1.811  10.849  23.498  0.00  0.00    +0.000 F 
ENDBRANCH   8  18
BRANCH   1  26
ATOM     26  N   UNL     1      -4.793  11.320  16.332  0.00  0.00    +0.000 NA
ATOM     27  H   UNL     1      -5.671  11.077  15.870  0.00  0.00    +0.000 HD
BRANCH  26  29
ATOM     28  C   UNL     1      -2.939   9.675  16.660  0.00  0.00    +0.000 C 
ATOM     29  C   UNL     1      -3.681  10.590  15.674  0.00  0.00    +0.000 C 
BRANCH  29  30
ATOM     30  C   UNL     1      -4.272   9.769  14.511  0.00  0.00    +0.000 C 
BRANCH  30  31
ATOM     31  C   UNL     1      -3.400   9.826  13.276  0.00  0.00    +0.000 C 
ATOM     32  O   UNL     1      -2.192   9.650  13.265  0.00  0.00    +0.000 OA
BRANCH  31  33
ATOM     33  O   UNL     1      -4.093  10.118  12.151  0.00  0.00    +0.000 OA
ATOM     34  H   UNL     1      -4.800   9.483  11.933  0.00  0.00    +0.000 HD
ENDBRANCH  31  33
ENDBRANCH  30  31
ENDBRANCH  29  30
ENDBRANCH  26  29
ENDBRANCH   1  26
BRANCH  10  35
ATOM     35  C   UNL     1      -1.514  15.890  25.770  0.00  0.00    +0.000 C 
ATOM     36  O   UNL     1      -0.714  15.361  26.531  0.00  0.00    +0.000 OA
BRANCH  35  37
ATOM     37  O   UNL     1      -1.967  17.144  25.979  0.00  0.00    +0.000 OA
ATOM     38  H   UNL     1      -2.896  17.195  26.315  0.00  0.00    +0.000 HD
ENDBRANCH  35  37
ENDBRANCH  10  35
TORSDOF 8
ENDMDL
MODEL 7
REMARK VINA RESULT:      -6.5      1.182      1.594
REMARK  Name = 
REMARK  9 active torsions:
REMARK  status: ('A' for Active; 'I' for Inactive)
REMARK    1  A    between atoms: C_1  and  C_2
REMARK    2  A    between atoms: C_2  and  C_3
REMARK    3  A    between atoms: C_2  and  N_7
REMARK    4  A    between atoms: C_3  and  C_4
REMARK    5  A    between atoms: C_4  and  O_6
REMARK    6  A    between atoms: N_7  and  C_8
REMARK    7  A    between atoms: C_15  and  C_16
REMARK    8  A    between atoms: C_25  and  C_26
REMARK    9  A    between atoms: C_26  and  O_28
REMARK                            x       y       z     vdW  Elec       q    Type
REMARK                         _______ _______ _______ _____ _____    ______ ____
ROOT
ATOM      1  C   UNL     1       4.014  15.139  19.879  0.00  0.00    +0.000 C 
ATOM      2  C   UNL     1       3.545  16.591  20.010  0.00  0.00    +0.000 C 
ATOM      3  C   UNL     1       2.914  16.660  21.389  0.00  0.00    +0.000 C 
ATOM      4  N   UNL     1       2.271  15.366  21.526  0.00  0.00    +0.000 N 
ATOM      5  C   UNL     1       1.078  15.101  22.178  0.00  0.00    +0.000 A 
ATOM      6  N   UNL     1       0.517  13.931  21.989  0.00  0.00    +0.000 NA
ATOM      7  C   UNL     1      -0.685  13.623  22.599  0.00  0.00    +0.000 A 
ATOM      8  C   UNL     1      -1.242  12.401  22.394  0.00  0.00    +0.000 A 
ATOM      9  C   UNL     1      -2.501  12.062  23.041  0.00  0.00    +0.000 A 
ATOM     10  C   UNL     1      -3.151  12.923  23.840  0.00  0.00    +0.000 A 
ATOM     11  C   UNL     1      -2.564  14.266  24.046  0.00  0.00    +0.000 A 
ATOM     12  O   UNL     1      -3.171  15.068  24.766  0.00  0.00    +0.000 OA
ATOM     13  N   UNL     1      -1.355  14.540  23.416  0.00  0.00    +0.000 N 
ATOM     14  C   UNL     1      -0.747  15.766  23.603  0.00  0.00    +0.000 A 
ATOM     15  C   UNL     1       0.416  16.096  23.058  0.00  0.00    +0.000 A 
ATOM     16  F   UNL     1       1.003  17.284  23.282  0.00  0.00    +0.000 F 
ATOM     17  C   UNL     1       2.978  14.359  20.729  0.00  0.00    +0.000 C 
ENDROOT
BRANCH   8  18
ATOM     18  C   UNL     1      -0.554  11.411  21.535  0.00  0.00    +0.000 A 
ATOM     19  C   UNL     1       0.238  10.400  22.103  0.00  0.00    +0.000 A 
ATOM     20  C   UNL     1       0.875   9.467  21.281  0.00  0.00    +0.000 A 
ATOM     21  C   UNL     1       0.727   9.550  19.899  0.00  0.00    +0.000 A 
ATOM     22  F   UNL     1       1.339   8.649  19.118  0.00  0.00    +0.000 F 
ATOM     23  C   UNL     1      -0.039  10.550  19.318  0.00  0.00    +0.000 A 
ATOM     24  C   UNL     1      -0.672  11.475  20.140  0.00  0.00    +0.000 A 
ATOM     25  F   UNL     1      -1.396  12.451  19.570  0.00  0.00    +0.000 F 
ENDBRANCH   8  18
BRANCH   1  26
ATOM     26  N   UNL     1       5.427  15.008  20.291  0.00  0.00    +0.000 NA
ATOM     27  H   UNL     1       5.684  15.838  20.826  0.00  0.00    +0.000 HD
BRANCH  26  29
ATOM     28  C   UNL     1       5.635  14.610  17.831  0.00  0.00    +0.000 C 
ATOM     29  C   UNL     1       6.372  14.848  19.158  0.00  0.00    +0.000 C 
BRANCH  29  30
ATOM     30  C   UNL     1       7.238  16.121  19.076  0.00  0.00    +0.000 C 
BRANCH  30  31
ATOM     31  C   UNL     1       8.568  15.861  18.404  0.00  0.00    +0.000 C 
ATOM     32  O   UNL     1       9.114  16.621  17.621  0.00  0.00    +0.000 OA
BRANCH  31  33
ATOM     33  O   UNL     1       9.107  14.667  18.740  0.00  0.00    +0.000 OA
ATOM     34  H   UNL     1       8.481  13.919  18.722  0.00  0.00    +0.000 HD
ENDBRANCH  31  33
ENDBRANCH  30  31
ENDBRANCH  29  30
ENDBRANCH  26  29
ENDBRANCH   1  26
BRANCH  10  35
ATOM     35  C   UNL     1      -4.413  12.491  24.482  0.00  0.00    +0.000 C 
ATOM     36  O   UNL     1      -5.390  12.116  23.846  0.00  0.00    +0.000 OA
BRANCH  35  37
ATOM     37  O   UNL     1      -4.421  12.541  25.830  0.00  0.00    +0.000 OA
ATOM     38  H   UNL     1      -4.626  11.680  26.272  0.00  0.00    +0.000 HD
ENDBRANCH  35  37
ENDBRANCH  10  35
TORSDOF 8
ENDMDL
MODEL 8
REMARK VINA RESULT:      -6.5      2.196      2.647
REMARK  Name = 
REMARK  9 active torsions:
REMARK  status: ('A' for Active; 'I' for Inactive)
REMARK    1  A    between atoms: C_1  and  C_2
REMARK    2  A    between atoms: C_2  and  C_3
REMARK    3  A    between atoms: C_2  and  N_7
REMARK    4  A    between atoms: C_3  and  C_4
REMARK    5  A    between atoms: C_4  and  O_6
REMARK    6  A    between atoms: N_7  and  C_8
REMARK    7  A    between atoms: C_15  and  C_16
REMARK    8  A    between atoms: C_25  and  C_26
REMARK    9  A    between atoms: C_26  and  O_28
REMARK                            x       y       z     vdW  Elec       q    Type
REMARK                         _______ _______ _______ _____ _____    ______ ____
ROOT
ATOM      1  C   UNL     1       1.926  16.421  18.279  0.00  0.00    +0.000 C 
ATOM      2  C   UNL     1       1.304  17.787  18.584  0.00  0.00    +0.000 C 
ATOM      3  C   UNL     1       1.013  17.745  20.074  0.00  0.00    +0.000 C 
ATOM      4  N   UNL     1       0.606  16.369  20.293  0.00  0.00    +0.000 N 
ATOM      5  C   UNL     1      -0.351  15.923  21.189  0.00  0.00    +0.000 A 
ATOM      6  N   UNL     1      -0.773  14.687  21.080  0.00  0.00    +0.000 NA
ATOM      7  C   UNL     1      -1.743  14.198  21.936  0.00  0.00    +0.000 A 
ATOM      8  C   UNL     1      -2.158  12.911  21.807  0.00  0.00    +0.000 A 
ATOM      9  C   UNL     1      -3.169  12.383  22.711  0.00  0.00    +0.000 A 
ATOM     10  C   UNL     1      -3.726  13.128  23.679  0.00  0.00    +0.000 A 
ATOM     11  C   UNL     1      -3.299  14.540  23.807  0.00  0.00    +0.000 A 
ATOM     12  O   UNL     1      -3.824  15.235  24.685  0.00  0.00    +0.000 OA
ATOM     13  N   UNL     1      -2.322  14.996  22.928  0.00  0.00    +0.000 N 
ATOM     14  C   UNL     1      -1.864  16.295  23.028  0.00  0.00    +0.000 A 
ATOM     15  C   UNL     1      -0.919  16.799  22.245  0.00  0.00    +0.000 A 
ATOM     16  F   UNL     1      -0.466  18.056  22.384  0.00  0.00    +0.000 F 
ATOM     17  C   UNL     1       1.237  15.486  19.308  0.00  0.00    +0.000 C 
ENDROOT
BRANCH   8  18
ATOM     18  C   UNL     1      -1.561  12.044  20.766  0.00  0.00    +0.000 A 
ATOM     19  C   UNL     1      -0.357  11.364  21.007  0.00  0.00    +0.000 A 
ATOM     20  C   UNL     1       0.192  10.542  20.018  0.00  0.00    +0.000 A 
ATOM     21  C   UNL     1      -0.458  10.408  18.794  0.00  0.00    +0.000 A 
ATOM     22  F   UNL     1       0.072   9.616  17.853  0.00  0.00    +0.000 F 
ATOM     23  C   UNL     1      -1.641  11.083  18.531  0.00  0.00    +0.000 A 
ATOM     24  C   UNL     1      -2.184  11.898  19.519  0.00  0.00    +0.000 A 
ATOM     25  F   UNL     1      -3.318  12.563  19.252  0.00  0.00    +0.000 F 
ENDBRANCH   8  18
BRANCH   1  26
ATOM     26  N   UNL     1       3.400  16.492  18.346  0.00  0.00    +0.000 NA
ATOM     27  H   UNL     1       3.760  16.615  17.399  0.00  0.00    +0.000 HD
BRANCH  26  29
ATOM     28  C   UNL     1       5.155  14.732  18.067  0.00  0.00    +0.000 C 
ATOM     29  C   UNL     1       4.033  15.295  18.954  0.00  0.00    +0.000 C 
BRANCH  29  30
ATOM     30  C   UNL     1       4.586  15.698  20.336  0.00  0.00    +0.000 C 
BRANCH  30  31
ATOM     31  C   UNL     1       4.494  14.566  21.336  0.00  0.00    +0.000 C 
ATOM     32  O   UNL     1       3.458  14.021  21.680  0.00  0.00    +0.000 OA
BRANCH  31  33
ATOM     33  O   UNL     1       5.696  14.212  21.847  0.00  0.00    +0.000 OA
ATOM     34  H   UNL     1       6.423  14.189  21.198  0.00  0.00    +0.000 HD
ENDBRANCH  31  33
ENDBRANCH  30  31
ENDBRANCH  29  30
ENDBRANCH  26  29
ENDBRANCH   1  26
BRANCH  10  35
ATOM     35  C   UNL     1      -4.729  12.509  24.573  0.00  0.00    +0.000 C 
ATOM     36  O   UNL     1      -5.779  12.027  24.166  0.00  0.00    +0.000 OA
BRANCH  35  37
ATOM     37  O   UNL     1      -4.412  12.510  25.885  0.00  0.00    +0.000 OA
ATOM     38  H   UNL     1      -3.443  12.572  26.073  0.00  0.00    +0.000 HD
ENDBRANCH  35  37
ENDBRANCH  10  35
TORSDOF 8
ENDMDL
MODEL 9
REMARK VINA RESULT:      -6.5      5.095      8.123
REMARK  Name = 
REMARK  9 active torsions:
REMARK  status: ('A' for Active; 'I' for Inactive)
REMARK    1  A    between atoms: C_1  and  C_2
REMARK    2  A    between atoms: C_2  and  C_3
REMARK    3  A    between atoms: C_2  and  N_7
REMARK    4  A    between atoms: C_3  and  C_4
REMARK    5  A    between atoms: C_4  and  O_6
REMARK    6  A    between atoms: N_7  and  C_8
REMARK    7  A    between atoms: C_15  and  C_16
REMARK    8  A    between atoms: C_25  and  C_26
REMARK    9  A    between atoms: C_26  and  O_28
REMARK                            x       y       z     vdW  Elec       q    Type
REMARK                         _______ _______ _______ _____ _____    ______ ____
ROOT
ATOM      1  C   UNL     1      -6.448  11.012  19.685  0.00  0.00    +0.000 C 
ATOM      2  C   UNL     1      -7.669  11.329  20.553  0.00  0.00    +0.000 C 
ATOM      3  C   UNL     1      -7.493  12.790  20.931  0.00  0.00    +0.000 C 
ATOM      4  N   UNL     1      -6.058  12.917  21.106  0.00  0.00    +0.000 N 
ATOM      5  C   UNL     1      -5.406  13.718  22.029  0.00  0.00    +0.000 A 
ATOM      6  N   UNL     1      -4.124  13.523  22.222  0.00  0.00    +0.000 NA
ATOM      7  C   UNL     1      -3.430  14.280  23.147  0.00  0.00    +0.000 A 
ATOM      8  C   UNL     1      -2.100  14.064  23.322  0.00  0.00    +0.000 A 
ATOM      9  C   UNL     1      -1.358  14.865  24.284  0.00  0.00    +0.000 A 
ATOM     10  C   UNL     1      -1.942  15.821  25.024  0.00  0.00    +0.000 A 
ATOM     11  C   UNL     1      -3.396  16.044  24.859  0.00  0.00    +0.000 A 
ATOM     12  O   UNL     1      -3.940  16.910  25.554  0.00  0.00    +0.000 OA
ATOM     13  N   UNL     1      -4.060  15.261  23.920  0.00  0.00    +0.000 N 
ATOM     14  C   UNL     1      -5.411  15.453  23.702  0.00  0.00    +0.000 A 
ATOM     15  C   UNL     1      -6.111  14.766  22.809  0.00  0.00    +0.000 A 
ATOM     16  F   UNL     1      -7.417  14.994  22.591  0.00  0.00    +0.000 F 
ATOM     17  C   UNL     1      -5.353  11.943  20.267  0.00  0.00    +0.000 C 
ENDROOT
BRANCH   8  18
ATOM     18  C   UNL     1      -1.408  13.033  22.516  0.00  0.00    +0.000 A 
ATOM     19  C   UNL     1      -0.581  13.402  21.442  0.00  0.00    +0.000 A 
ATOM     20  C   UNL     1       0.073  12.419  20.694  0.00  0.00    +0.000 A 
ATOM     21  C   UNL     1      -0.105  11.076  21.016  0.00  0.00    +0.000 A 
ATOM     22  F   UNL     1       0.529  10.140  20.296  0.00  0.00    +0.000 F 
ATOM     23  C   UNL     1      -0.928  10.691  22.063  0.00  0.00    +0.000 A 
ATOM     24  C   UNL     1      -1.576  11.673  22.805  0.00  0.00    +0.000 A 
ATOM     25  F   UNL     1      -2.386  11.292  23.805  0.00  0.00    +0.000 F 
ENDBRANCH   8  18
BRANCH   1  26
ATOM     26  N   UNL     1      -6.764  11.193  18.253  0.00  0.00    +0.000 NA
ATOM     27  H   UNL     1      -6.519  10.334  17.758  0.00  0.00    +0.000 HD
BRANCH  26  29
ATOM     28  C   UNL     1      -4.962  11.863  16.656  0.00  0.00    +0.000 C 
ATOM     29  C   UNL     1      -6.060  12.335  17.621  0.00  0.00    +0.000 C 
BRANCH  29  30
ATOM     30  C   UNL     1      -7.107  13.187  16.875  0.00  0.00    +0.000 C 
BRANCH  30  31
ATOM     31  C   UNL     1      -6.840  14.669  17.019  0.00  0.00    +0.000 C 
ATOM     32  O   UNL     1      -6.650  15.244  18.079  0.00  0.00    +0.000 OA
BRANCH  31  33
ATOM     33  O   UNL     1      -6.852  15.328  15.837  0.00  0.00    +0.000 OA
ATOM     34  H   UNL     1      -7.220  16.230  15.879  0.00  0.00    +0.000 HD
ENDBRANCH  31  33
ENDBRANCH  30  31
ENDBRANCH  29  30
ENDBRANCH  26  29
ENDBRANCH   1  26
BRANCH  10  35
ATOM     35  C   UNL     1      -1.110  16.609  25.962  0.00  0.00    +0.000 C 
ATOM     36  O   UNL     1      -0.666  17.717  25.690  0.00  0.00    +0.000 OA
BRANCH  35  37
ATOM     37  O   UNL     1      -0.868  16.020  27.152  0.00  0.00    +0.000 OA
ATOM     38  H   UNL     1      -0.988  16.612  27.935  0.00  0.00    +0.000 HD
ENDBRANCH  35  37
ENDBRANCH  10  35
TORSDOF 8
ENDMDL
