MODEL 1
REMARK VINA RESULT:      -6.8      0.000      0.000
REMARK  Name = 
REMARK  5 active torsions:
REMARK  status: ('A' for Active; 'I' for Inactive)
REMARK    1  A    between atoms: C_1  and  C_2
REMARK    2  A    between atoms: C_3  and  C_4
REMARK    3  A    between atoms: C_4  and  S_5
REMARK    4  A    between atoms: S_5  and  C_6
REMARK    5  A    between atoms: C_6  and  N_8
REMARK                            x       y       z     vdW  Elec       q    Type
REMARK                         _______ _______ _______ _____ _____    ______ ____
ROOT
ATOM      1  C   UNL     1       2.900   8.137  17.878  0.00  0.00    +0.000 C 
ATOM      2  C   UNL     1       3.221   6.787  18.466  0.00  0.00    +0.000 C 
ATOM      3  C   UNL     1       4.368   6.093  18.278  0.00  0.00    +0.000 C 
ATOM      4  C   UNL     1       4.602   4.873  19.114  0.00  0.00    +0.000 C 
ATOM      5  O   UNL     1       5.722   4.400  19.274  0.00  0.00    +0.000 OA
ATOM      6  C   UNL     1       3.458   4.260  19.818  0.00  0.00    +0.000 A 
ATOM      7  C   UNL     1       3.587   2.989  20.395  0.00  0.00    +0.000 A 
ATOM      8  C   UNL     1       2.524   2.428  21.111  0.00  0.00    +0.000 A 
ATOM      9  C   UNL     1       1.334   3.138  21.262  0.00  0.00    +0.000 A 
ATOM     10  C   UNL     1       1.203   4.402  20.686  0.00  0.00    +0.000 A 
ATOM     11  C   UNL     1       2.266   4.957  19.958  0.00  0.00    +0.000 A 
ATOM     12  C   UNL     1       2.128   6.288  19.360  0.00  0.00    +0.000 C 
ATOM     13  O   UNL     1       1.120   6.958  19.574  0.00  0.00    +0.000 OA
ENDROOT
BRANCH   3  14
ATOM     14  C   UNL     1       5.499   6.562  17.372  0.00  0.00    +0.000 C 
BRANCH  14  15
ATOM     15  S   UNL     1       5.293   6.226  15.592  0.00  0.00    +0.000 S 
BRANCH  15  16
ATOM     16  C   UNL     1       6.577   5.031  15.332  0.00  0.00    +0.000 C 
ATOM     17  S   UNL     1       7.509   4.508  16.636  0.00  0.00    +0.000 S 
BRANCH  16  18
ATOM     18  N   UNL     1       6.793   4.622  14.016  0.00  0.00    +0.000 N 
ATOM     19  C   UNL     1       7.844   5.091  13.115  0.00  0.00    +0.000 C 
ATOM     20  C   UNL     1       7.337   4.725  11.728  0.00  0.00    +0.000 C 
ATOM     21  C   UNL     1       6.606   3.413  11.957  0.00  0.00    +0.000 C 
ATOM     22  C   UNL     1       6.021   3.560  13.357  0.00  0.00    +0.000 C 
ENDBRANCH  16  18
ENDBRANCH  15  16
ENDBRANCH  14  15
ENDBRANCH   3  14
TORSDOF 4
ENDMDL
MODEL 2
REMARK VINA RESULT:      -6.6      4.341      7.553
REMARK  Name = 
REMARK  5 active torsions:
REMARK  status: ('A' for Active; 'I' for Inactive)
REMARK    1  A    between atoms: C_1  and  C_2
REMARK    2  A    between atoms: C_3  and  C_4
REMARK    3  A    between atoms: C_4  and  S_5
REMARK    4  A    between atoms: S_5  and  C_6
REMARK    5  A    between atoms: C_6  and  N_8
REMARK                            x       y       z     vdW  Elec       q    Type
REMARK                         _______ _______ _______ _____ _____    ______ ____
ROOT
ATOM      1  C   UNL     1       1.653   4.988  20.185  0.00  0.00    +0.000 C 
ATOM      2  C   UNL     1       2.556   5.456  19.073  0.00  0.00    +0.000 C 
ATOM      3  C   UNL     1       2.738   6.740  18.685  0.00  0.00    +0.000 C 
ATOM      4  C   UNL     1       3.835   7.038  17.711  0.00  0.00    +0.000 C 
ATOM      5  O   UNL     1       4.300   8.165  17.580  0.00  0.00    +0.000 OA
ATOM      6  C   UNL     1       4.419   5.928  16.932  0.00  0.00    +0.000 A 
ATOM      7  C   UNL     1       5.258   6.199  15.843  0.00  0.00    +0.000 A 
ATOM      8  C   UNL     1       5.858   5.150  15.137  0.00  0.00    +0.000 A 
ATOM      9  C   UNL     1       5.630   3.831  15.522  0.00  0.00    +0.000 A 
ATOM     10  C   UNL     1       4.793   3.559  16.605  0.00  0.00    +0.000 A 
ATOM     11  C   UNL     1       4.183   4.612  17.304  0.00  0.00    +0.000 A 
ATOM     12  C   UNL     1       3.308   4.323  18.444  0.00  0.00    +0.000 C 
ATOM     13  O   UNL     1       3.185   3.170  18.849  0.00  0.00    +0.000 OA
ENDROOT
BRANCH   3  14
ATOM     14  C   UNL     1       1.987   7.918  19.293  0.00  0.00    +0.000 C 
BRANCH  14  15
ATOM     15  S   UNL     1       1.409   9.192  18.123  0.00  0.00    +0.000 S 
BRANCH  15  16
ATOM     16  C   UNL     1       0.261  10.079  19.144  0.00  0.00    +0.000 C 
ATOM     17  S   UNL     1       0.627  10.357  20.766  0.00  0.00    +0.000 S 
BRANCH  16  18
ATOM     18  N   UNL     1      -0.942  10.456  18.548  0.00  0.00    +0.000 N 
ATOM     19  C   UNL     1      -1.540   9.882  17.345  0.00  0.00    +0.000 C 
ATOM     20  C   UNL     1      -2.528  10.941  16.877  0.00  0.00    +0.000 C 
ATOM     21  C   UNL     1      -3.050  11.531  18.176  0.00  0.00    +0.000 C 
ATOM     22  C   UNL     1      -1.853  11.458  19.117  0.00  0.00    +0.000 C 
ENDBRANCH  16  18
ENDBRANCH  15  16
ENDBRANCH  14  15
ENDBRANCH   3  14
TORSDOF 4
ENDMDL
MODEL 3
REMARK VINA RESULT:      -6.6      3.899      6.231
REMARK  Name = 
REMARK  5 active torsions:
REMARK  status: ('A' for Active; 'I' for Inactive)
REMARK    1  A    between atoms: C_1  and  C_2
REMARK    2  A    between atoms: C_3  and  C_4
REMARK    3  A    between atoms: C_4  and  S_5
REMARK    4  A    between atoms: S_5  and  C_6
REMARK    5  A    between atoms: C_6  and  N_8
REMARK                            x       y       z     vdW  Elec       q    Type
REMARK                         _______ _______ _______ _____ _____    ______ ____
ROOT
ATOM      1  C   UNL     1       2.997   7.407  17.942  0.00  0.00    +0.000 C 
ATOM      2  C   UNL     1       2.104   8.131  18.917  0.00  0.00    +0.000 C 
ATOM      3  C   UNL     1       1.779   7.707  20.161  0.00  0.00    +0.000 C 
ATOM      4  C   UNL     1       1.060   8.656  21.068  0.00  0.00    +0.000 C 
ATOM      5  O   UNL     1       1.044   8.507  22.285  0.00  0.00    +0.000 OA
ATOM      6  C   UNL     1       0.406   9.844  20.484  0.00  0.00    +0.000 A 
ATOM      7  C   UNL     1      -0.480  10.609  21.255  0.00  0.00    +0.000 A 
ATOM      8  C   UNL     1      -1.059  11.767  20.724  0.00  0.00    +0.000 A 
ATOM      9  C   UNL     1      -0.747  12.169  19.427  0.00  0.00    +0.000 A 
ATOM     10  C   UNL     1       0.133  11.408  18.657  0.00  0.00    +0.000 A 
ATOM     11  C   UNL     1       0.703  10.241  19.188  0.00  0.00    +0.000 A 
ATOM     12  C   UNL     1       1.632   9.446  18.378  0.00  0.00    +0.000 C 
ATOM     13  O   UNL     1       1.987   9.850  17.274  0.00  0.00    +0.000 OA
ENDROOT
BRANCH   3  14
ATOM     14  C   UNL     1       2.232   6.373  20.742  0.00  0.00    +0.000 C 
BRANCH  14  15
ATOM     15  S   UNL     1       1.219   4.922  20.306  0.00  0.00    +0.000 S 
BRANCH  15  16
ATOM     16  C   UNL     1       2.470   3.669  20.194  0.00  0.00    +0.000 C 
ATOM     17  S   UNL     1       2.598   2.506  21.407  0.00  0.00    +0.000 S 
BRANCH  16  18
ATOM     18  N   UNL     1       3.342   3.753  19.109  0.00  0.00    +0.000 N 
ATOM     19  C   UNL     1       4.802   3.807  19.162  0.00  0.00    +0.000 C 
ATOM     20  C   UNL     1       5.203   4.377  17.808  0.00  0.00    +0.000 C 
ATOM     21  C   UNL     1       4.170   3.790  16.862  0.00  0.00    +0.000 C 
ATOM     22  C   UNL     1       2.904   3.707  17.708  0.00  0.00    +0.000 C 
ENDBRANCH  16  18
ENDBRANCH  15  16
ENDBRANCH  14  15
ENDBRANCH   3  14
TORSDOF 4
ENDMDL
MODEL 4
REMARK VINA RESULT:      -6.6      4.058      7.502
REMARK  Name = 
REMARK  5 active torsions:
REMARK  status: ('A' for Active; 'I' for Inactive)
REMARK    1  A    between atoms: C_1  and  C_2
REMARK    2  A    between atoms: C_3  and  C_4
REMARK    3  A    between atoms: C_4  and  S_5
REMARK    4  A    between atoms: S_5  and  C_6
REMARK    5  A    between atoms: C_6  and  N_8
REMARK                            x       y       z     vdW  Elec       q    Type
REMARK                         _______ _______ _______ _____ _____    ______ ____
ROOT
ATOM      1  C   UNL     1       1.640   4.347  19.007  0.00  0.00    +0.000 C 
ATOM      2  C   UNL     1       2.770   4.924  18.193  0.00  0.00    +0.000 C 
ATOM      3  C   UNL     1       3.176   6.216  18.204  0.00  0.00    +0.000 C 
ATOM      4  C   UNL     1       4.450   6.564  17.500  0.00  0.00    +0.000 C 
ATOM      5  O   UNL     1       5.069   7.593  17.747  0.00  0.00    +0.000 OA
ATOM      6  C   UNL     1       5.011   5.608  16.525  0.00  0.00    +0.000 A 
ATOM      7  C   UNL     1       6.050   6.003  15.670  0.00  0.00    +0.000 A 
ATOM      8  C   UNL     1       6.622   5.084  14.784  0.00  0.00    +0.000 A 
ATOM      9  C   UNL     1       6.167   3.767  14.756  0.00  0.00    +0.000 A 
ATOM     10  C   UNL     1       5.131   3.372  15.604  0.00  0.00    +0.000 A 
ATOM     11  C   UNL     1       4.551   4.299  16.483  0.00  0.00    +0.000 A 
ATOM     12  C   UNL     1       3.467   3.880  17.377  0.00  0.00    +0.000 C 
ATOM     13  O   UNL     1       3.132   2.699  17.427  0.00  0.00    +0.000 OA
ENDROOT
BRANCH   3  14
ATOM     14  C   UNL     1       2.489   7.309  19.013  0.00  0.00    +0.000 C 
BRANCH  14  15
ATOM     15  S   UNL     1       1.780   8.690  18.058  0.00  0.00    +0.000 S 
BRANCH  15  16
ATOM     16  C   UNL     1       0.850   9.520  19.321  0.00  0.00    +0.000 C 
ATOM     17  S   UNL     1       0.967   9.003  20.921  0.00  0.00    +0.000 S 
BRANCH  16  18
ATOM     18  N   UNL     1       0.004  10.545  18.900  0.00  0.00    +0.000 N 
ATOM     19  C   UNL     1      -1.408  10.424  18.544  0.00  0.00    +0.000 C 
ATOM     20  C   UNL     1      -1.694  11.669  17.717  0.00  0.00    +0.000 C 
ATOM     21  C   UNL     1      -0.824  12.730  18.370  0.00  0.00    +0.000 C 
ATOM     22  C   UNL     1       0.404  11.958  18.839  0.00  0.00    +0.000 C 
ENDBRANCH  16  18
ENDBRANCH  15  16
ENDBRANCH  14  15
ENDBRANCH   3  14
TORSDOF 4
ENDMDL
MODEL 5
REMARK VINA RESULT:      -6.6      3.296      5.419
REMARK  Name = 
REMARK  5 active torsions:
REMARK  status: ('A' for Active; 'I' for Inactive)
REMARK    1  A    between atoms: C_1  and  C_2
REMARK    2  A    between atoms: C_3  and  C_4
REMARK    3  A    between atoms: C_4  and  S_5
REMARK    4  A    between atoms: S_5  and  C_6
REMARK    5  A    between atoms: C_6  and  N_8
REMARK                            x       y       z     vdW  Elec       q    Type
REMARK                         _______ _______ _______ _____ _____    ______ ____
ROOT
ATOM      1  C   UNL     1       3.418   7.433  17.444  0.00  0.00    +0.000 C 
ATOM      2  C   UNL     1       2.481   7.946  18.507  0.00  0.00    +0.000 C 
ATOM      3  C   UNL     1       2.184   7.322  19.672  0.00  0.00    +0.000 C 
ATOM      4  C   UNL     1       1.406   8.078  20.703  0.00  0.00    +0.000 C 
ATOM      5  O   UNL     1       1.399   7.748  21.884  0.00  0.00    +0.000 OA
ATOM      6  C   UNL     1       0.677   9.296  20.296  0.00  0.00    +0.000 A 
ATOM      7  C   UNL     1      -0.256   9.880  21.163  0.00  0.00    +0.000 A 
ATOM      8  C   UNL     1      -0.908  11.065  20.804  0.00  0.00    +0.000 A 
ATOM      9  C   UNL     1      -0.623  11.674  19.584  0.00  0.00    +0.000 A 
ATOM     10  C   UNL     1       0.304  11.093  18.718  0.00  0.00    +0.000 A 
ATOM     11  C   UNL     1       0.947   9.899  19.075  0.00  0.00    +0.000 A 
ATOM     12  C   UNL     1       1.925   9.294  18.165  0.00  0.00    +0.000 C 
ATOM     13  O   UNL     1       2.253   9.880  17.136  0.00  0.00    +0.000 OA
ENDROOT
BRANCH   3  14
ATOM     14  C   UNL     1       2.722   5.948  20.052  0.00  0.00    +0.000 C 
BRANCH  14  15
ATOM     15  S   UNL     1       2.214   4.563  18.982  0.00  0.00    +0.000 S 
BRANCH  15  16
ATOM     16  C   UNL     1       3.721   3.629  18.916  0.00  0.00    +0.000 C 
ATOM     17  S   UNL     1       3.963   2.355  19.993  0.00  0.00    +0.000 S 
BRANCH  16  18
ATOM     18  N   UNL     1       4.676   4.050  17.991  0.00  0.00    +0.000 N 
ATOM     19  C   UNL     1       4.556   4.023  16.535  0.00  0.00    +0.000 C 
ATOM     20  C   UNL     1       5.993   4.109  16.039  0.00  0.00    +0.000 C 
ATOM     21  C   UNL     1       6.660   5.017  17.059  0.00  0.00    +0.000 C 
ATOM     22  C   UNL     1       5.947   4.686  18.365  0.00  0.00    +0.000 C 
ENDBRANCH  16  18
ENDBRANCH  15  16
ENDBRANCH  14  15
ENDBRANCH   3  14
TORSDOF 4
ENDMDL
MODEL 6
REMARK VINA RESULT:      -6.5      4.071      7.913
REMARK  Name = 
REMARK  5 active torsions:
REMARK  status: ('A' for Active; 'I' for Inactive)
REMARK    1  A    between atoms: C_1  and  C_2
REMARK    2  A    between atoms: C_3  and  C_4
REMARK    3  A    between atoms: C_4  and  S_5
REMARK    4  A    between atoms: S_5  and  C_6
REMARK    5  A    between atoms: C_6  and  N_8
REMARK                            x       y       z     vdW  Elec       q    Type
REMARK                         _______ _______ _______ _____ _____    ______ ____
ROOT
ATOM      1  C   UNL     1       1.716   3.480  19.040  0.00  0.00    +0.000 C 
ATOM      2  C   UNL     1       2.665   4.301  18.205  0.00  0.00    +0.000 C 
ATOM      3  C   UNL     1       2.634   5.647  18.062  0.00  0.00    +0.000 C 
ATOM      4  C   UNL     1       3.784   6.313  17.372  0.00  0.00    +0.000 C 
ATOM      5  O   UNL     1       4.019   7.509  17.507  0.00  0.00    +0.000 OA
ATOM      6  C   UNL     1       4.700   5.490  16.557  0.00  0.00    +0.000 A 
ATOM      7  C   UNL     1       5.625   6.106  15.702  0.00  0.00    +0.000 A 
ATOM      8  C   UNL     1       6.532   5.332  14.970  0.00  0.00    +0.000 A 
ATOM      9  C   UNL     1       6.526   3.945  15.097  0.00  0.00    +0.000 A 
ATOM     10  C   UNL     1       5.604   3.330  15.945  0.00  0.00    +0.000 A 
ATOM     11  C   UNL     1       4.687   4.107  16.669  0.00  0.00    +0.000 A 
ATOM     12  C   UNL     1       3.725   3.459  17.565  0.00  0.00    +0.000 C 
ATOM     13  O   UNL     1       3.782   2.246  17.756  0.00  0.00    +0.000 OA
ENDROOT
BRANCH   3  14
ATOM     14  C   UNL     1       1.570   6.538  18.690  0.00  0.00    +0.000 C 
BRANCH  14  15
ATOM     15  S   UNL     1       2.049   7.404  20.220  0.00  0.00    +0.000 S 
BRANCH  15  16
ATOM     16  C   UNL     1       1.241   8.965  19.981  0.00  0.00    +0.000 C 
ATOM     17  S   UNL     1       1.298   9.714  18.471  0.00  0.00    +0.000 S 
BRANCH  16  18
ATOM     18  N   UNL     1       0.637   9.534  21.102  0.00  0.00    +0.000 N 
ATOM     19  C   UNL     1       0.863   9.168  22.498  0.00  0.00    +0.000 C 
ATOM     20  C   UNL     1      -0.355   9.714  23.230  0.00  0.00    +0.000 C 
ATOM     21  C   UNL     1      -0.667  10.997  22.479  0.00  0.00    +0.000 C 
ATOM     22  C   UNL     1      -0.278  10.682  21.039  0.00  0.00    +0.000 C 
ENDBRANCH  16  18
ENDBRANCH  15  16
ENDBRANCH  14  15
ENDBRANCH   3  14
TORSDOF 4
ENDMDL
MODEL 7
REMARK VINA RESULT:      -6.5      4.833      7.171
REMARK  Name = 
REMARK  5 active torsions:
REMARK  status: ('A' for Active; 'I' for Inactive)
REMARK    1  A    between atoms: C_1  and  C_2
REMARK    2  A    between atoms: C_3  and  C_4
REMARK    3  A    between atoms: C_4  and  S_5
REMARK    4  A    between atoms: S_5  and  C_6
REMARK    5  A    between atoms: C_6  and  N_8
REMARK                            x       y       z     vdW  Elec       q    Type
REMARK                         _______ _______ _______ _____ _____    ______ ____
ROOT
ATOM      1  C   UNL     1       1.161   9.565  17.962  0.00  0.00    +0.000 C 
ATOM      2  C   UNL     1       0.656   9.816  19.360  0.00  0.00    +0.000 C 
ATOM      3  C   UNL     1       1.068   9.174  20.479  0.00  0.00    +0.000 C 
ATOM      4  C   UNL     1       0.618   9.703  21.805  0.00  0.00    +0.000 C 
ATOM      5  O   UNL     1       1.204   9.429  22.847  0.00  0.00    +0.000 OA
ATOM      6  C   UNL     1      -0.526  10.635  21.851  0.00  0.00    +0.000 A 
ATOM      7  C   UNL     1      -1.130  10.947  23.077  0.00  0.00    +0.000 A 
ATOM      8  C   UNL     1      -2.179  11.872  23.131  0.00  0.00    +0.000 A 
ATOM      9  C   UNL     1      -2.620  12.494  21.965  0.00  0.00    +0.000 A 
ATOM     10  C   UNL     1      -2.022  12.183  20.744  0.00  0.00    +0.000 A 
ATOM     11  C   UNL     1      -0.979  11.246  20.690  0.00  0.00    +0.000 A 
ATOM     12  C   UNL     1      -0.348  10.926  19.406  0.00  0.00    +0.000 C 
ATOM     13  O   UNL     1      -0.665  11.545  18.393  0.00  0.00    +0.000 OA
ENDROOT
BRANCH   3  14
ATOM     14  C   UNL     1       2.081   8.036  20.473  0.00  0.00    +0.000 C 
BRANCH  14  15
ATOM     15  S   UNL     1       1.392   6.349  20.447  0.00  0.00    +0.000 S 
BRANCH  15  16
ATOM     16  C   UNL     1       2.422   5.592  19.216  0.00  0.00    +0.000 C 
ATOM     17  S   UNL     1       3.341   6.560  18.185  0.00  0.00    +0.000 S 
BRANCH  16  18
ATOM     18  N   UNL     1       2.368   4.202  19.126  0.00  0.00    +0.000 N 
ATOM     19  C   UNL     1       3.493   3.294  18.915  0.00  0.00    +0.000 C 
ATOM     20  C   UNL     1       2.848   2.010  18.414  0.00  0.00    +0.000 C 
ATOM     21  C   UNL     1       1.536   1.956  19.178  0.00  0.00    +0.000 C 
ATOM     22  C   UNL     1       1.140   3.421  19.326  0.00  0.00    +0.000 C 
ENDBRANCH  16  18
ENDBRANCH  15  16
ENDBRANCH  14  15
ENDBRANCH   3  14
TORSDOF 4
ENDMDL
MODEL 8
REMARK VINA RESULT:      -6.4      1.091      1.105
REMARK  Name = 
REMARK  5 active torsions:
REMARK  status: ('A' for Active; 'I' for Inactive)
REMARK    1  A    between atoms: C_1  and  C_2
REMARK    2  A    between atoms: C_3  and  C_4
REMARK    3  A    between atoms: C_4  and  S_5
REMARK    4  A    between atoms: S_5  and  C_6
REMARK    5  A    between atoms: C_6  and  N_8
REMARK                            x       y       z     vdW  Elec       q    Type
REMARK                         _______ _______ _______ _____ _____    ______ ____
ROOT
ATOM      1  C   UNL     1       2.984   8.282  18.199  0.00  0.00    +0.000 C 
ATOM      2  C   UNL     1       2.972   6.779  18.317  0.00  0.00    +0.000 C 
ATOM      3  C   UNL     1       3.607   5.913  17.493  0.00  0.00    +0.000 C 
ATOM      4  C   UNL     1       3.665   4.471  17.889  0.00  0.00    +0.000 C 
ATOM      5  O   UNL     1       4.494   3.700  17.417  0.00  0.00    +0.000 OA
ATOM      6  C   UNL     1       2.738   3.978  18.926  0.00  0.00    +0.000 A 
ATOM      7  C   UNL     1       2.589   2.600  19.139  0.00  0.00    +0.000 A 
ATOM      8  C   UNL     1       1.754   2.130  20.158  0.00  0.00    +0.000 A 
ATOM      9  C   UNL     1       1.074   3.033  20.973  0.00  0.00    +0.000 A 
ATOM     10  C   UNL     1       1.218   4.404  20.762  0.00  0.00    +0.000 A 
ATOM     11  C   UNL     1       2.047   4.873  19.731  0.00  0.00    +0.000 A 
ATOM     12  C   UNL     1       2.202   6.315  19.515  0.00  0.00    +0.000 C 
ATOM     13  O   UNL     1       1.685   7.113  20.293  0.00  0.00    +0.000 OA
ENDROOT
BRANCH   3  14
ATOM     14  C   UNL     1       4.393   6.345  16.261  0.00  0.00    +0.000 C 
BRANCH  14  15
ATOM     15  S   UNL     1       6.124   6.841  16.546  0.00  0.00    +0.000 S 
BRANCH  15  16
ATOM     16  C   UNL     1       6.962   5.312  16.219  0.00  0.00    +0.000 C 
ATOM     17  S   UNL     1       7.768   4.517  17.468  0.00  0.00    +0.000 S 
BRANCH  16  18
ATOM     18  N   UNL     1       6.961   4.870  14.896  0.00  0.00    +0.000 N 
ATOM     19  C   UNL     1       7.886   5.270  13.838  0.00  0.00    +0.000 C 
ATOM     20  C   UNL     1       7.162   4.904  12.551  0.00  0.00    +0.000 C 
ATOM     21  C   UNL     1       6.414   3.634  12.919  0.00  0.00    +0.000 C 
ATOM     22  C   UNL     1       6.051   3.836  14.386  0.00  0.00    +0.000 C 
ENDBRANCH  16  18
ENDBRANCH  15  16
ENDBRANCH  14  15
ENDBRANCH   3  14
TORSDOF 4
ENDMDL
MODEL 9
REMARK VINA RESULT:      -6.4      4.715      7.376
REMARK  Name = 
REMARK  5 active torsions:
REMARK  status: ('A' for Active; 'I' for Inactive)
REMARK    1  A    between atoms: C_1  and  C_2
REMARK    2  A    between atoms: C_3  and  C_4
REMARK    3  A    between atoms: C_4  and  S_5
REMARK    4  A    between atoms: S_5  and  C_6
REMARK    5  A    between atoms: C_6  and  N_8
REMARK                            x       y       z     vdW  Elec       q    Type
REMARK                         _______ _______ _______ _____ _____    ______ ____
ROOT
ATOM      1  C   UNL     1       1.146   9.436  17.947  0.00  0.00    +0.000 C 
ATOM      2  C   UNL     1       0.649   9.719  19.341  0.00  0.00    +0.000 C 
ATOM      3  C   UNL     1       1.004   9.047  20.461  0.00  0.00    +0.000 C 
ATOM      4  C   UNL     1       0.582   9.603  21.785  0.00  0.00    +0.000 C 
ATOM      5  O   UNL     1       1.138   9.285  22.831  0.00  0.00    +0.000 OA
ATOM      6  C   UNL     1      -0.492  10.615  21.825  0.00  0.00    +0.000 A 
ATOM      7  C   UNL     1      -1.082  10.967  23.047  0.00  0.00    +0.000 A 
ATOM      8  C   UNL     1      -2.062  11.965  23.095  0.00  0.00    +0.000 A 
ATOM      9  C   UNL     1      -2.447  12.620  21.927  0.00  0.00    +0.000 A 
ATOM     10  C   UNL     1      -1.863  12.270  20.710  0.00  0.00    +0.000 A 
ATOM     11  C   UNL     1      -0.890  11.260  20.662  0.00  0.00    +0.000 A 
ATOM     12  C   UNL     1      -0.273  10.898  19.382  0.00  0.00    +0.000 C 
ATOM     13  O   UNL     1      -0.536  11.541  18.368  0.00  0.00    +0.000 OA
ENDROOT
BRANCH   3  14
ATOM     14  C   UNL     1       1.932   7.838  20.461  0.00  0.00    +0.000 C 
BRANCH  14  15
ATOM     15  S   UNL     1       2.418   7.200  18.823  0.00  0.00    +0.000 S 
BRANCH  15  16
ATOM     16  C   UNL     1       3.161   5.656  19.280  0.00  0.00    +0.000 C 
ATOM     17  S   UNL     1       4.832   5.464  19.159  0.00  0.00    +0.000 S 
BRANCH  16  18
ATOM     18  N   UNL     1       2.293   4.635  19.667  0.00  0.00    +0.000 N 
ATOM     19  C   UNL     1       1.928   4.268  21.033  0.00  0.00    +0.000 C 
ATOM     20  C   UNL     1       1.389   2.850  20.908  0.00  0.00    +0.000 C 
ATOM     21  C   UNL     1       0.688   2.860  19.560  0.00  0.00    +0.000 C 
ATOM     22  C   UNL     1       1.528   3.814  18.719  0.00  0.00    +0.000 C 
ENDBRANCH  16  18
ENDBRANCH  15  16
ENDBRANCH  14  15
ENDBRANCH   3  14
TORSDOF 4
ENDMDL
