MODEL 1
REMARK VINA RESULT:      -8.8      0.000      0.000
REMARK  Name = 
REMARK  7 active torsions:
REMARK  status: ('A' for Active; 'I' for Inactive)
REMARK    1  A    between atoms: C_2  and  O_3
REMARK    2  A    between atoms: C_2  and  C_4
REMARK    3  A    between atoms: C_8  and  C_9
REMARK    4  A    between atoms: C_9  and  S_10
REMARK    5  A    between atoms: S_10  and  C_11
REMARK    6  A    between atoms: C_13  and  C_14
REMARK    7  A    between atoms: C_22  and  C_23
REMARK                            x       y       z     vdW  Elec       q    Type
REMARK                         _______ _______ _______ _____ _____    ______ ____
ROOT
ATOM      1  C   UNL     1       4.873   5.835  17.585  0.00  0.00    +0.000 A 
ATOM      2  N   UNL     1       4.118   6.886  17.934  0.00  0.00    +0.000 NA
ATOM      3  C   UNL     1       2.898   6.631  18.459  0.00  0.00    +0.000 A 
ATOM      4  C   UNL     1       2.433   5.336  18.615  0.00  0.00    +0.000 A 
ATOM      5  C   UNL     1       3.281   4.306  18.251  0.00  0.00    +0.000 A 
ATOM      6  N   UNL     1       4.509   4.553  17.736  0.00  0.00    +0.000 NA
ENDROOT
BRANCH   3   7
ATOM      7  C   UNL     1       2.092   7.810  18.849  0.00  0.00    +0.000 A 
ATOM      8  C   UNL     1       1.722   8.027  20.191  0.00  0.00    +0.000 A 
ATOM      9  C   UNL     1       0.960   9.138  20.569  0.00  0.00    +0.000 A 
ATOM     10  C   UNL     1       0.551  10.059  19.608  0.00  0.00    +0.000 A 
ATOM     11 CL   UNL     1      -0.390  11.421  20.068  0.00  0.00    +0.000 Cl
ATOM     12  C   UNL     1       0.897   9.874  18.275  0.00  0.00    +0.000 A 
ATOM     13  C   UNL     1       1.657   8.760  17.900  0.00  0.00    +0.000 A 
ENDBRANCH   3   7
BRANCH   5  14
ATOM     14  C   UNL     1       2.833   2.864  18.437  0.00  0.00    +0.000 C 
ATOM     15  F   UNL     1       3.821   2.060  18.933  0.00  0.00    +0.000 F 
ATOM     16  F   UNL     1       1.791   2.734  19.305  0.00  0.00    +0.000 F 
ATOM     17  F   UNL     1       2.440   2.274  17.273  0.00  0.00    +0.000 F 
ENDBRANCH   5  14
BRANCH   1  18
ATOM     18  S   UNL     1       6.419   6.104  16.759  0.00  0.00    +0.000 S 
BRANCH  18  19
ATOM     19  C   UNL     1       6.759   4.438  16.114  0.00  0.00    +0.000 C 
BRANCH  19  24
ATOM     20  C   UNL     1       6.205   3.542  12.422  0.00  0.00    +0.000 A 
ATOM     21  C   UNL     1       7.070   4.440  11.785  0.00  0.00    +0.000 A 
ATOM     22  C   UNL     1       7.848   5.309  12.550  0.00  0.00    +0.000 A 
ATOM     23  C   UNL     1       7.751   5.299  13.945  0.00  0.00    +0.000 A 
ATOM     24  C   UNL     1       6.867   4.427  14.600  0.00  0.00    +0.000 A 
ATOM     25  C   UNL     1       6.100   3.542  13.821  0.00  0.00    +0.000 A 
BRANCH  20  27
ATOM     26  O   UNL     1       4.245   2.906  11.232  0.00  0.00    +0.000 OA
ATOM     27  C   UNL     1       5.351   2.606  11.651  0.00  0.00    +0.000 C 
BRANCH  27  28
ATOM     28  O   UNL     1       5.891   1.379  11.494  0.00  0.00    +0.000 OA
ATOM     29  H   UNL     1       6.534   1.303  10.768  0.00  0.00    +0.000 HD
ENDBRANCH  27  28
ENDBRANCH  20  27
ENDBRANCH  19  24
ENDBRANCH  18  19
ENDBRANCH   1  18
TORSDOF 7
ENDMDL
MODEL 2
REMARK VINA RESULT:      -8.8      1.545      2.005
REMARK  Name = 
REMARK  7 active torsions:
REMARK  status: ('A' for Active; 'I' for Inactive)
REMARK    1  A    between atoms: C_2  and  O_3
REMARK    2  A    between atoms: C_2  and  C_4
REMARK    3  A    between atoms: C_8  and  C_9
REMARK    4  A    between atoms: C_9  and  S_10
REMARK    5  A    between atoms: S_10  and  C_11
REMARK    6  A    between atoms: C_13  and  C_14
REMARK    7  A    between atoms: C_22  and  C_23
REMARK                            x       y       z     vdW  Elec       q    Type
REMARK                         _______ _______ _______ _____ _____    ______ ____
ROOT
ATOM      1  C   UNL     1       3.637   4.265  18.084  0.00  0.00    +0.000 A 
ATOM      2  N   UNL     1       3.239   5.545  18.047  0.00  0.00    +0.000 NA
ATOM      3  C   UNL     1       2.558   6.018  19.116  0.00  0.00    +0.000 A 
ATOM      4  C   UNL     1       2.262   5.210  20.200  0.00  0.00    +0.000 A 
ATOM      5  C   UNL     1       2.726   3.908  20.171  0.00  0.00    +0.000 A 
ATOM      6  N   UNL     1       3.419   3.431  19.111  0.00  0.00    +0.000 NA
ENDROOT
BRANCH   3   7
ATOM      7  C   UNL     1       2.146   7.438  19.053  0.00  0.00    +0.000 A 
ATOM      8  C   UNL     1       2.323   8.196  17.880  0.00  0.00    +0.000 A 
ATOM      9  C   UNL     1       1.938   9.540  17.812  0.00  0.00    +0.000 A 
ATOM     10  C   UNL     1       1.364  10.155  18.922  0.00  0.00    +0.000 A 
ATOM     11 CL   UNL     1       0.896  11.806  18.843  0.00  0.00    +0.000 Cl
ATOM     12  C   UNL     1       1.177   9.436  20.096  0.00  0.00    +0.000 A 
ATOM     13  C   UNL     1       1.567   8.094  20.161  0.00  0.00    +0.000 A 
ENDBRANCH   3   7
BRANCH   5  14
ATOM     14  C   UNL     1       2.459   2.991  21.355  0.00  0.00    +0.000 C 
ATOM     15  F   UNL     1       2.251   3.674  22.521  0.00  0.00    +0.000 F 
ATOM     16  F   UNL     1       1.354   2.211  21.192  0.00  0.00    +0.000 F 
ATOM     17  F   UNL     1       3.494   2.142  21.616  0.00  0.00    +0.000 F 
ENDBRANCH   5  14
BRANCH   1  18
ATOM     18  S   UNL     1       4.405   3.545  16.656  0.00  0.00    +0.000 S 
BRANCH  18  19
ATOM     19  C   UNL     1       5.441   4.927  16.090  0.00  0.00    +0.000 C 
BRANCH  19  24
ATOM     20  C   UNL     1       5.987   3.534  12.554  0.00  0.00    +0.000 A 
ATOM     21  C   UNL     1       7.146   4.215  12.163  0.00  0.00    +0.000 A 
ATOM     22  C   UNL     1       7.762   5.096  13.051  0.00  0.00    +0.000 A 
ATOM     23  C   UNL     1       7.213   5.316  14.319  0.00  0.00    +0.000 A 
ATOM     24  C   UNL     1       6.034   4.666  14.718  0.00  0.00    +0.000 A 
ATOM     25  C   UNL     1       5.431   3.765  13.822  0.00  0.00    +0.000 A 
BRANCH  20  27
ATOM     26  O   UNL     1       4.212   2.840  11.129  0.00  0.00    +0.000 OA
ATOM     27  C   UNL     1       5.292   2.594  11.641  0.00  0.00    +0.000 C 
BRANCH  27  28
ATOM     28  O   UNL     1       5.942   1.424  11.465  0.00  0.00    +0.000 OA
ATOM     29  H   UNL     1       5.381   0.632  11.521  0.00  0.00    +0.000 HD
ENDBRANCH  27  28
ENDBRANCH  20  27
ENDBRANCH  19  24
ENDBRANCH  18  19
ENDBRANCH   1  18
TORSDOF 7
ENDMDL
MODEL 3
REMARK VINA RESULT:      -8.8      1.112      1.427
REMARK  Name = 
REMARK  7 active torsions:
REMARK  status: ('A' for Active; 'I' for Inactive)
REMARK    1  A    between atoms: C_2  and  O_3
REMARK    2  A    between atoms: C_2  and  C_4
REMARK    3  A    between atoms: C_8  and  C_9
REMARK    4  A    between atoms: C_9  and  S_10
REMARK    5  A    between atoms: S_10  and  C_11
REMARK    6  A    between atoms: C_13  and  C_14
REMARK    7  A    between atoms: C_22  and  C_23
REMARK                            x       y       z     vdW  Elec       q    Type
REMARK                         _______ _______ _______ _____ _____    ______ ____
ROOT
ATOM      1  C   UNL     1       4.380   4.768  18.201  0.00  0.00    +0.000 A 
ATOM      2  N   UNL     1       3.859   6.002  18.252  0.00  0.00    +0.000 NA
ATOM      3  C   UNL     1       2.723   6.171  18.967  0.00  0.00    +0.000 A 
ATOM      4  C   UNL     1       2.107   5.110  19.607  0.00  0.00    +0.000 A 
ATOM      5  C   UNL     1       2.718   3.872  19.524  0.00  0.00    +0.000 A 
ATOM      6  N   UNL     1       3.861   3.697  18.820  0.00  0.00    +0.000 NA
ENDROOT
BRANCH   3   7
ATOM      7  C   UNL     1       2.180   7.547  19.020  0.00  0.00    +0.000 A 
ATOM      8  C   UNL     1       1.658   8.078  20.214  0.00  0.00    +0.000 A 
ATOM      9  C   UNL     1       1.142   9.378  20.273  0.00  0.00    +0.000 A 
ATOM     10  C   UNL     1       1.137  10.175  19.132  0.00  0.00    +0.000 A 
ATOM     11 CL   UNL     1       0.498  11.769  19.199  0.00  0.00    +0.000 Cl
ATOM     12  C   UNL     1       1.643   9.681  17.936  0.00  0.00    +0.000 A 
ATOM     13  C   UNL     1       2.156   8.380  17.880  0.00  0.00    +0.000 A 
ENDBRANCH   3   7
BRANCH   5  14
ATOM     14  C   UNL     1       2.100   2.681  20.240  0.00  0.00    +0.000 C 
ATOM     15  F   UNL     1       0.765   2.844  20.489  0.00  0.00    +0.000 F 
ATOM     16  F   UNL     1       2.196   1.521  19.533  0.00  0.00    +0.000 F 
ATOM     17  F   UNL     1       2.665   2.438  21.456  0.00  0.00    +0.000 F 
ENDBRANCH   5  14
BRANCH   1  18
ATOM     18  S   UNL     1       5.783   4.452  17.162  0.00  0.00    +0.000 S 
BRANCH  18  19
ATOM     19  C   UNL     1       5.380   5.480  15.718  0.00  0.00    +0.000 C 
BRANCH  19  24
ATOM     20  C   UNL     1       5.991   3.526  12.470  0.00  0.00    +0.000 A 
ATOM     21  C   UNL     1       7.247   4.012  12.086  0.00  0.00    +0.000 A 
ATOM     22  C   UNL     1       7.902   4.944  12.889  0.00  0.00    +0.000 A 
ATOM     23  C   UNL     1       7.300   5.408  14.064  0.00  0.00    +0.000 A 
ATOM     24  C   UNL     1       6.028   4.956  14.450  0.00  0.00    +0.000 A 
ATOM     25  C   UNL     1       5.384   4.002  13.642  0.00  0.00    +0.000 A 
BRANCH  20  27
ATOM     26  O   UNL     1       4.155   2.768  11.160  0.00  0.00    +0.000 OA
ATOM     27  C   UNL     1       5.253   2.541  11.643  0.00  0.00    +0.000 C 
BRANCH  27  28
ATOM     28  O   UNL     1       5.885   1.356  11.512  0.00  0.00    +0.000 OA
ATOM     29  H   UNL     1       5.333   0.634  11.164  0.00  0.00    +0.000 HD
ENDBRANCH  27  28
ENDBRANCH  20  27
ENDBRANCH  19  24
ENDBRANCH  18  19
ENDBRANCH   1  18
TORSDOF 7
ENDMDL
MODEL 4
REMARK VINA RESULT:      -8.7      1.542      1.838
REMARK  Name = 
REMARK  7 active torsions:
REMARK  status: ('A' for Active; 'I' for Inactive)
REMARK    1  A    between atoms: C_2  and  O_3
REMARK    2  A    between atoms: C_2  and  C_4
REMARK    3  A    between atoms: C_8  and  C_9
REMARK    4  A    between atoms: C_9  and  S_10
REMARK    5  A    between atoms: S_10  and  C_11
REMARK    6  A    between atoms: C_13  and  C_14
REMARK    7  A    between atoms: C_22  and  C_23
REMARK                            x       y       z     vdW  Elec       q    Type
REMARK                         _______ _______ _______ _____ _____    ______ ____
ROOT
ATOM      1  C   UNL     1       3.834   4.264  18.182  0.00  0.00    +0.000 A 
ATOM      2  N   UNL     1       3.412   5.534  18.109  0.00  0.00    +0.000 NA
ATOM      3  C   UNL     1       2.651   5.998  19.127  0.00  0.00    +0.000 A 
ATOM      4  C   UNL     1       2.301   5.191  20.195  0.00  0.00    +0.000 A 
ATOM      5  C   UNL     1       2.794   3.899  20.207  0.00  0.00    +0.000 A 
ATOM      6  N   UNL     1       3.567   3.431  19.199  0.00  0.00    +0.000 NA
ENDROOT
BRANCH   3   7
ATOM      7  C   UNL     1       2.213   7.409  19.026  0.00  0.00    +0.000 A 
ATOM      8  C   UNL     1       1.566   8.048  20.102  0.00  0.00    +0.000 A 
ATOM      9  C   UNL     1       1.147   9.380  20.016  0.00  0.00    +0.000 A 
ATOM     10  C   UNL     1       1.368  10.104  18.847  0.00  0.00    +0.000 A 
ATOM     11 CL   UNL     1       0.849  11.738  18.736  0.00  0.00    +0.000 Cl
ATOM     12  C   UNL     1       2.002   9.503  17.766  0.00  0.00    +0.000 A 
ATOM     13  C   UNL     1       2.416   8.169  17.855  0.00  0.00    +0.000 A 
ENDBRANCH   3   7
BRANCH   5  14
ATOM     14  C   UNL     1       2.469   2.984  21.378  0.00  0.00    +0.000 C 
ATOM     15  F   UNL     1       3.476   2.101  21.657  0.00  0.00    +0.000 F 
ATOM     16  F   UNL     1       2.248   3.657  22.541  0.00  0.00    +0.000 F 
ATOM     17  F   UNL     1       1.366   2.214  21.162  0.00  0.00    +0.000 F 
ENDBRANCH   5  14
BRANCH   1  18
ATOM     18  S   UNL     1       4.710   3.552  16.814  0.00  0.00    +0.000 S 
BRANCH  18  19
ATOM     19  C   UNL     1       5.385   5.044  16.024  0.00  0.00    +0.000 C 
BRANCH  19  24
ATOM     20  C   UNL     1       5.986   3.551  12.539  0.00  0.00    +0.000 A 
ATOM     21  C   UNL     1       7.159   4.211  12.153  0.00  0.00    +0.000 A 
ATOM     22  C   UNL     1       7.765   5.111  13.028  0.00  0.00    +0.000 A 
ATOM     23  C   UNL     1       7.194   5.370  14.278  0.00  0.00    +0.000 A 
ATOM     24  C   UNL     1       6.002   4.741  14.672  0.00  0.00    +0.000 A 
ATOM     25  C   UNL     1       5.408   3.822  13.789  0.00  0.00    +0.000 A 
BRANCH  20  27
ATOM     26  O   UNL     1       5.796   1.532  11.293  0.00  0.00    +0.000 OA
ATOM     27  C   UNL     1       5.300   2.593  11.638  0.00  0.00    +0.000 C 
BRANCH  27  28
ATOM     28  O   UNL     1       4.099   3.023  11.197  0.00  0.00    +0.000 OA
ATOM     29  H   UNL     1       3.786   3.850  11.602  0.00  0.00    +0.000 HD
ENDBRANCH  27  28
ENDBRANCH  20  27
ENDBRANCH  19  24
ENDBRANCH  18  19
ENDBRANCH   1  18
TORSDOF 7
ENDMDL
MODEL 5
REMARK VINA RESULT:      -8.6      1.100      1.643
REMARK  Name = 
REMARK  7 active torsions:
REMARK  status: ('A' for Active; 'I' for Inactive)
REMARK    1  A    between atoms: C_2  and  O_3
REMARK    2  A    between atoms: C_2  and  C_4
REMARK    3  A    between atoms: C_8  and  C_9
REMARK    4  A    between atoms: C_9  and  S_10
REMARK    5  A    between atoms: S_10  and  C_11
REMARK    6  A    between atoms: C_13  and  C_14
REMARK    7  A    between atoms: C_22  and  C_23
REMARK                            x       y       z     vdW  Elec       q    Type
REMARK                         _______ _______ _______ _____ _____    ______ ____
ROOT
ATOM      1  C   UNL     1       4.258   4.610  18.062  0.00  0.00    +0.000 A 
ATOM      2  N   UNL     1       3.811   5.871  18.151  0.00  0.00    +0.000 NA
ATOM      3  C   UNL     1       2.640   6.074  18.798  0.00  0.00    +0.000 A 
ATOM      4  C   UNL     1       1.917   5.021  19.330  0.00  0.00    +0.000 A 
ATOM      5  C   UNL     1       2.455   3.753  19.215  0.00  0.00    +0.000 A 
ATOM      6  N   UNL     1       3.633   3.544  18.581  0.00  0.00    +0.000 NA
ENDROOT
BRANCH   3   7
ATOM      7  C   UNL     1       2.180   7.478  18.894  0.00  0.00    +0.000 A 
ATOM      8  C   UNL     1       2.296   8.358  17.802  0.00  0.00    +0.000 A 
ATOM      9  C   UNL     1       1.865   9.687  17.884  0.00  0.00    +0.000 A 
ATOM     10  C   UNL     1       1.306  10.164  19.067  0.00  0.00    +0.000 A 
ATOM     11 CL   UNL     1       0.781  11.797  19.173  0.00  0.00    +0.000 Cl
ATOM     12  C   UNL     1       1.179   9.322  20.165  0.00  0.00    +0.000 A 
ATOM     13  C   UNL     1       1.614   7.994  20.080  0.00  0.00    +0.000 A 
ENDBRANCH   3   7
BRANCH   5  14
ATOM     14  C   UNL     1       1.717   2.567  19.817  0.00  0.00    +0.000 C 
ATOM     15  F   UNL     1       2.105   1.371  19.279  0.00  0.00    +0.000 F 
ATOM     16  F   UNL     1       1.910   2.439  21.159  0.00  0.00    +0.000 F 
ATOM     17  F   UNL     1       0.369   2.626  19.626  0.00  0.00    +0.000 F 
ENDBRANCH   5  14
BRANCH   1  18
ATOM     18  S   UNL     1       5.709   4.262  17.103  0.00  0.00    +0.000 S 
BRANCH  18  19
ATOM     19  C   UNL     1       5.536   5.477  15.763  0.00  0.00    +0.000 C 
BRANCH  19  24
ATOM     20  C   UNL     1       6.006   3.562  12.469  0.00  0.00    +0.000 A 
ATOM     21  C   UNL     1       7.236   4.064  12.028  0.00  0.00    +0.000 A 
ATOM     22  C   UNL     1       7.921   4.995  12.808  0.00  0.00    +0.000 A 
ATOM     23  C   UNL     1       7.373   5.441  14.016  0.00  0.00    +0.000 A 
ATOM     24  C   UNL     1       6.126   4.972  14.459  0.00  0.00    +0.000 A 
ATOM     25  C   UNL     1       5.452   4.020  13.674  0.00  0.00    +0.000 A 
BRANCH  20  27
ATOM     26  O   UNL     1       5.678   1.483  11.358  0.00  0.00    +0.000 OA
ATOM     27  C   UNL     1       5.237   2.578  11.668  0.00  0.00    +0.000 C 
BRANCH  27  28
ATOM     28  O   UNL     1       4.025   3.023  11.275  0.00  0.00    +0.000 OA
ATOM     29  H   UNL     1       3.737   2.707  10.401  0.00  0.00    +0.000 HD
ENDBRANCH  27  28
ENDBRANCH  20  27
ENDBRANCH  19  24
ENDBRANCH  18  19
ENDBRANCH   1  18
TORSDOF 7
ENDMDL
MODEL 6
REMARK VINA RESULT:      -8.6      0.826      1.184
REMARK  Name = 
REMARK  7 active torsions:
REMARK  status: ('A' for Active; 'I' for Inactive)
REMARK    1  A    between atoms: C_2  and  O_3
REMARK    2  A    between atoms: C_2  and  C_4
REMARK    3  A    between atoms: C_8  and  C_9
REMARK    4  A    between atoms: C_9  and  S_10
REMARK    5  A    between atoms: S_10  and  C_11
REMARK    6  A    between atoms: C_13  and  C_14
REMARK    7  A    between atoms: C_22  and  C_23
REMARK                            x       y       z     vdW  Elec       q    Type
REMARK                         _______ _______ _______ _____ _____    ______ ____
ROOT
ATOM      1  C   UNL     1       4.028   6.111  17.383  0.00  0.00    +0.000 A 
ATOM      2  N   UNL     1       3.431   7.099  18.066  0.00  0.00    +0.000 NA
ATOM      3  C   UNL     1       2.423   6.760  18.901  0.00  0.00    +0.000 A 
ATOM      4  C   UNL     1       2.005   5.447  19.035  0.00  0.00    +0.000 A 
ATOM      5  C   UNL     1       2.684   4.484  18.312  0.00  0.00    +0.000 A 
ATOM      6  N   UNL     1       3.703   4.814  17.484  0.00  0.00    +0.000 NA
ENDROOT
BRANCH   3   7
ATOM      7  C   UNL     1       1.794   7.869  19.653  0.00  0.00    +0.000 A 
ATOM      8  C   UNL     1       1.472   7.733  21.017  0.00  0.00    +0.000 A 
ATOM      9  C   UNL     1       0.877   8.775  21.737  0.00  0.00    +0.000 A 
ATOM     10  C   UNL     1       0.589   9.981  21.102  0.00  0.00    +0.000 A 
ATOM     11 CL   UNL     1      -0.148  11.260  21.981  0.00  0.00    +0.000 Cl
ATOM     12  C   UNL     1       0.892  10.148  19.756  0.00  0.00    +0.000 A 
ATOM     13  C   UNL     1       1.485   9.102  19.040  0.00  0.00    +0.000 A 
ENDBRANCH   3   7
BRANCH   5  14
ATOM     14  C   UNL     1       2.288   3.022  18.453  0.00  0.00    +0.000 C 
ATOM     15  F   UNL     1       0.936   2.829  18.380  0.00  0.00    +0.000 F 
ATOM     16  F   UNL     1       2.818   2.227  17.482  0.00  0.00    +0.000 F 
ATOM     17  F   UNL     1       2.665   2.480  19.644  0.00  0.00    +0.000 F 
ENDBRANCH   5  14
BRANCH   1  18
ATOM     18  S   UNL     1       5.256   6.506  16.166  0.00  0.00    +0.000 S 
BRANCH  18  19
ATOM     19  C   UNL     1       6.057   4.889  15.948  0.00  0.00    +0.000 C 
BRANCH  19  24
ATOM     20  C   UNL     1       6.093   3.478  12.379  0.00  0.00    +0.000 A 
ATOM     21  C   UNL     1       7.152   4.194  11.808  0.00  0.00    +0.000 A 
ATOM     22  C   UNL     1       7.868   5.105  12.584  0.00  0.00    +0.000 A 
ATOM     23  C   UNL     1       7.516   5.319  13.920  0.00  0.00    +0.000 A 
ATOM     24  C   UNL     1       6.438   4.634  14.502  0.00  0.00    +0.000 A 
ATOM     25  C   UNL     1       5.734   3.704  13.716  0.00  0.00    +0.000 A 
BRANCH  20  27
ATOM     26  O   UNL     1       4.189   2.757  11.146  0.00  0.00    +0.000 OA
ATOM     27  C   UNL     1       5.298   2.506  11.589  0.00  0.00    +0.000 C 
BRANCH  27  28
ATOM     28  O   UNL     1       5.893   1.302  11.447  0.00  0.00    +0.000 OA
ATOM     29  H   UNL     1       5.352   0.628  11.001  0.00  0.00    +0.000 HD
ENDBRANCH  27  28
ENDBRANCH  20  27
ENDBRANCH  19  24
ENDBRANCH  18  19
ENDBRANCH   1  18
TORSDOF 7
ENDMDL
MODEL 7
REMARK VINA RESULT:      -8.6      1.000      1.528
REMARK  Name = 
REMARK  7 active torsions:
REMARK  status: ('A' for Active; 'I' for Inactive)
REMARK    1  A    between atoms: C_2  and  O_3
REMARK    2  A    between atoms: C_2  and  C_4
REMARK    3  A    between atoms: C_8  and  C_9
REMARK    4  A    between atoms: C_9  and  S_10
REMARK    5  A    between atoms: S_10  and  C_11
REMARK    6  A    between atoms: C_13  and  C_14
REMARK    7  A    between atoms: C_22  and  C_23
REMARK                            x       y       z     vdW  Elec       q    Type
REMARK                         _______ _______ _______ _____ _____    ______ ____
ROOT
ATOM      1  C   UNL     1       4.113   6.199  17.729  0.00  0.00    +0.000 A 
ATOM      2  N   UNL     1       3.338   7.177  18.218  0.00  0.00    +0.000 NA
ATOM      3  C   UNL     1       2.551   6.879  19.277  0.00  0.00    +0.000 A 
ATOM      4  C   UNL     1       2.527   5.608  19.825  0.00  0.00    +0.000 A 
ATOM      5  C   UNL     1       3.371   4.660  19.276  0.00  0.00    +0.000 A 
ATOM      6  N   UNL     1       4.172   4.954  18.225  0.00  0.00    +0.000 NA
ENDROOT
BRANCH   3   7
ATOM      7  C   UNL     1       1.718   7.982  19.806  0.00  0.00    +0.000 A 
ATOM      8  C   UNL     1       1.416   9.108  19.016  0.00  0.00    +0.000 A 
ATOM      9  C   UNL     1       0.631  10.157  19.508  0.00  0.00    +0.000 A 
ATOM     10  C   UNL     1       0.130  10.100  20.806  0.00  0.00    +0.000 A 
ATOM     11 CL   UNL     1      -0.829  11.390  21.415  0.00  0.00    +0.000 Cl
ATOM     12  C   UNL     1       0.411   9.004  21.612  0.00  0.00    +0.000 A 
ATOM     13  C   UNL     1       1.199   7.959  21.118  0.00  0.00    +0.000 A 
ENDBRANCH   3   7
BRANCH   5  14
ATOM     14  C   UNL     1       3.409   3.258  19.866  0.00  0.00    +0.000 C 
ATOM     15  F   UNL     1       2.933   3.208  21.147  0.00  0.00    +0.000 F 
ATOM     16  F   UNL     1       2.659   2.361  19.168  0.00  0.00    +0.000 F 
ATOM     17  F   UNL     1       4.668   2.741  19.930  0.00  0.00    +0.000 F 
ENDBRANCH   5  14
BRANCH   1  18
ATOM     18  S   UNL     1       5.058   6.485  16.255  0.00  0.00    +0.000 S 
BRANCH  18  19
ATOM     19  C   UNL     1       5.901   4.885  16.070  0.00  0.00    +0.000 C 
BRANCH  19  24
ATOM     20  C   UNL     1       6.060   3.509  12.490  0.00  0.00    +0.000 A 
ATOM     21  C   UNL     1       7.159   4.206  11.973  0.00  0.00    +0.000 A 
ATOM     22  C   UNL     1       7.860   5.094  12.789  0.00  0.00    +0.000 A 
ATOM     23  C   UNL     1       7.455   5.303  14.111  0.00  0.00    +0.000 A 
ATOM     24  C   UNL     1       6.338   4.636  14.639  0.00  0.00    +0.000 A 
ATOM     25  C   UNL     1       5.649   3.730  13.813  0.00  0.00    +0.000 A 
BRANCH  20  27
ATOM     26  O   UNL     1       4.186   2.835  11.187  0.00  0.00    +0.000 OA
ATOM     27  C   UNL     1       5.279   2.563  11.657  0.00  0.00    +0.000 C 
BRANCH  27  28
ATOM     28  O   UNL     1       5.866   1.357  11.505  0.00  0.00    +0.000 OA
ATOM     29  H   UNL     1       6.801   1.387  11.236  0.00  0.00    +0.000 HD
ENDBRANCH  27  28
ENDBRANCH  20  27
ENDBRANCH  19  24
ENDBRANCH  18  19
ENDBRANCH   1  18
TORSDOF 7
ENDMDL
MODEL 8
REMARK VINA RESULT:      -8.4      4.536      8.261
REMARK  Name = 
REMARK  7 active torsions:
REMARK  status: ('A' for Active; 'I' for Inactive)
REMARK    1  A    between atoms: C_2  and  O_3
REMARK    2  A    between atoms: C_2  and  C_4
REMARK    3  A    between atoms: C_8  and  C_9
REMARK    4  A    between atoms: C_9  and  S_10
REMARK    5  A    between atoms: S_10  and  C_11
REMARK    6  A    between atoms: C_13  and  C_14
REMARK    7  A    between atoms: C_22  and  C_23
REMARK                            x       y       z     vdW  Elec       q    Type
REMARK                         _______ _______ _______ _____ _____    ______ ____
ROOT
ATOM      1  C   UNL     1       2.146   6.327  19.947  0.00  0.00    +0.000 A 
ATOM      2  N   UNL     1       2.950   6.262  18.877  0.00  0.00    +0.000 NA
ATOM      3  C   UNL     1       3.442   5.048  18.537  0.00  0.00    +0.000 A 
ATOM      4  C   UNL     1       3.146   3.916  19.276  0.00  0.00    +0.000 A 
ATOM      5  C   UNL     1       2.292   4.062  20.354  0.00  0.00    +0.000 A 
ATOM      6  N   UNL     1       1.785   5.272  20.692  0.00  0.00    +0.000 NA
ENDROOT
BRANCH   3   7
ATOM      7  C   UNL     1       4.314   5.005  17.342  0.00  0.00    +0.000 A 
ATOM      8  C   UNL     1       4.728   3.779  16.788  0.00  0.00    +0.000 A 
ATOM      9  C   UNL     1       5.553   3.728  15.659  0.00  0.00    +0.000 A 
ATOM     10  C   UNL     1       5.983   4.909  15.059  0.00  0.00    +0.000 A 
ATOM     11 CL   UNL     1       7.002   4.850  13.676  0.00  0.00    +0.000 Cl
ATOM     12  C   UNL     1       5.594   6.136  15.582  0.00  0.00    +0.000 A 
ATOM     13  C   UNL     1       4.772   6.183  16.713  0.00  0.00    +0.000 A 
ENDBRANCH   3   7
BRANCH   5  14
ATOM     14  C   UNL     1       1.905   2.842  21.175  0.00  0.00    +0.000 C 
ATOM     15  F   UNL     1       0.885   3.092  22.051  0.00  0.00    +0.000 F 
ATOM     16  F   UNL     1       1.478   1.796  20.415  0.00  0.00    +0.000 F 
ATOM     17  F   UNL     1       2.929   2.369  21.941  0.00  0.00    +0.000 F 
ENDBRANCH   5  14
BRANCH   1  18
ATOM     18  S   UNL     1       1.587   7.907  20.528  0.00  0.00    +0.000 S 
BRANCH  18  19
ATOM     19  C   UNL     1       1.486   8.832  18.967  0.00  0.00    +0.000 C 
BRANCH  19  24
ATOM     20  C   UNL     1      -1.605  10.835  17.885  0.00  0.00    +0.000 A 
ATOM     21  C   UNL     1      -1.808  11.656  19.001  0.00  0.00    +0.000 A 
ATOM     22  C   UNL     1      -0.932  11.581  20.083  0.00  0.00    +0.000 A 
ATOM     23  C   UNL     1       0.134  10.674  20.063  0.00  0.00    +0.000 A 
ATOM     24  C   UNL     1       0.336   9.821  18.967  0.00  0.00    +0.000 A 
ATOM     25  C   UNL     1      -0.543   9.918  17.873  0.00  0.00    +0.000 A 
BRANCH  20  27
ATOM     26  O   UNL     1      -2.389  10.142  15.748  0.00  0.00    +0.000 OA
ATOM     27  C   UNL     1      -2.516  10.874  16.716  0.00  0.00    +0.000 C 
BRANCH  27  28
ATOM     28  O   UNL     1      -3.471  11.825  16.800  0.00  0.00    +0.000 OA
ATOM     29  H   UNL     1      -3.743  12.053  17.706  0.00  0.00    +0.000 HD
ENDBRANCH  27  28
ENDBRANCH  20  27
ENDBRANCH  19  24
ENDBRANCH  18  19
ENDBRANCH   1  18
TORSDOF 7
ENDMDL
MODEL 9
REMARK VINA RESULT:      -8.4      3.641      4.665
REMARK  Name = 
REMARK  7 active torsions:
REMARK  status: ('A' for Active; 'I' for Inactive)
REMARK    1  A    between atoms: C_2  and  O_3
REMARK    2  A    between atoms: C_2  and  C_4
REMARK    3  A    between atoms: C_8  and  C_9
REMARK    4  A    between atoms: C_9  and  S_10
REMARK    5  A    between atoms: S_10  and  C_11
REMARK    6  A    between atoms: C_13  and  C_14
REMARK    7  A    between atoms: C_22  and  C_23
REMARK                            x       y       z     vdW  Elec       q    Type
REMARK                         _______ _______ _______ _____ _____    ______ ____
ROOT
ATOM      1  C   UNL     1       3.713   4.664  17.776  0.00  0.00    +0.000 A 
ATOM      2  N   UNL     1       3.320   5.943  17.851  0.00  0.00    +0.000 NA
ATOM      3  C   UNL     1       2.470   6.278  18.849  0.00  0.00    +0.000 A 
ATOM      4  C   UNL     1       2.004   5.335  19.748  0.00  0.00    +0.000 A 
ATOM      5  C   UNL     1       2.472   4.041  19.617  0.00  0.00    +0.000 A 
ATOM      6  N   UNL     1       3.334   3.701  18.629  0.00  0.00    +0.000 NA
ENDROOT
BRANCH   3   7
ATOM      7  C   UNL     1       2.065   7.701  18.916  0.00  0.00    +0.000 A 
ATOM      8  C   UNL     1       1.454   8.229  20.069  0.00  0.00    +0.000 A 
ATOM      9  C   UNL     1       1.067   9.572  20.141  0.00  0.00    +0.000 A 
ATOM     10  C   UNL     1       1.285  10.417  19.056  0.00  0.00    +0.000 A 
ATOM     11 CL   UNL     1       0.806  12.065  19.140  0.00  0.00    +0.000 Cl
ATOM     12  C   UNL     1       1.885   9.927  17.903  0.00  0.00    +0.000 A 
ATOM     13  C   UNL     1       2.268   8.583  17.833  0.00  0.00    +0.000 A 
ENDBRANCH   3   7
BRANCH   5  14
ATOM     14  C   UNL     1       2.020   2.975  20.604  0.00  0.00    +0.000 C 
ATOM     15  F   UNL     1       1.788   1.765  20.010  0.00  0.00    +0.000 F 
ATOM     16  F   UNL     1       2.933   2.727  21.583  0.00  0.00    +0.000 F 
ATOM     17  F   UNL     1       0.855   3.294  21.235  0.00  0.00    +0.000 F 
ENDBRANCH   5  14
BRANCH   1  18
ATOM     18  S   UNL     1       4.709   4.133  16.408  0.00  0.00    +0.000 S 
BRANCH  18  19
ATOM     19  C   UNL     1       5.577   5.676  15.995  0.00  0.00    +0.000 C 
BRANCH  19  24
ATOM     20  C   UNL     1       7.939   7.754  18.195  0.00  0.00    +0.000 A 
ATOM     21  C   UNL     1       8.410   6.786  19.089  0.00  0.00    +0.000 A 
ATOM     22  C   UNL     1       7.987   5.463  18.961  0.00  0.00    +0.000 A 
ATOM     23  C   UNL     1       7.080   5.109  17.957  0.00  0.00    +0.000 A 
ATOM     24  C   UNL     1       6.573   6.072  17.069  0.00  0.00    +0.000 A 
ATOM     25  C   UNL     1       7.020   7.399  17.196  0.00  0.00    +0.000 A 
BRANCH  20  27
ATOM     26  O   UNL     1       7.953  10.043  17.540  0.00  0.00    +0.000 OA
ATOM     27  C   UNL     1       8.354   9.175  18.298  0.00  0.00    +0.000 C 
BRANCH  27  28
ATOM     28  O   UNL     1       9.252   9.410  19.278  0.00  0.00    +0.000 OA
ATOM     29  H   UNL     1       8.986   9.099  20.161  0.00  0.00    +0.000 HD
ENDBRANCH  27  28
ENDBRANCH  20  27
ENDBRANCH  19  24
ENDBRANCH  18  19
ENDBRANCH   1  18
TORSDOF 7
ENDMDL
