MODEL 1
REMARK VINA RESULT:      -3.3      0.000      0.000
REMARK  Name = 
REMARK  3 active torsions:
REMARK  status: ('A' for Active; 'I' for Inactive)
REMARK    1  A    between atoms: C_1  and  O_2
REMARK    2  A    between atoms: O_2  and  S_3
REMARK    3  A    between atoms: S_3  and  C_4
REMARK                            x       y       z     vdW  Elec       q    Type
REMARK                         _______ _______ _______ _____ _____    ______ ____
ROOT
ATOM      1  S   UNL     1       7.145   5.308  16.703  0.00  0.00    +0.000 S 
ATOM      2  C   UNL     1       5.590   4.515  16.812  0.00  0.00    +0.000 C 
ATOM      3  O   UNL     1       8.053   4.347  17.272  0.00  0.00    +0.000 OA
ATOM      4  S   UNL     1       7.264   6.936  17.538  0.00  0.00    +0.000 S 
ENDROOT
BRANCH   1   6
ATOM      5  C   UNL     1       6.646   4.545  14.253  0.00  0.00    +0.000 C 
ATOM      6  O   UNL     1       7.393   5.394  15.108  0.00  0.00    +0.000 OA
ENDBRANCH   1   6
TORSDOF 1
ENDMDL
MODEL 2
REMARK VINA RESULT:      -3.3      2.341      3.227
REMARK  Name = 
REMARK  3 active torsions:
REMARK  status: ('A' for Active; 'I' for Inactive)
REMARK    1  A    between atoms: C_1  and  O_2
REMARK    2  A    between atoms: O_2  and  S_3
REMARK    3  A    between atoms: S_3  and  C_4
REMARK                            x       y       z     vdW  Elec       q    Type
REMARK                         _______ _______ _______ _____ _____    ______ ____
ROOT
ATOM      1  S   UNL     1       6.921   4.760  17.415  0.00  0.00    +0.000 S 
ATOM      2  C   UNL     1       7.236   6.479  17.492  0.00  0.00    +0.000 C 
ATOM      3  O   UNL     1       8.232   4.185  17.261  0.00  0.00    +0.000 OA
ATOM      4  S   UNL     1       5.779   4.222  16.085  0.00  0.00    +0.000 S 
ENDROOT
BRANCH   1   6
ATOM      5  C   UNL     1       4.968   4.425  19.120  0.00  0.00    +0.000 C 
ATOM      6  O   UNL     1       6.368   4.431  18.898  0.00  0.00    +0.000 OA
ENDBRANCH   1   6
TORSDOF 1
ENDMDL
MODEL 3
REMARK VINA RESULT:      -3.3      1.864      2.545
REMARK  Name = 
REMARK  3 active torsions:
REMARK  status: ('A' for Active; 'I' for Inactive)
REMARK    1  A    between atoms: C_1  and  O_2
REMARK    2  A    between atoms: O_2  and  S_3
REMARK    3  A    between atoms: S_3  and  C_4
REMARK                            x       y       z     vdW  Elec       q    Type
REMARK                         _______ _______ _______ _____ _____    ______ ____
ROOT
ATOM      1  S   UNL     1       6.836   5.031  16.511  0.00  0.00    +0.000 S 
ATOM      2  C   UNL     1       6.889   4.610  14.814  0.00  0.00    +0.000 C 
ATOM      3  O   UNL     1       8.000   4.382  17.054  0.00  0.00    +0.000 OA
ATOM      4  S   UNL     1       5.308   4.547  17.400  0.00  0.00    +0.000 S 
ENDROOT
BRANCH   1   6
ATOM      5  C   UNL     1       7.591   7.257  17.654  0.00  0.00    +0.000 C 
ATOM      6  O   UNL     1       7.080   6.629  16.492  0.00  0.00    +0.000 OA
ENDBRANCH   1   6
TORSDOF 1
ENDMDL
MODEL 4
REMARK VINA RESULT:      -3.2      1.659      1.812
REMARK  Name = 
REMARK  3 active torsions:
REMARK  status: ('A' for Active; 'I' for Inactive)
REMARK    1  A    between atoms: C_1  and  O_2
REMARK    2  A    between atoms: O_2  and  S_3
REMARK    3  A    between atoms: S_3  and  C_4
REMARK                            x       y       z     vdW  Elec       q    Type
REMARK                         _______ _______ _______ _____ _____    ______ ____
ROOT
ATOM      1  S   UNL     1       6.887   5.898  16.590  0.00  0.00    +0.000 S 
ATOM      2  C   UNL     1       7.539   4.733  17.720  0.00  0.00    +0.000 C 
ATOM      3  O   UNL     1       7.539   7.127  16.962  0.00  0.00    +0.000 OA
ATOM      4  S   UNL     1       5.061   6.068  16.592  0.00  0.00    +0.000 S 
ENDROOT
BRANCH   1   6
ATOM      5  C   UNL     1       6.666   4.570  14.350  0.00  0.00    +0.000 C 
ATOM      6  O   UNL     1       7.476   5.392  15.173  0.00  0.00    +0.000 OA
ENDBRANCH   1   6
TORSDOF 1
ENDMDL
MODEL 5
REMARK VINA RESULT:      -3.2      1.867      2.543
REMARK  Name = 
REMARK  3 active torsions:
REMARK  status: ('A' for Active; 'I' for Inactive)
REMARK    1  A    between atoms: C_1  and  O_2
REMARK    2  A    between atoms: O_2  and  S_3
REMARK    3  A    between atoms: S_3  and  C_4
REMARK                            x       y       z     vdW  Elec       q    Type
REMARK                         _______ _______ _______ _____ _____    ______ ____
ROOT
ATOM      1  S   UNL     1       6.749   5.100  15.379  0.00  0.00    +0.000 S 
ATOM      2  C   UNL     1       6.087   3.821  14.386  0.00  0.00    +0.000 C 
ATOM      3  O   UNL     1       7.896   5.545  14.632  0.00  0.00    +0.000 OA
ATOM      4  S   UNL     1       7.193   4.624  17.092  0.00  0.00    +0.000 S 
ENDROOT
BRANCH   1   6
ATOM      5  C   UNL     1       4.953   6.624  16.512  0.00  0.00    +0.000 C 
ATOM      6  O   UNL     1       5.600   6.236  15.313  0.00  0.00    +0.000 OA
ENDBRANCH   1   6
TORSDOF 1
ENDMDL
MODEL 6
REMARK VINA RESULT:      -3.2      2.035      2.974
REMARK  Name = 
REMARK  3 active torsions:
REMARK  status: ('A' for Active; 'I' for Inactive)
REMARK    1  A    between atoms: C_1  and  O_2
REMARK    2  A    between atoms: O_2  and  S_3
REMARK    3  A    between atoms: S_3  and  C_4
REMARK                            x       y       z     vdW  Elec       q    Type
REMARK                         _______ _______ _______ _____ _____    ______ ____
ROOT
ATOM      1  S   UNL     1       6.184   4.777  15.504  0.00  0.00    +0.000 S 
ATOM      2  C   UNL     1       5.039   4.094  16.638  0.00  0.00    +0.000 C 
ATOM      3  O   UNL     1       5.805   6.164  15.439  0.00  0.00    +0.000 OA
ATOM      4  S   UNL     1       6.215   3.999  13.844  0.00  0.00    +0.000 S 
ENDROOT
BRANCH   1   6
ATOM      5  C   UNL     1       7.584   4.669  17.709  0.00  0.00    +0.000 C 
ATOM      6  O   UNL     1       7.589   4.647  16.292  0.00  0.00    +0.000 OA
ENDBRANCH   1   6
TORSDOF 1
ENDMDL
MODEL 7
REMARK VINA RESULT:      -3.2      1.493      1.724
REMARK  Name = 
REMARK  3 active torsions:
REMARK  status: ('A' for Active; 'I' for Inactive)
REMARK    1  A    between atoms: C_1  and  O_2
REMARK    2  A    between atoms: O_2  and  S_3
REMARK    3  A    between atoms: S_3  and  C_4
REMARK                            x       y       z     vdW  Elec       q    Type
REMARK                         _______ _______ _______ _____ _____    ______ ____
ROOT
ATOM      1  S   UNL     1       7.404   5.451  18.160  0.00  0.00    +0.000 S 
ATOM      2  C   UNL     1       5.811   4.866  18.585  0.00  0.00    +0.000 C 
ATOM      3  O   UNL     1       8.187   5.175  19.335  0.00  0.00    +0.000 OA
ATOM      4  S   UNL     1       7.496   7.217  17.677  0.00  0.00    +0.000 S 
ENDROOT
BRANCH   1   6
ATOM      5  C   UNL     1       7.063   4.381  15.799  0.00  0.00    +0.000 C 
ATOM      6  O   UNL     1       7.851   4.445  16.975  0.00  0.00    +0.000 OA
ENDBRANCH   1   6
TORSDOF 1
ENDMDL
MODEL 8
REMARK VINA RESULT:      -3.1      1.679      1.860
REMARK  Name = 
REMARK  3 active torsions:
REMARK  status: ('A' for Active; 'I' for Inactive)
REMARK    1  A    between atoms: C_1  and  O_2
REMARK    2  A    between atoms: O_2  and  S_3
REMARK    3  A    between atoms: S_3  and  C_4
REMARK                            x       y       z     vdW  Elec       q    Type
REMARK                         _______ _______ _______ _____ _____    ______ ____
ROOT
ATOM      1  S   UNL     1       6.638   5.212  16.244  0.00  0.00    +0.000 S 
ATOM      2  C   UNL     1       7.516   4.609  17.631  0.00  0.00    +0.000 C 
ATOM      3  O   UNL     1       7.639   5.931  15.500  0.00  0.00    +0.000 OA
ATOM      4  S   UNL     1       5.184   6.262  16.622  0.00  0.00    +0.000 S 
ENDROOT
BRANCH   1   6
ATOM      5  C   UNL     1       6.197   3.892  14.031  0.00  0.00    +0.000 C 
ATOM      6  O   UNL     1       6.254   3.859  15.446  0.00  0.00    +0.000 OA
ENDBRANCH   1   6
TORSDOF 1
ENDMDL
MODEL 9
REMARK VINA RESULT:      -3.1      6.780      6.978
REMARK  Name = 
REMARK  3 active torsions:
REMARK  status: ('A' for Active; 'I' for Inactive)
REMARK    1  A    between atoms: C_1  and  O_2
REMARK    2  A    between atoms: O_2  and  S_3
REMARK    3  A    between atoms: S_3  and  C_4
REMARK                            x       y       z     vdW  Elec       q    Type
REMARK                         _______ _______ _______ _____ _____    ______ ____
ROOT
ATOM      1  S   UNL     1       2.489   3.068  20.765  0.00  0.00    +0.000 S 
ATOM      2  C   UNL     1       2.153   4.781  20.881  0.00  0.00    +0.000 C 
ATOM      3  O   UNL     1       2.591   2.653  22.140  0.00  0.00    +0.000 OA
ATOM      4  S   UNL     1       3.984   2.617  19.804  0.00  0.00    +0.000 S 
ENDROOT
BRANCH   1   6
ATOM      5  C   UNL     1       0.958   2.500  18.725  0.00  0.00    +0.000 C 
ATOM      6  O   UNL     1       1.124   2.478  20.131  0.00  0.00    +0.000 OA
ENDBRANCH   1   6
TORSDOF 1
ENDMDL
