MODEL 1
REMARK VINA RESULT:      -7.4      0.000      0.000
REMARK  Name = 
REMARK  1 active torsions:
REMARK  status: ('A' for Active; 'I' for Inactive)
REMARK    1  A    between atoms: C_1  and  C_2
REMARK                            x       y       z     vdW  Elec       q    Type
REMARK                         _______ _______ _______ _____ _____    ______ ____
ROOT
ATOM      1  C   UNL     1       8.409   8.875  17.560  0.00  0.00    +0.000 C 
ATOM      2  C   UNL     1       7.738   7.611  18.009  0.00  0.00    +0.000 A 
ATOM      3  C   UNL     1       8.264   6.808  19.027  0.00  0.00    +0.000 A 
ATOM      4  C   UNL     1       7.608   5.630  19.415  0.00  0.00    +0.000 A 
ATOM      5  C   UNL     1       6.421   5.231  18.793  0.00  0.00    +0.000 A 
ATOM      6  C   UNL     1       5.916   6.037  17.787  0.00  0.00    +0.000 A 
ATOM      7  C   UNL     1       6.552   7.217  17.388  0.00  0.00    +0.000 A 
ATOM      8  S   UNL     1       4.451   5.576  16.975  0.00  0.00    +0.000 S 
ATOM      9  O   UNL     1       4.809   5.237  15.611  0.00  0.00    +0.000 OA
ATOM     10  O   UNL     1       3.459   6.591  17.273  0.00  0.00    +0.000 OA
ATOM     11  C   UNL     1       3.923   4.108  17.743  0.00  0.00    +0.000 A 
ATOM     12  C   UNL     1       2.733   3.519  17.311  0.00  0.00    +0.000 A 
ATOM     13  C   UNL     1       2.300   2.340  17.908  0.00  0.00    +0.000 A 
ATOM     14  C   UNL     1       3.060   1.766  18.925  0.00  0.00    +0.000 A 
ATOM     15  C   UNL     1       4.249   2.374  19.347  0.00  0.00    +0.000 A 
ATOM     16  C   UNL     1       4.693   3.562  18.756  0.00  0.00    +0.000 A 
ATOM     17  O   UNL     1       5.870   4.062  19.252  0.00  0.00    +0.000 OA
ENDROOT
TORSDOF 0
ENDMDL
MODEL 2
REMARK VINA RESULT:      -7.4      2.071      5.380
REMARK  Name = 
REMARK  1 active torsions:
REMARK  status: ('A' for Active; 'I' for Inactive)
REMARK    1  A    between atoms: C_1  and  C_2
REMARK                            x       y       z     vdW  Elec       q    Type
REMARK                         _______ _______ _______ _____ _____    ______ ____
ROOT
ATOM      1  C   UNL     1       1.333   2.810  21.612  0.00  0.00    +0.000 C 
ATOM      2  C   UNL     1       2.106   2.868  20.328  0.00  0.00    +0.000 A 
ATOM      3  C   UNL     1       1.902   1.950  19.292  0.00  0.00    +0.000 A 
ATOM      4  C   UNL     1       2.648   2.035  18.107  0.00  0.00    +0.000 A 
ATOM      5  C   UNL     1       3.613   3.033  17.937  0.00  0.00    +0.000 A 
ATOM      6  C   UNL     1       3.802   3.932  18.973  0.00  0.00    +0.000 A 
ATOM      7  C   UNL     1       3.066   3.866  20.160  0.00  0.00    +0.000 A 
ATOM      8  S   UNL     1       4.999   5.182  18.814  0.00  0.00    +0.000 S 
ATOM      9  O   UNL     1       6.053   4.885  19.765  0.00  0.00    +0.000 OA
ATOM     10  O   UNL     1       4.297   6.450  18.825  0.00  0.00    +0.000 OA
ATOM     11  C   UNL     1       5.678   4.990  17.226  0.00  0.00    +0.000 A 
ATOM     12  C   UNL     1       6.657   5.893  16.804  0.00  0.00    +0.000 A 
ATOM     13  C   UNL     1       7.218   5.750  15.540  0.00  0.00    +0.000 A 
ATOM     14  C   UNL     1       6.795   4.710  14.715  0.00  0.00    +0.000 A 
ATOM     15  C   UNL     1       5.810   3.817  15.154  0.00  0.00    +0.000 A 
ATOM     16  C   UNL     1       5.237   3.952  16.423  0.00  0.00    +0.000 A 
ATOM     17  O   UNL     1       4.283   3.018  16.741  0.00  0.00    +0.000 OA
ENDROOT
TORSDOF 0
ENDMDL
MODEL 3
REMARK VINA RESULT:      -7.3      2.506      3.215
REMARK  Name = 
REMARK  1 active torsions:
REMARK  status: ('A' for Active; 'I' for Inactive)
REMARK    1  A    between atoms: C_1  and  C_2
REMARK                            x       y       z     vdW  Elec       q    Type
REMARK                         _______ _______ _______ _____ _____    ______ ____
ROOT
ATOM      1  C   UNL     1       6.961   4.811  14.461  0.00  0.00    +0.000 C 
ATOM      2  C   UNL     1       6.249   4.883  15.779  0.00  0.00    +0.000 A 
ATOM      3  C   UNL     1       6.575   5.836  16.751  0.00  0.00    +0.000 A 
ATOM      4  C   UNL     1       5.888   5.868  17.974  0.00  0.00    +0.000 A 
ATOM      5  C   UNL     1       4.870   4.950  18.251  0.00  0.00    +0.000 A 
ATOM      6  C   UNL     1       4.563   4.015  17.278  0.00  0.00    +0.000 A 
ATOM      7  C   UNL     1       5.232   3.968  16.051  0.00  0.00    +0.000 A 
ATOM      8  S   UNL     1       3.315   2.844  17.580  0.00  0.00    +0.000 S 
ATOM      9  O   UNL     1       3.960   1.549  17.677  0.00  0.00    +0.000 OA
ATOM     10  O   UNL     1       2.252   3.097  16.626  0.00  0.00    +0.000 OA
ATOM     11  C   UNL     1       2.683   3.218  19.155  0.00  0.00    +0.000 A 
ATOM     12  C   UNL     1       1.628   2.450  19.652  0.00  0.00    +0.000 A 
ATOM     13  C   UNL     1       1.116   2.730  20.914  0.00  0.00    +0.000 A 
ATOM     14  C   UNL     1       1.663   3.770  21.663  0.00  0.00    +0.000 A 
ATOM     15  C   UNL     1       2.718   4.532  21.145  0.00  0.00    +0.000 A 
ATOM     16  C   UNL     1       3.241   4.261  19.876  0.00  0.00    +0.000 A 
ATOM     17  O   UNL     1       4.272   5.074  19.478  0.00  0.00    +0.000 OA
ENDROOT
TORSDOF 0
ENDMDL
MODEL 4
REMARK VINA RESULT:      -7.2      2.872      3.903
REMARK  Name = 
REMARK  1 active torsions:
REMARK  status: ('A' for Active; 'I' for Inactive)
REMARK    1  A    between atoms: C_1  and  C_2
REMARK                            x       y       z     vdW  Elec       q    Type
REMARK                         _______ _______ _______ _____ _____    ______ ____
ROOT
ATOM      1  C   UNL     1       6.583   3.958  13.702  0.00  0.00    +0.000 C 
ATOM      2  C   UNL     1       5.855   4.588  14.851  0.00  0.00    +0.000 A 
ATOM      3  C   UNL     1       6.003   5.941  15.177  0.00  0.00    +0.000 A 
ATOM      4  C   UNL     1       5.308   6.492  16.263  0.00  0.00    +0.000 A 
ATOM      5  C   UNL     1       4.458   5.705  17.046  0.00  0.00    +0.000 A 
ATOM      6  C   UNL     1       4.324   4.369  16.710  0.00  0.00    +0.000 A 
ATOM      7  C   UNL     1       5.005   3.801  15.628  0.00  0.00    +0.000 A 
ATOM      8  S   UNL     1       3.289   3.346  17.660  0.00  0.00    +0.000 S 
ATOM      9  O   UNL     1       4.144   2.400  18.351  0.00  0.00    +0.000 OA
ATOM     10  O   UNL     1       2.210   2.909  16.796  0.00  0.00    +0.000 OA
ATOM     11  C   UNL     1       2.586   4.376  18.871  0.00  0.00    +0.000 A 
ATOM     12  C   UNL     1       1.671   3.822  19.770  0.00  0.00    +0.000 A 
ATOM     13  C   UNL     1       1.105   4.629  20.751  0.00  0.00    +0.000 A 
ATOM     14  C   UNL     1       1.459   5.974  20.822  0.00  0.00    +0.000 A 
ATOM     15  C   UNL     1       2.376   6.512  19.909  0.00  0.00    +0.000 A 
ATOM     16  C   UNL     1       2.950   5.711  18.917  0.00  0.00    +0.000 A 
ATOM     17  O   UNL     1       3.833   6.349  18.083  0.00  0.00    +0.000 OA
ENDROOT
TORSDOF 0
ENDMDL
MODEL 5
REMARK VINA RESULT:      -7.2      0.744      5.237
REMARK  Name = 
REMARK  1 active torsions:
REMARK  status: ('A' for Active; 'I' for Inactive)
REMARK    1  A    between atoms: C_1  and  C_2
REMARK                            x       y       z     vdW  Elec       q    Type
REMARK                         _______ _______ _______ _____ _____    ______ ____
ROOT
ATOM      1  C   UNL     1       0.685   2.113  18.609  0.00  0.00    +0.000 C 
ATOM      2  C   UNL     1       2.034   2.711  18.878  0.00  0.00    +0.000 A 
ATOM      3  C   UNL     1       2.871   2.237  19.894  0.00  0.00    +0.000 A 
ATOM      4  C   UNL     1       4.124   2.826  20.117  0.00  0.00    +0.000 A 
ATOM      5  C   UNL     1       4.562   3.899  19.335  0.00  0.00    +0.000 A 
ATOM      6  C   UNL     1       3.720   4.356  18.336  0.00  0.00    +0.000 A 
ATOM      7  C   UNL     1       2.469   3.780  18.095  0.00  0.00    +0.000 A 
ATOM      8  S   UNL     1       4.215   5.696  17.346  0.00  0.00    +0.000 S 
ATOM      9  O   UNL     1       3.342   6.808  17.670  0.00  0.00    +0.000 OA
ATOM     10  O   UNL     1       4.347   5.200  15.990  0.00  0.00    +0.000 OA
ATOM     11  C   UNL     1       5.809   6.125  17.889  0.00  0.00    +0.000 A 
ATOM     12  C   UNL     1       6.479   7.165  17.239  0.00  0.00    +0.000 A 
ATOM     13  C   UNL     1       7.752   7.527  17.665  0.00  0.00    +0.000 A 
ATOM     14  C   UNL     1       8.339   6.848  18.732  0.00  0.00    +0.000 A 
ATOM     15  C   UNL     1       7.653   5.805  19.367  0.00  0.00    +0.000 A 
ATOM     16  C   UNL     1       6.372   5.430  18.946  0.00  0.00    +0.000 A 
ATOM     17  O   UNL     1       5.802   4.397  19.645  0.00  0.00    +0.000 OA
ENDROOT
TORSDOF 0
ENDMDL
MODEL 6
REMARK VINA RESULT:      -6.8      1.655      2.186
REMARK  Name = 
REMARK  1 active torsions:
REMARK  status: ('A' for Active; 'I' for Inactive)
REMARK    1  A    between atoms: C_1  and  C_2
REMARK                            x       y       z     vdW  Elec       q    Type
REMARK                         _______ _______ _______ _____ _____    ______ ____
ROOT
ATOM      1  C   UNL     1       7.703   8.023  17.371  0.00  0.00    +0.000 C 
ATOM      2  C   UNL     1       6.861   6.782  17.395  0.00  0.00    +0.000 A 
ATOM      3  C   UNL     1       7.297   5.575  16.837  0.00  0.00    +0.000 A 
ATOM      4  C   UNL     1       6.478   4.436  16.875  0.00  0.00    +0.000 A 
ATOM      5  C   UNL     1       5.210   4.483  17.464  0.00  0.00    +0.000 A 
ATOM      6  C   UNL     1       4.796   5.686  18.009  0.00  0.00    +0.000 A 
ATOM      7  C   UNL     1       5.599   6.830  17.986  0.00  0.00    +0.000 A 
ATOM      8  S   UNL     1       3.224   5.797  18.742  0.00  0.00    +0.000 S 
ATOM      9  O   UNL     1       2.424   6.666  17.900  0.00  0.00    +0.000 OA
ATOM     10  O   UNL     1       3.427   6.075  20.150  0.00  0.00    +0.000 OA
ATOM     11  C   UNL     1       2.534   4.205  18.631  0.00  0.00    +0.000 A 
ATOM     12  C   UNL     1       1.268   3.986  19.179  0.00  0.00    +0.000 A 
ATOM     13  C   UNL     1       0.697   2.721  19.092  0.00  0.00    +0.000 A 
ATOM     14  C   UNL     1       1.396   1.694  18.461  0.00  0.00    +0.000 A 
ATOM     15  C   UNL     1       2.667   1.932  17.922  0.00  0.00    +0.000 A 
ATOM     16  C   UNL     1       3.252   3.200  18.005  0.00  0.00    +0.000 A 
ATOM     17  O   UNL     1       4.498   3.312  17.441  0.00  0.00    +0.000 OA
ENDROOT
TORSDOF 0
ENDMDL
MODEL 7
REMARK VINA RESULT:      -6.7      2.329      2.812
REMARK  Name = 
REMARK  1 active torsions:
REMARK  status: ('A' for Active; 'I' for Inactive)
REMARK    1  A    between atoms: C_1  and  C_2
REMARK                            x       y       z     vdW  Elec       q    Type
REMARK                         _______ _______ _______ _____ _____    ______ ____
ROOT
ATOM      1  C   UNL     1       6.697   5.535  14.698  0.00  0.00    +0.000 C 
ATOM      2  C   UNL     1       6.204   5.004  16.010  0.00  0.00    +0.000 A 
ATOM      3  C   UNL     1       7.075   4.644  17.045  0.00  0.00    +0.000 A 
ATOM      4  C   UNL     1       6.574   4.146  18.257  0.00  0.00    +0.000 A 
ATOM      5  C   UNL     1       5.198   3.994  18.457  0.00  0.00    +0.000 A 
ATOM      6  C   UNL     1       4.352   4.354  17.422  0.00  0.00    +0.000 A 
ATOM      7  C   UNL     1       4.831   4.856  16.208  0.00  0.00    +0.000 A 
ATOM      8  S   UNL     1       2.635   4.172  17.618  0.00  0.00    +0.000 S 
ATOM      9  O   UNL     1       2.212   3.122  16.710  0.00  0.00    +0.000 OA
ATOM     10  O   UNL     1       2.055   5.500  17.570  0.00  0.00    +0.000 OA
ATOM     11  C   UNL     1       2.402   3.573  19.233  0.00  0.00    +0.000 A 
ATOM     12  C   UNL     1       1.097   3.361  19.685  0.00  0.00    +0.000 A 
ATOM     13  C   UNL     1       0.892   2.875  20.972  0.00  0.00    +0.000 A 
ATOM     14  C   UNL     1       1.989   2.605  21.787  0.00  0.00    +0.000 A 
ATOM     15  C   UNL     1       3.289   2.828  21.317  0.00  0.00    +0.000 A 
ATOM     16  C   UNL     1       3.508   3.319  20.025  0.00  0.00    +0.000 A 
ATOM     17  O   UNL     1       4.823   3.496  19.678  0.00  0.00    +0.000 OA
ENDROOT
TORSDOF 0
ENDMDL
MODEL 8
REMARK VINA RESULT:      -6.7      7.550      8.622
REMARK  Name = 
REMARK  1 active torsions:
REMARK  status: ('A' for Active; 'I' for Inactive)
REMARK    1  A    between atoms: C_1  and  C_2
REMARK                            x       y       z     vdW  Elec       q    Type
REMARK                         _______ _______ _______ _____ _____    ______ ____
ROOT
ATOM      1  C   UNL     1       3.159   6.325  18.637  0.00  0.00    +0.000 C 
ATOM      2  C   UNL     1       2.358   7.574  18.854  0.00  0.00    +0.000 A 
ATOM      3  C   UNL     1       2.172   8.525  17.844  0.00  0.00    +0.000 A 
ATOM      4  C   UNL     1       1.420   9.684  18.088  0.00  0.00    +0.000 A 
ATOM      5  C   UNL     1       0.845   9.917  19.341  0.00  0.00    +0.000 A 
ATOM      6  C   UNL     1       1.041   8.966  20.328  0.00  0.00    +0.000 A 
ATOM      7  C   UNL     1       1.784   7.803  20.104  0.00  0.00    +0.000 A 
ATOM      8  S   UNL     1       0.358   9.217  21.906  0.00  0.00    +0.000 S 
ATOM      9  O   UNL     1       1.465   9.428  22.820  0.00  0.00    +0.000 OA
ATOM     10  O   UNL     1      -0.619   8.167  22.121  0.00  0.00    +0.000 OA
ATOM     11  C   UNL     1      -0.517  10.715  21.812  0.00  0.00    +0.000 A 
ATOM     12  C   UNL     1      -1.208  11.158  22.944  0.00  0.00    +0.000 A 
ATOM     13  C   UNL     1      -1.907  12.358  22.889  0.00  0.00    +0.000 A 
ATOM     14  C   UNL     1      -1.907  13.101  21.710  0.00  0.00    +0.000 A 
ATOM     15  C   UNL     1      -1.212  12.639  20.585  0.00  0.00    +0.000 A 
ATOM     16  C   UNL     1      -0.507  11.431  20.627  0.00  0.00    +0.000 A 
ATOM     17  O   UNL     1       0.134  11.083  19.465  0.00  0.00    +0.000 OA
ENDROOT
TORSDOF 0
ENDMDL
MODEL 9
REMARK VINA RESULT:      -6.5      3.507      5.032
REMARK  Name = 
REMARK  1 active torsions:
REMARK  status: ('A' for Active; 'I' for Inactive)
REMARK    1  A    between atoms: C_1  and  C_2
REMARK                            x       y       z     vdW  Elec       q    Type
REMARK                         _______ _______ _______ _____ _____    ______ ____
ROOT
ATOM      1  C   UNL     1       0.556   8.529  21.387  0.00  0.00    +0.000 C 
ATOM      2  C   UNL     1       1.412   8.242  20.190  0.00  0.00    +0.000 A 
ATOM      3  C   UNL     1       1.551   9.152  19.136  0.00  0.00    +0.000 A 
ATOM      4  C   UNL     1       2.358   8.844  18.031  0.00  0.00    +0.000 A 
ATOM      5  C   UNL     1       3.035   7.623  17.954  0.00  0.00    +0.000 A 
ATOM      6  C   UNL     1       2.885   6.734  19.005  0.00  0.00    +0.000 A 
ATOM      7  C   UNL     1       2.089   7.024  20.117  0.00  0.00    +0.000 A 
ATOM      8  S   UNL     1       3.696   5.198  18.950  0.00  0.00    +0.000 S 
ATOM      9  O   UNL     1       2.671   4.181  18.816  0.00  0.00    +0.000 OA
ATOM     10  O   UNL     1       4.651   5.180  20.040  0.00  0.00    +0.000 OA
ATOM     11  C   UNL     1       4.611   5.197  17.472  0.00  0.00    +0.000 A 
ATOM     12  C   UNL     1       5.401   4.083  17.176  0.00  0.00    +0.000 A 
ATOM     13  C   UNL     1       6.133   4.061  15.994  0.00  0.00    +0.000 A 
ATOM     14  C   UNL     1       6.066   5.148  15.124  0.00  0.00    +0.000 A 
ATOM     15  C   UNL     1       5.271   6.257  15.440  0.00  0.00    +0.000 A 
ATOM     16  C   UNL     1       4.532   6.291  16.628  0.00  0.00    +0.000 A 
ATOM     17  O   UNL     1       3.792   7.429  16.827  0.00  0.00    +0.000 OA
ENDROOT
TORSDOF 0
ENDMDL
