MODEL 1
REMARK VINA RESULT:      -6.4      0.000      0.000
REMARK  Name = 
REMARK  8 active torsions:
REMARK  status: ('A' for Active; 'I' for Inactive)
REMARK    1  A    between atoms: N_1  and  C_2
REMARK    2  A    between atoms: N_10  and  C_11
REMARK    3  A    between atoms: C_11  and  C_12
REMARK    4  A    between atoms: C_12  and  O_13
REMARK    5  A    between atoms: O_13  and  C_14
REMARK    6  A    between atoms: C_14  and  P_15
REMARK    7  A    between atoms: P_15  and  O_17
REMARK    8  A    between atoms: P_15  and  O_18
REMARK                            x       y       z     vdW  Elec       q    Type
REMARK                         _______ _______ _______ _____ _____    ______ ____
ROOT
ATOM      1  C   UNL     1       1.490   3.147  19.909  0.00  0.00    +0.000 A 
ATOM      2  C   UNL     1       1.668   2.154  18.936  0.00  0.00    +0.000 A 
ATOM      3  C   UNL     1       2.359   2.416  17.749  0.00  0.00    +0.000 A 
ATOM      4  C   UNL     1       2.898   3.677  17.485  0.00  0.00    +0.000 A 
ATOM      5  C   UNL     1       2.707   4.667  18.459  0.00  0.00    +0.000 A 
ATOM      6  C   UNL     1       2.011   4.430  19.646  0.00  0.00    +0.000 A 
ATOM      7  N   UNL     1       1.959   5.571  20.416  0.00  0.00    +0.000 NA
ATOM      8  C   UNL     1       2.580   6.491  19.715  0.00  0.00    +0.000 A 
ATOM      9  N   UNL     1       3.071   5.990  18.539  0.00  0.00    +0.000 N 
ENDROOT
BRANCH   1  10
ATOM     10  N   UNL     1       0.765   2.866  21.085  0.00  0.00    +0.000 N 
ATOM     11  H   UNL     1       1.136   3.365  21.886  0.00  0.00    +0.000 HD
ATOM     12  H   UNL     1      -0.220   3.087  20.927  0.00  0.00    +0.000 HD
ENDBRANCH   1  10
BRANCH   9  13
ATOM     13  C   UNL     1       3.752   6.760  17.517  0.00  0.00    +0.000 C 
BRANCH  13  14
ATOM     14  C   UNL     1       5.262   6.563  17.493  0.00  0.00    +0.000 C 
BRANCH  14  15
ATOM     15  O   UNL     1       5.839   6.806  16.203  0.00  0.00    +0.000 OA
BRANCH  15  16
ATOM     16  C   UNL     1       5.285   5.856  15.278  0.00  0.00    +0.000 C 
BRANCH  16  17
ATOM     17  P   UNL     1       6.253   4.382  15.068  0.00  0.00    +0.000 P 
ATOM     18  O   UNL     1       6.325   3.756  13.714  0.00  0.00    +0.000 OA
BRANCH  17  19
ATOM     19  O   UNL     1       7.717   4.916  15.474  0.00  0.00    +0.000 OA
ATOM     20  H   UNL     1       7.686   5.546  16.216  0.00  0.00    +0.000 HD
ENDBRANCH  17  19
BRANCH  17  21
ATOM     21  O   UNL     1       5.988   3.314  16.229  0.00  0.00    +0.000 OA
ATOM     22  H   UNL     1       6.115   2.393  15.932  0.00  0.00    +0.000 HD
ENDBRANCH  17  21
ENDBRANCH  16  17
ENDBRANCH  15  16
ENDBRANCH  14  15
ENDBRANCH  13  14
ENDBRANCH   9  13
TORSDOF 8
ENDMDL
MODEL 2
REMARK VINA RESULT:      -6.4      4.292      6.738
REMARK  Name = 
REMARK  8 active torsions:
REMARK  status: ('A' for Active; 'I' for Inactive)
REMARK    1  A    between atoms: N_1  and  C_2
REMARK    2  A    between atoms: N_10  and  C_11
REMARK    3  A    between atoms: C_11  and  C_12
REMARK    4  A    between atoms: C_12  and  O_13
REMARK    5  A    between atoms: O_13  and  C_14
REMARK    6  A    between atoms: C_14  and  P_15
REMARK    7  A    between atoms: P_15  and  O_17
REMARK    8  A    between atoms: P_15  and  O_18
REMARK                            x       y       z     vdW  Elec       q    Type
REMARK                         _______ _______ _______ _____ _____    ______ ____
ROOT
ATOM      1  C   UNL     1       7.777   5.181  13.201  0.00  0.00    +0.000 A 
ATOM      2  C   UNL     1       7.230   4.416  12.162  0.00  0.00    +0.000 A 
ATOM      3  C   UNL     1       6.120   3.591  12.373  0.00  0.00    +0.000 A 
ATOM      4  C   UNL     1       5.513   3.497  13.629  0.00  0.00    +0.000 A 
ATOM      5  C   UNL     1       6.073   4.258  14.664  0.00  0.00    +0.000 A 
ATOM      6  C   UNL     1       7.187   5.079  14.478  0.00  0.00    +0.000 A 
ATOM      7  N   UNL     1       7.536   5.700  15.657  0.00  0.00    +0.000 NA
ATOM      8  C   UNL     1       6.681   5.256  16.549  0.00  0.00    +0.000 A 
ATOM      9  N   UNL     1       5.764   4.404  15.996  0.00  0.00    +0.000 N 
ENDROOT
BRANCH   1  10
ATOM     10  N   UNL     1       8.912   5.983  12.970  0.00  0.00    +0.000 N 
ATOM     11  H   UNL     1       9.358   5.761  12.087  0.00  0.00    +0.000 HD
ATOM     12  H   UNL     1       8.638   6.966  13.016  0.00  0.00    +0.000 HD
ENDBRANCH   1  10
BRANCH   9  13
ATOM     13  C   UNL     1       4.727   3.699  16.723  0.00  0.00    +0.000 C 
BRANCH  13  14
ATOM     14  C   UNL     1       4.524   4.190  18.149  0.00  0.00    +0.000 C 
BRANCH  14  15
ATOM     15  O   UNL     1       4.213   3.133  19.067  0.00  0.00    +0.000 OA
BRANCH  15  16
ATOM     16  C   UNL     1       3.028   3.502  19.790  0.00  0.00    +0.000 C 
BRANCH  16  17
ATOM     17  P   UNL     1       1.507   3.043  18.996  0.00  0.00    +0.000 P 
ATOM     18  O   UNL     1       1.134   3.714  17.715  0.00  0.00    +0.000 OA
BRANCH  17  19
ATOM     19  O   UNL     1       1.770   1.481  18.709  0.00  0.00    +0.000 OA
ATOM     20  H   UNL     1       1.874   1.294  17.759  0.00  0.00    +0.000 HD
ENDBRANCH  17  19
BRANCH  17  21
ATOM     21  O   UNL     1       0.287   2.960  20.027  0.00  0.00    +0.000 OA
ATOM     22  H   UNL     1      -0.514   2.566  19.635  0.00  0.00    +0.000 HD
ENDBRANCH  17  21
ENDBRANCH  16  17
ENDBRANCH  15  16
ENDBRANCH  14  15
ENDBRANCH  13  14
ENDBRANCH   9  13
TORSDOF 8
ENDMDL
MODEL 3
REMARK VINA RESULT:      -6.4      1.163      1.312
REMARK  Name = 
REMARK  8 active torsions:
REMARK  status: ('A' for Active; 'I' for Inactive)
REMARK    1  A    between atoms: N_1  and  C_2
REMARK    2  A    between atoms: N_10  and  C_11
REMARK    3  A    between atoms: C_11  and  C_12
REMARK    4  A    between atoms: C_12  and  O_13
REMARK    5  A    between atoms: O_13  and  C_14
REMARK    6  A    between atoms: C_14  and  P_15
REMARK    7  A    between atoms: P_15  and  O_17
REMARK    8  A    between atoms: P_15  and  O_18
REMARK                            x       y       z     vdW  Elec       q    Type
REMARK                         _______ _______ _______ _____ _____    ______ ____
ROOT
ATOM      1  C   UNL     1       1.442   3.201  20.154  0.00  0.00    +0.000 A 
ATOM      2  C   UNL     1       1.539   2.271  19.109  0.00  0.00    +0.000 A 
ATOM      3  C   UNL     1       2.010   2.645  17.846  0.00  0.00    +0.000 A 
ATOM      4  C   UNL     1       2.401   3.959  17.576  0.00  0.00    +0.000 A 
ATOM      5  C   UNL     1       2.291   4.883  18.624  0.00  0.00    +0.000 A 
ATOM      6  C   UNL     1       1.814   4.535  19.889  0.00  0.00    +0.000 A 
ATOM      7  N   UNL     1       1.797   5.631  20.722  0.00  0.00    +0.000 NA
ATOM      8  C   UNL     1       2.225   6.631  19.987  0.00  0.00    +0.000 A 
ATOM      9  N   UNL     1       2.560   6.228  18.723  0.00  0.00    +0.000 N 
ENDROOT
BRANCH   1  10
ATOM     10  N   UNL     1       0.938   2.806  21.410  0.00  0.00    +0.000 N 
ATOM     11  H   UNL     1      -0.035   3.067  21.526  0.00  0.00    +0.000 HD
ATOM     12  H   UNL     1       1.073   1.799  21.518  0.00  0.00    +0.000 HD
ENDBRANCH   1  10
BRANCH   9  13
ATOM     13  C   UNL     1       3.008   7.099  17.654  0.00  0.00    +0.000 C 
BRANCH  13  14
ATOM     14  C   UNL     1       4.490   6.973  17.329  0.00  0.00    +0.000 C 
BRANCH  14  15
ATOM     15  O   UNL     1       5.175   6.050  18.188  0.00  0.00    +0.000 OA
BRANCH  15  16
ATOM     16  C   UNL     1       6.567   6.059  17.834  0.00  0.00    +0.000 C 
BRANCH  16  17
ATOM     17  P   UNL     1       7.027   4.847  16.621  0.00  0.00    +0.000 P 
ATOM     18  O   UNL     1       7.544   5.313  15.299  0.00  0.00    +0.000 OA
BRANCH  17  19
ATOM     19  O   UNL     1       8.205   4.069  17.395  0.00  0.00    +0.000 OA
ATOM     20  H   UNL     1       8.809   3.612  16.783  0.00  0.00    +0.000 HD
ENDBRANCH  17  19
BRANCH  17  21
ATOM     21  O   UNL     1       5.938   3.684  16.483  0.00  0.00    +0.000 OA
ATOM     22  H   UNL     1       5.184   3.798  17.091  0.00  0.00    +0.000 HD
ENDBRANCH  17  21
ENDBRANCH  16  17
ENDBRANCH  15  16
ENDBRANCH  14  15
ENDBRANCH  13  14
ENDBRANCH   9  13
TORSDOF 8
ENDMDL
MODEL 4
REMARK VINA RESULT:      -6.3      1.777      2.212
REMARK  Name = 
REMARK  8 active torsions:
REMARK  status: ('A' for Active; 'I' for Inactive)
REMARK    1  A    between atoms: N_1  and  C_2
REMARK    2  A    between atoms: N_10  and  C_11
REMARK    3  A    between atoms: C_11  and  C_12
REMARK    4  A    between atoms: C_12  and  O_13
REMARK    5  A    between atoms: O_13  and  C_14
REMARK    6  A    between atoms: C_14  and  P_15
REMARK    7  A    between atoms: P_15  and  O_17
REMARK    8  A    between atoms: P_15  and  O_18
REMARK                            x       y       z     vdW  Elec       q    Type
REMARK                         _______ _______ _______ _____ _____    ______ ____
ROOT
ATOM      1  C   UNL     1       4.131   2.210  19.125  0.00  0.00    +0.000 A 
ATOM      2  C   UNL     1       2.865   1.871  18.628  0.00  0.00    +0.000 A 
ATOM      3  C   UNL     1       2.042   2.828  18.025  0.00  0.00    +0.000 A 
ATOM      4  C   UNL     1       2.448   4.158  17.897  0.00  0.00    +0.000 A 
ATOM      5  C   UNL     1       3.712   4.490  18.405  0.00  0.00    +0.000 A 
ATOM      6  C   UNL     1       4.545   3.554  19.019  0.00  0.00    +0.000 A 
ATOM      7  N   UNL     1       5.716   4.145  19.437  0.00  0.00    +0.000 NA
ATOM      8  C   UNL     1       5.599   5.412  19.116  0.00  0.00    +0.000 A 
ATOM      9  N   UNL     1       4.420   5.666  18.469  0.00  0.00    +0.000 N 
ENDROOT
BRANCH   1  10
ATOM     10  N   UNL     1       4.931   1.233  19.752  0.00  0.00    +0.000 N 
ATOM     11  H   UNL     1       4.945   0.363  19.231  0.00  0.00    +0.000 HD
ATOM     12  H   UNL     1       5.873   1.610  19.880  0.00  0.00    +0.000 HD
ENDBRANCH   1  10
BRANCH   9  13
ATOM     13  C   UNL     1       3.963   6.973  18.036  0.00  0.00    +0.000 C 
BRANCH  13  14
ATOM     14  C   UNL     1       4.153   7.237  16.549  0.00  0.00    +0.000 C 
BRANCH  14  15
ATOM     15  O   UNL     1       5.426   6.792  16.060  0.00  0.00    +0.000 OA
BRANCH  15  16
ATOM     16  C   UNL     1       5.205   5.664  15.199  0.00  0.00    +0.000 C 
BRANCH  16  17
ATOM     17  P   UNL     1       6.642   4.660  14.916  0.00  0.00    +0.000 P 
ATOM     18  O   UNL     1       7.931   5.331  14.567  0.00  0.00    +0.000 OA
BRANCH  17  19
ATOM     19  O   UNL     1       6.800   3.940  16.347  0.00  0.00    +0.000 OA
ATOM     20  H   UNL     1       7.728   3.721  16.548  0.00  0.00    +0.000 HD
ENDBRANCH  17  19
BRANCH  17  21
ATOM     21  O   UNL     1       6.328   3.404  13.977  0.00  0.00    +0.000 OA
ATOM     22  H   UNL     1       7.029   3.236  13.320  0.00  0.00    +0.000 HD
ENDBRANCH  17  21
ENDBRANCH  16  17
ENDBRANCH  15  16
ENDBRANCH  14  15
ENDBRANCH  13  14
ENDBRANCH   9  13
TORSDOF 8
ENDMDL
MODEL 5
REMARK VINA RESULT:      -6.2      4.021      6.070
REMARK  Name = 
REMARK  8 active torsions:
REMARK  status: ('A' for Active; 'I' for Inactive)
REMARK    1  A    between atoms: N_1  and  C_2
REMARK    2  A    between atoms: N_10  and  C_11
REMARK    3  A    between atoms: C_11  and  C_12
REMARK    4  A    between atoms: C_12  and  O_13
REMARK    5  A    between atoms: O_13  and  C_14
REMARK    6  A    between atoms: C_14  and  P_15
REMARK    7  A    between atoms: P_15  and  O_17
REMARK    8  A    between atoms: P_15  and  O_18
REMARK                            x       y       z     vdW  Elec       q    Type
REMARK                         _______ _______ _______ _____ _____    ______ ____
ROOT
ATOM      1  C   UNL     1       6.791   5.896  16.445  0.00  0.00    +0.000 A 
ATOM      2  C   UNL     1       7.227   5.092  15.383  0.00  0.00    +0.000 A 
ATOM      3  C   UNL     1       6.447   4.033  14.906  0.00  0.00    +0.000 A 
ATOM      4  C   UNL     1       5.204   3.735  15.470  0.00  0.00    +0.000 A 
ATOM      5  C   UNL     1       4.780   4.538  16.538  0.00  0.00    +0.000 A 
ATOM      6  C   UNL     1       5.547   5.593  17.036  0.00  0.00    +0.000 A 
ATOM      7  N   UNL     1       4.905   6.206  18.089  0.00  0.00    +0.000 NA
ATOM      8  C   UNL     1       3.790   5.535  18.254  0.00  0.00    +0.000 A 
ATOM      9  N   UNL     1       3.656   4.536  17.327  0.00  0.00    +0.000 N 
ENDROOT
BRANCH   1  10
ATOM     10  N   UNL     1       7.607   6.940  16.925  0.00  0.00    +0.000 N 
ATOM     11  H   UNL     1       8.028   6.711  17.819  0.00  0.00    +0.000 HD
ATOM     12  H   UNL     1       8.315   7.156  16.221  0.00  0.00    +0.000 HD
ENDBRANCH   1  10
BRANCH   9  13
ATOM     13  C   UNL     1       2.567   3.579  17.275  0.00  0.00    +0.000 C 
BRANCH  13  14
ATOM     14  C   UNL     1       2.949   2.179  17.735  0.00  0.00    +0.000 C 
BRANCH  14  15
ATOM     15  O   UNL     1       2.252   1.769  18.919  0.00  0.00    +0.000 OA
BRANCH  15  16
ATOM     16  C   UNL     1       2.909   2.359  20.052  0.00  0.00    +0.000 C 
BRANCH  16  17
ATOM     17  P   UNL     1       1.845   3.315  21.106  0.00  0.00    +0.000 P 
ATOM     18  O   UNL     1       2.215   4.730  21.409  0.00  0.00    +0.000 OA
BRANCH  17  19
ATOM     19  O   UNL     1       0.479   3.304  20.253  0.00  0.00    +0.000 OA
ATOM     20  H   UNL     1       0.557   3.816  19.428  0.00  0.00    +0.000 HD
ENDBRANCH  17  19
BRANCH  17  21
ATOM     21  O   UNL     1       1.395   2.502  22.408  0.00  0.00    +0.000 OA
ATOM     22  H   UNL     1       0.781   1.771  22.205  0.00  0.00    +0.000 HD
ENDBRANCH  17  21
ENDBRANCH  16  17
ENDBRANCH  15  16
ENDBRANCH  14  15
ENDBRANCH  13  14
ENDBRANCH   9  13
TORSDOF 8
ENDMDL
MODEL 6
REMARK VINA RESULT:      -6.2      3.157      5.309
REMARK  Name = 
REMARK  8 active torsions:
REMARK  status: ('A' for Active; 'I' for Inactive)
REMARK    1  A    between atoms: N_1  and  C_2
REMARK    2  A    between atoms: N_10  and  C_11
REMARK    3  A    between atoms: C_11  and  C_12
REMARK    4  A    between atoms: C_12  and  O_13
REMARK    5  A    between atoms: O_13  and  C_14
REMARK    6  A    between atoms: C_14  and  P_15
REMARK    7  A    between atoms: P_15  and  O_17
REMARK    8  A    between atoms: P_15  and  O_18
REMARK                            x       y       z     vdW  Elec       q    Type
REMARK                         _______ _______ _______ _____ _____    ______ ____
ROOT
ATOM      1  C   UNL     1       6.425   6.212  16.645  0.00  0.00    +0.000 A 
ATOM      2  C   UNL     1       7.017   5.238  15.830  0.00  0.00    +0.000 A 
ATOM      3  C   UNL     1       6.342   4.058  15.500  0.00  0.00    +0.000 A 
ATOM      4  C   UNL     1       5.051   3.804  15.972  0.00  0.00    +0.000 A 
ATOM      5  C   UNL     1       4.471   4.779  16.794  0.00  0.00    +0.000 A 
ATOM      6  C   UNL     1       5.131   5.959  17.144  0.00  0.00    +0.000 A 
ATOM      7  N   UNL     1       4.343   6.731  17.968  0.00  0.00    +0.000 NA
ATOM      8  C   UNL     1       3.241   6.039  18.144  0.00  0.00    +0.000 A 
ATOM      9  N   UNL     1       3.259   4.867  17.437  0.00  0.00    +0.000 N 
ENDROOT
BRANCH   1  10
ATOM     10  N   UNL     1       7.137   7.380  16.986  0.00  0.00    +0.000 N 
ATOM     11  H   UNL     1       6.574   8.019  17.536  0.00  0.00    +0.000 HD
ATOM     12  H   UNL     1       7.992   7.114  17.477  0.00  0.00    +0.000 HD
ENDBRANCH   1  10
BRANCH   9  13
ATOM     13  C   UNL     1       2.222   3.853  17.464  0.00  0.00    +0.000 C 
BRANCH  13  14
ATOM     14  C   UNL     1       1.525   3.714  18.810  0.00  0.00    +0.000 C 
BRANCH  14  15
ATOM     15  O   UNL     1       1.889   2.515  19.508  0.00  0.00    +0.000 OA
BRANCH  15  16
ATOM     16  C   UNL     1       2.883   2.852  20.488  0.00  0.00    +0.000 C 
BRANCH  16  17
ATOM     17  P   UNL     1       4.512   2.248  20.124  0.00  0.00    +0.000 P 
ATOM     18  O   UNL     1       5.225   1.434  21.154  0.00  0.00    +0.000 OA
BRANCH  17  19
ATOM     19  O   UNL     1       4.216   1.320  18.842  0.00  0.00    +0.000 OA
ATOM     20  H   UNL     1       3.435   0.752  18.971  0.00  0.00    +0.000 HD
ENDBRANCH  17  19
BRANCH  17  21
ATOM     21  O   UNL     1       5.444   3.374  19.474  0.00  0.00    +0.000 OA
ATOM     22  H   UNL     1       6.174   3.002  18.945  0.00  0.00    +0.000 HD
ENDBRANCH  17  21
ENDBRANCH  16  17
ENDBRANCH  15  16
ENDBRANCH  14  15
ENDBRANCH  13  14
ENDBRANCH   9  13
TORSDOF 8
ENDMDL
MODEL 7
REMARK VINA RESULT:      -6.2      1.607      1.912
REMARK  Name = 
REMARK  8 active torsions:
REMARK  status: ('A' for Active; 'I' for Inactive)
REMARK    1  A    between atoms: N_1  and  C_2
REMARK    2  A    between atoms: N_10  and  C_11
REMARK    3  A    between atoms: C_11  and  C_12
REMARK    4  A    between atoms: C_12  and  O_13
REMARK    5  A    between atoms: O_13  and  C_14
REMARK    6  A    between atoms: C_14  and  P_15
REMARK    7  A    between atoms: P_15  and  O_17
REMARK    8  A    between atoms: P_15  and  O_18
REMARK                            x       y       z     vdW  Elec       q    Type
REMARK                         _______ _______ _______ _____ _____    ______ ____
ROOT
ATOM      1  C   UNL     1       1.516   3.358  19.554  0.00  0.00    +0.000 A 
ATOM      2  C   UNL     1       1.759   2.385  18.575  0.00  0.00    +0.000 A 
ATOM      3  C   UNL     1       2.546   2.665  17.452  0.00  0.00    +0.000 A 
ATOM      4  C   UNL     1       3.118   3.925  17.262  0.00  0.00    +0.000 A 
ATOM      5  C   UNL     1       2.862   4.895  18.241  0.00  0.00    +0.000 A 
ATOM      6  C   UNL     1       2.072   4.640  19.364  0.00  0.00    +0.000 A 
ATOM      7  N   UNL     1       1.972   5.764  20.154  0.00  0.00    +0.000 NA
ATOM      8  C   UNL     1       2.656   6.691  19.526  0.00  0.00    +0.000 A 
ATOM      9  N   UNL     1       3.233   6.211  18.381  0.00  0.00    +0.000 N 
ENDROOT
BRANCH   1  10
ATOM     10  N   UNL     1       0.698   3.060  20.662  0.00  0.00    +0.000 N 
ATOM     11  H   UNL     1      -0.260   2.872  20.386  0.00  0.00    +0.000 HD
ATOM     12  H   UNL     1       1.104   2.272  21.170  0.00  0.00    +0.000 HD
ENDBRANCH   1  10
BRANCH   9  13
ATOM     13  C   UNL     1       4.002   6.995  17.434  0.00  0.00    +0.000 C 
BRANCH  13  14
ATOM     14  C   UNL     1       4.798   6.162  16.439  0.00  0.00    +0.000 C 
BRANCH  14  15
ATOM     15  O   UNL     1       6.177   6.548  16.362  0.00  0.00    +0.000 OA
BRANCH  15  16
ATOM     16  C   UNL     1       6.713   6.563  17.694  0.00  0.00    +0.000 C 
BRANCH  16  17
ATOM     17  P   UNL     1       7.344   5.000  18.253  0.00  0.00    +0.000 P 
ATOM     18  O   UNL     1       8.292   4.250  17.375  0.00  0.00    +0.000 OA
BRANCH  17  19
ATOM     19  O   UNL     1       8.116   5.443  19.594  0.00  0.00    +0.000 OA
ATOM     20  H   UNL     1       7.503   5.631  20.327  0.00  0.00    +0.000 HD
ENDBRANCH  17  19
BRANCH  17  21
ATOM     21  O   UNL     1       6.195   4.066  18.860  0.00  0.00    +0.000 OA
ATOM     22  H   UNL     1       5.301   4.335  18.578  0.00  0.00    +0.000 HD
ENDBRANCH  17  21
ENDBRANCH  16  17
ENDBRANCH  15  16
ENDBRANCH  14  15
ENDBRANCH  13  14
ENDBRANCH   9  13
TORSDOF 8
ENDMDL
MODEL 8
REMARK VINA RESULT:      -6.2      4.580      6.977
REMARK  Name = 
REMARK  8 active torsions:
REMARK  status: ('A' for Active; 'I' for Inactive)
REMARK    1  A    between atoms: N_1  and  C_2
REMARK    2  A    between atoms: N_10  and  C_11
REMARK    3  A    between atoms: C_11  and  C_12
REMARK    4  A    between atoms: C_12  and  O_13
REMARK    5  A    between atoms: O_13  and  C_14
REMARK    6  A    between atoms: C_14  and  P_15
REMARK    7  A    between atoms: P_15  and  O_17
REMARK    8  A    between atoms: P_15  and  O_18
REMARK                            x       y       z     vdW  Elec       q    Type
REMARK                         _______ _______ _______ _____ _____    ______ ____
ROOT
ATOM      1  C   UNL     1       7.765   5.189  13.282  0.00  0.00    +0.000 A 
ATOM      2  C   UNL     1       7.322   4.458  12.171  0.00  0.00    +0.000 A 
ATOM      3  C   UNL     1       6.193   3.636  12.245  0.00  0.00    +0.000 A 
ATOM      4  C   UNL     1       5.462   3.511  13.430  0.00  0.00    +0.000 A 
ATOM      5  C   UNL     1       5.918   4.238  14.538  0.00  0.00    +0.000 A 
ATOM      6  C   UNL     1       7.048   5.056  14.489  0.00  0.00    +0.000 A 
ATOM      7  N   UNL     1       7.279   5.641  15.714  0.00  0.00    +0.000 NA
ATOM      8  C   UNL     1       6.337   5.179  16.502  0.00  0.00    +0.000 A 
ATOM      9  N   UNL     1       5.477   4.350  15.835  0.00  0.00    +0.000 N 
ENDROOT
BRANCH   1  10
ATOM     10  N   UNL     1       8.922   5.988  13.189  0.00  0.00    +0.000 N 
ATOM     11  H   UNL     1       9.330   6.169  14.099  0.00  0.00    +0.000 HD
ATOM     12  H   UNL     1       9.588   5.534  12.561  0.00  0.00    +0.000 HD
ENDBRANCH   1  10
BRANCH   9  13
ATOM     13  C   UNL     1       4.368   3.632  16.433  0.00  0.00    +0.000 C 
BRANCH  13  14
ATOM     14  C   UNL     1       3.818   4.279  17.696  0.00  0.00    +0.000 C 
BRANCH  14  15
ATOM     15  O   UNL     1       3.002   3.391  18.472  0.00  0.00    +0.000 OA
BRANCH  15  16
ATOM     16  C   UNL     1       3.410   3.492  19.845  0.00  0.00    +0.000 C 
BRANCH  16  17
ATOM     17  P   UNL     1       2.085   3.787  20.989  0.00  0.00    +0.000 P 
ATOM     18  O   UNL     1       2.073   3.043  22.285  0.00  0.00    +0.000 OA
BRANCH  17  19
ATOM     19  O   UNL     1       2.283   5.356  21.291  0.00  0.00    +0.000 OA
ATOM     20  H   UNL     1       2.261   5.892  20.479  0.00  0.00    +0.000 HD
ENDBRANCH  17  19
BRANCH  17  21
ATOM     21  O   UNL     1       0.656   3.795  20.270  0.00  0.00    +0.000 OA
ATOM     22  H   UNL     1       0.537   4.557  19.673  0.00  0.00    +0.000 HD
ENDBRANCH  17  21
ENDBRANCH  16  17
ENDBRANCH  15  16
ENDBRANCH  14  15
ENDBRANCH  13  14
ENDBRANCH   9  13
TORSDOF 8
ENDMDL
MODEL 9
REMARK VINA RESULT:      -6.2      2.044      2.511
REMARK  Name = 
REMARK  8 active torsions:
REMARK  status: ('A' for Active; 'I' for Inactive)
REMARK    1  A    between atoms: N_1  and  C_2
REMARK    2  A    between atoms: N_10  and  C_11
REMARK    3  A    between atoms: C_11  and  C_12
REMARK    4  A    between atoms: C_12  and  O_13
REMARK    5  A    between atoms: O_13  and  C_14
REMARK    6  A    between atoms: C_14  and  P_15
REMARK    7  A    between atoms: P_15  and  O_17
REMARK    8  A    between atoms: P_15  and  O_18
REMARK                            x       y       z     vdW  Elec       q    Type
REMARK                         _______ _______ _______ _____ _____    ______ ____
ROOT
ATOM      1  C   UNL     1       1.633   3.929  19.199  0.00  0.00    +0.000 A 
ATOM      2  C   UNL     1       1.774   2.712  18.518  0.00  0.00    +0.000 A 
ATOM      3  C   UNL     1       2.642   2.585  17.429  0.00  0.00    +0.000 A 
ATOM      4  C   UNL     1       3.401   3.667  16.975  0.00  0.00    +0.000 A 
ATOM      5  C   UNL     1       3.247   4.883  17.656  0.00  0.00    +0.000 A 
ATOM      6  C   UNL     1       2.379   5.034  18.739  0.00  0.00    +0.000 A 
ATOM      7  N   UNL     1       2.411   6.327  19.212  0.00  0.00    +0.000 NA
ATOM      8  C   UNL     1       3.251   6.962  18.429  0.00  0.00    +0.000 A 
ATOM      9  N   UNL     1       3.801   6.129  17.491  0.00  0.00    +0.000 N 
ENDROOT
BRANCH   1  10
ATOM     10  N   UNL     1       0.732   4.038  20.278  0.00  0.00    +0.000 N 
ATOM     11  H   UNL     1      -0.143   3.561  20.089  0.00  0.00    +0.000 HD
ATOM     12  H   UNL     1       1.182   3.679  21.122  0.00  0.00    +0.000 HD
ENDBRANCH   1  10
BRANCH   9  13
ATOM     13  C   UNL     1       4.718   6.533  16.443  0.00  0.00    +0.000 C 
BRANCH  13  14
ATOM     14  C   UNL     1       5.843   5.541  16.185  0.00  0.00    +0.000 C 
BRANCH  14  15
ATOM     15  O   UNL     1       7.147   6.122  16.330  0.00  0.00    +0.000 OA
BRANCH  15  16
ATOM     16  C   UNL     1       7.298   6.550  17.693  0.00  0.00    +0.000 C 
BRANCH  16  17
ATOM     17  P   UNL     1       7.411   5.227  18.872  0.00  0.00    +0.000 P 
ATOM     18  O   UNL     1       6.152   4.672  19.454  0.00  0.00    +0.000 OA
BRANCH  17  19
ATOM     19  O   UNL     1       8.122   4.086  17.986  0.00  0.00    +0.000 OA
ATOM     20  H   UNL     1       7.519   3.707  17.322  0.00  0.00    +0.000 HD
ENDBRANCH  17  19
BRANCH  17  21
ATOM     21  O   UNL     1       8.535   5.496  19.978  0.00  0.00    +0.000 OA
ATOM     22  H   UNL     1       9.404   5.129  19.731  0.00  0.00    +0.000 HD
ENDBRANCH  17  21
ENDBRANCH  16  17
ENDBRANCH  15  16
ENDBRANCH  14  15
ENDBRANCH  13  14
ENDBRANCH   9  13
TORSDOF 8
ENDMDL
