MODEL 1
REMARK VINA RESULT:      -7.8      0.000      0.000
REMARK  Name = 
REMARK  9 active torsions:
REMARK  status: ('A' for Active; 'I' for Inactive)
REMARK    1  A    between atoms: C_1  and  C_2
REMARK    2  A    between atoms: C_6  and  N_7
REMARK    3  A    between atoms: C_8  and  C_10
REMARK    4  A    between atoms: C_13  and  C_14
REMARK    5  A    between atoms: C_14  and  N_15
REMARK    6  A    between atoms: C_16  and  O_18
REMARK    7  A    between atoms: O_18  and  C_19
REMARK    8  A    between atoms: C_19  and  C_20
REMARK    9  A    between atoms: C_28  and  N_29
REMARK                            x       y       z     vdW  Elec       q    Type
REMARK                         _______ _______ _______ _____ _____    ______ ____
ROOT
ATOM      1  C   UNL     1       1.078   8.939  19.768  0.00  0.00    +0.000 A 
ATOM      2  C   UNL     1       1.692   7.773  20.252  0.00  0.00    +0.000 A 
ATOM      3  C   UNL     1       2.624   7.080  19.478  0.00  0.00    +0.000 A 
ATOM      4  C   UNL     1       2.963   7.529  18.195  0.00  0.00    +0.000 A 
ATOM      5  C   UNL     1       2.332   8.682  17.702  0.00  0.00    +0.000 A 
ATOM      6  C   UNL     1       1.394   9.383  18.480  0.00  0.00    +0.000 A 
ENDROOT
BRANCH   1   8
ATOM      7  N   UNL     1      -0.166  10.956  20.428  0.00  0.00    +0.000 N 
ATOM      8  C   UNL     1       0.079   9.607  20.653  0.00  0.00    +0.000 C 
ATOM      9  O   UNL     1      -0.462   8.909  21.511  0.00  0.00    +0.000 OA
ATOM     10  H   UNL     1       0.323  11.430  19.680  0.00  0.00    +0.000 HD
BRANCH   7  16
ATOM     11  C   UNL     1      -4.406  13.608  20.752  0.00  0.00    +0.000 C 
ATOM     12  C   UNL     1      -3.108  13.091  21.313  0.00  0.00    +0.000 A 
ATOM     13  C   UNL     1      -2.770  13.457  22.624  0.00  0.00    +0.000 A 
ATOM     14  C   UNL     1      -1.587  13.015  23.200  0.00  0.00    +0.000 A 
ATOM     15  C   UNL     1      -0.731  12.185  22.481  0.00  0.00    +0.000 A 
ATOM     16  C   UNL     1      -1.044  11.784  21.177  0.00  0.00    +0.000 A 
ATOM     17  C   UNL     1      -2.255  12.228  20.581  0.00  0.00    +0.000 A 
BRANCH  17  18
ATOM     18  N   UNL     1      -2.523  11.961  19.214  0.00  0.00    +0.000 N 
ATOM     19  H   UNL     1      -1.694  12.001  18.635  0.00  0.00    +0.000 HD
ATOM     20  H   UNL     1      -3.009  11.081  19.074  0.00  0.00    +0.000 HD
ENDBRANCH  17  18
ENDBRANCH   7  16
ENDBRANCH   1   8
BRANCH   4  21
ATOM     21  C   UNL     1       3.989   6.770  17.391  0.00  0.00    +0.000 C 
BRANCH  21  22
ATOM     22  N   UNL     1       4.373   5.522  18.005  0.00  0.00    +0.000 N 
ATOM     23  C   UNL     1       4.674   4.426  17.250  0.00  0.00    +0.000 C 
ATOM     24  O   UNL     1       4.693   4.400  16.030  0.00  0.00    +0.000 OA
ATOM     25  H   UNL     1       4.318   5.396  19.004  0.00  0.00    +0.000 HD
BRANCH  23  26
ATOM     26  O   UNL     1       4.866   3.355  18.063  0.00  0.00    +0.000 OA
BRANCH  26  27
ATOM     27  C   UNL     1       3.763   2.446  18.151  0.00  0.00    +0.000 C 
BRANCH  27  28
ATOM     28  C   UNL     1       2.917   2.668  19.373  0.00  0.00    +0.000 A 
ATOM     29  C   UNL     1       1.622   3.188  19.285  0.00  0.00    +0.000 A 
ATOM     30  C   UNL     1       0.893   3.428  20.447  0.00  0.00    +0.000 A 
ATOM     31  C   UNL     1       1.482   3.135  21.666  0.00  0.00    +0.000 A 
ATOM     32  N   UNL     1       2.726   2.629  21.792  0.00  0.00    +0.000 NA
ATOM     33  C   UNL     1       3.411   2.405  20.646  0.00  0.00    +0.000 A 
ENDBRANCH  27  28
ENDBRANCH  26  27
ENDBRANCH  23  26
ENDBRANCH  21  22
ENDBRANCH   4  21
TORSDOF 8
ENDMDL
MODEL 2
REMARK VINA RESULT:      -7.7      1.556      1.931
REMARK  Name = 
REMARK  9 active torsions:
REMARK  status: ('A' for Active; 'I' for Inactive)
REMARK    1  A    between atoms: C_1  and  C_2
REMARK    2  A    between atoms: C_6  and  N_7
REMARK    3  A    between atoms: C_8  and  C_10
REMARK    4  A    between atoms: C_13  and  C_14
REMARK    5  A    between atoms: C_14  and  N_15
REMARK    6  A    between atoms: C_16  and  O_18
REMARK    7  A    between atoms: O_18  and  C_19
REMARK    8  A    between atoms: C_19  and  C_20
REMARK    9  A    between atoms: C_28  and  N_29
REMARK                            x       y       z     vdW  Elec       q    Type
REMARK                         _______ _______ _______ _____ _____    ______ ____
ROOT
ATOM      1  C   UNL     1       1.457   8.825  19.253  0.00  0.00    +0.000 A 
ATOM      2  C   UNL     1       2.018   9.101  17.996  0.00  0.00    +0.000 A 
ATOM      3  C   UNL     1       2.959   8.241  17.428  0.00  0.00    +0.000 A 
ATOM      4  C   UNL     1       3.371   7.086  18.103  0.00  0.00    +0.000 A 
ATOM      5  C   UNL     1       2.827   6.821  19.370  0.00  0.00    +0.000 A 
ATOM      6  C   UNL     1       1.877   7.684  19.944  0.00  0.00    +0.000 A 
ENDROOT
BRANCH   1   8
ATOM      7  N   UNL     1       0.749  10.362  21.038  0.00  0.00    +0.000 N 
ATOM      8  C   UNL     1       0.471   9.806  19.796  0.00  0.00    +0.000 C 
ATOM      9  O   UNL     1      -0.510  10.057  19.097  0.00  0.00    +0.000 OA
ATOM     10  H   UNL     1       1.599  10.099  21.520  0.00  0.00    +0.000 HD
BRANCH   7  16
ATOM     11  C   UNL     1      -0.432  15.078  22.257  0.00  0.00    +0.000 C 
ATOM     12  C   UNL     1      -0.623  13.588  22.347  0.00  0.00    +0.000 A 
ATOM     13  C   UNL     1      -1.650  13.108  23.173  0.00  0.00    +0.000 A 
ATOM     14  C   UNL     1      -1.878  11.745  23.303  0.00  0.00    +0.000 A 
ATOM     15  C   UNL     1      -1.092  10.839  22.595  0.00  0.00    +0.000 A 
ATOM     16  C   UNL     1      -0.070  11.281  21.747  0.00  0.00    +0.000 A 
ATOM     17  C   UNL     1       0.167  12.675  21.605  0.00  0.00    +0.000 A 
BRANCH  17  18
ATOM     18  N   UNL     1       1.288  13.142  20.873  0.00  0.00    +0.000 N 
ATOM     19  H   UNL     1       1.955  13.639  21.449  0.00  0.00    +0.000 HD
ATOM     20  H   UNL     1       1.752  12.405  20.353  0.00  0.00    +0.000 HD
ENDBRANCH  17  18
ENDBRANCH   7  16
ENDBRANCH   1   8
BRANCH   4  21
ATOM     21  C   UNL     1       4.375   6.166  17.453  0.00  0.00    +0.000 C 
BRANCH  21  22
ATOM     22  N   UNL     1       3.880   4.821  17.288  0.00  0.00    +0.000 N 
ATOM     23  C   UNL     1       4.541   3.754  17.822  0.00  0.00    +0.000 C 
ATOM     24  O   UNL     1       5.551   3.826  18.504  0.00  0.00    +0.000 OA
ATOM     25  H   UNL     1       3.100   4.626  16.679  0.00  0.00    +0.000 HD
BRANCH  23  26
ATOM     26  O   UNL     1       3.951   2.603  17.410  0.00  0.00    +0.000 OA
BRANCH  26  27
ATOM     27  C   UNL     1       3.663   1.655  18.446  0.00  0.00    +0.000 C 
BRANCH  27  28
ATOM     28  C   UNL     1       2.821   2.230  19.548  0.00  0.00    +0.000 A 
ATOM     29  C   UNL     1       1.548   2.754  19.302  0.00  0.00    +0.000 A 
ATOM     30  C   UNL     1       0.823   3.327  20.345  0.00  0.00    +0.000 A 
ATOM     31  C   UNL     1       1.393   3.354  21.606  0.00  0.00    +0.000 A 
ATOM     32  N   UNL     1       2.616   2.856  21.884  0.00  0.00    +0.000 NA
ATOM     33  C   UNL     1       3.297   2.305  20.852  0.00  0.00    +0.000 A 
ENDBRANCH  27  28
ENDBRANCH  26  27
ENDBRANCH  23  26
ENDBRANCH  21  22
ENDBRANCH   4  21
TORSDOF 8
ENDMDL
MODEL 3
REMARK VINA RESULT:      -7.6      2.373      3.805
REMARK  Name = 
REMARK  9 active torsions:
REMARK  status: ('A' for Active; 'I' for Inactive)
REMARK    1  A    between atoms: C_1  and  C_2
REMARK    2  A    between atoms: C_6  and  N_7
REMARK    3  A    between atoms: C_8  and  C_10
REMARK    4  A    between atoms: C_13  and  C_14
REMARK    5  A    between atoms: C_14  and  N_15
REMARK    6  A    between atoms: C_16  and  O_18
REMARK    7  A    between atoms: O_18  and  C_19
REMARK    8  A    between atoms: C_19  and  C_20
REMARK    9  A    between atoms: C_28  and  N_29
REMARK                            x       y       z     vdW  Elec       q    Type
REMARK                         _______ _______ _______ _____ _____    ______ ____
ROOT
ATOM      1  C   UNL     1       0.223  10.130  21.120  0.00  0.00    +0.000 A 
ATOM      2  C   UNL     1       1.022   9.010  21.403  0.00  0.00    +0.000 A 
ATOM      3  C   UNL     1       1.667   8.314  20.380  0.00  0.00    +0.000 A 
ATOM      4  C   UNL     1       1.526   8.713  19.045  0.00  0.00    +0.000 A 
ATOM      5  C   UNL     1       0.709   9.818  18.760  0.00  0.00    +0.000 A 
ATOM      6  C   UNL     1       0.059  10.523  19.788  0.00  0.00    +0.000 A 
ENDROOT
BRANCH   1   8
ATOM      7  N   UNL     1      -1.308  11.854  21.978  0.00  0.00    +0.000 N 
ATOM      8  C   UNL     1      -0.447  10.804  22.272  0.00  0.00    +0.000 C 
ATOM      9  O   UNL     1      -0.193  10.372  23.396  0.00  0.00    +0.000 OA
ATOM     10  H   UNL     1      -1.460  12.115  21.012  0.00  0.00    +0.000 HD
BRANCH   7  16
ATOM     11  C   UNL     1      -1.705  16.069  24.660  0.00  0.00    +0.000 C 
ATOM     12  C   UNL     1      -2.181  14.704  24.239  0.00  0.00    +0.000 A 
ATOM     13  C   UNL     1      -3.364  14.216  24.815  0.00  0.00    +0.000 A 
ATOM     14  C   UNL     1      -3.856  12.965  24.471  0.00  0.00    +0.000 A 
ATOM     15  C   UNL     1      -3.183  12.188  23.532  0.00  0.00    +0.000 A 
ATOM     16  C   UNL     1      -2.011  12.649  22.921  0.00  0.00    +0.000 A 
ATOM     17  C   UNL     1      -1.503  13.931  23.264  0.00  0.00    +0.000 A 
BRANCH  17  18
ATOM     18  N   UNL     1      -0.241  14.357  22.776  0.00  0.00    +0.000 N 
ATOM     19  H   UNL     1       0.474  14.370  23.492  0.00  0.00    +0.000 HD
ATOM     20  H   UNL     1       0.072  13.819  21.975  0.00  0.00    +0.000 HD
ENDBRANCH  17  18
ENDBRANCH   7  16
ENDBRANCH   1   8
BRANCH   4  21
ATOM     21  C   UNL     1       2.254   7.952  17.964  0.00  0.00    +0.000 C 
BRANCH  21  22
ATOM     22  N   UNL     1       3.221   7.019  18.486  0.00  0.00    +0.000 N 
ATOM     23  C   UNL     1       2.983   5.675  18.479  0.00  0.00    +0.000 C 
ATOM     24  O   UNL     1       1.991   5.143  18.008  0.00  0.00    +0.000 OA
ATOM     25  H   UNL     1       4.043   7.341  18.974  0.00  0.00    +0.000 HD
BRANCH  23  26
ATOM     26  O   UNL     1       3.977   5.035  19.146  0.00  0.00    +0.000 OA
BRANCH  26  27
ATOM     27  C   UNL     1       4.506   3.874  18.494  0.00  0.00    +0.000 C 
BRANCH  27  28
ATOM     28  C   UNL     1       5.379   4.209  17.319  0.00  0.00    +0.000 A 
ATOM     29  C   UNL     1       4.926   4.067  16.003  0.00  0.00    +0.000 A 
ATOM     30  C   UNL     1       5.787   4.338  14.943  0.00  0.00    +0.000 A 
ATOM     31  C   UNL     1       7.077   4.749  15.230  0.00  0.00    +0.000 A 
ATOM     32  N   UNL     1       7.551   4.901  16.485  0.00  0.00    +0.000 NA
ATOM     33  C   UNL     1       6.691   4.632  17.496  0.00  0.00    +0.000 A 
ENDBRANCH  27  28
ENDBRANCH  26  27
ENDBRANCH  23  26
ENDBRANCH  21  22
ENDBRANCH   4  21
TORSDOF 8
ENDMDL
MODEL 4
REMARK VINA RESULT:      -7.5      5.618      8.152
REMARK  Name = 
REMARK  9 active torsions:
REMARK  status: ('A' for Active; 'I' for Inactive)
REMARK    1  A    between atoms: C_1  and  C_2
REMARK    2  A    between atoms: C_6  and  N_7
REMARK    3  A    between atoms: C_8  and  C_10
REMARK    4  A    between atoms: C_13  and  C_14
REMARK    5  A    between atoms: C_14  and  N_15
REMARK    6  A    between atoms: C_16  and  O_18
REMARK    7  A    between atoms: O_18  and  C_19
REMARK    8  A    between atoms: C_19  and  C_20
REMARK    9  A    between atoms: C_28  and  N_29
REMARK                            x       y       z     vdW  Elec       q    Type
REMARK                         _______ _______ _______ _____ _____    ______ ____
ROOT
ATOM      1  C   UNL     1       7.950   8.263  18.131  0.00  0.00    +0.000 A 
ATOM      2  C   UNL     1       8.425   7.280  19.013  0.00  0.00    +0.000 A 
ATOM      3  C   UNL     1       7.935   5.974  18.961  0.00  0.00    +0.000 A 
ATOM      4  C   UNL     1       6.951   5.616  18.031  0.00  0.00    +0.000 A 
ATOM      5  C   UNL     1       6.460   6.605  17.164  0.00  0.00    +0.000 A 
ATOM      6  C   UNL     1       6.952   7.920  17.212  0.00  0.00    +0.000 A 
ENDROOT
BRANCH   1   8
ATOM      7  N   UNL     1       9.428   9.851  19.290  0.00  0.00    +0.000 N 
ATOM      8  C   UNL     1       8.514   9.639  18.267  0.00  0.00    +0.000 C 
ATOM      9  O   UNL     1       8.132  10.482  17.454  0.00  0.00    +0.000 OA
ATOM     10  H   UNL     1       9.687   9.079  19.891  0.00  0.00    +0.000 HD
BRANCH   7  16
ATOM     11  C   UNL     1       9.683  13.962  22.145  0.00  0.00    +0.000 C 
ATOM     12  C   UNL     1      10.150  13.097  21.006  0.00  0.00    +0.000 A 
ATOM     13  C   UNL     1      11.239  13.548  20.245  0.00  0.00    +0.000 A 
ATOM     14  C   UNL     1      11.719  12.798  19.180  0.00  0.00    +0.000 A 
ATOM     15  C   UNL     1      11.127  11.577  18.868  0.00  0.00    +0.000 A 
ATOM     16  C   UNL     1      10.051  11.086  19.615  0.00  0.00    +0.000 A 
ATOM     17  C   UNL     1       9.557  11.844  20.710  0.00  0.00    +0.000 A 
BRANCH  17  18
ATOM     18  N   UNL     1       8.377  11.444  21.387  0.00  0.00    +0.000 N 
ATOM     19  H   UNL     1       7.592  12.058  21.208  0.00  0.00    +0.000 HD
ATOM     20  H   UNL     1       8.121  10.481  21.195  0.00  0.00    +0.000 HD
ENDBRANCH  17  18
ENDBRANCH   7  16
ENDBRANCH   1   8
BRANCH   4  21
ATOM     21  C   UNL     1       6.457   4.191  17.986  0.00  0.00    +0.000 C 
BRANCH  21  22
ATOM     22  N   UNL     1       5.460   3.910  18.989  0.00  0.00    +0.000 N 
ATOM     23  C   UNL     1       4.341   3.189  18.691  0.00  0.00    +0.000 C 
ATOM     24  O   UNL     1       4.100   2.689  17.604  0.00  0.00    +0.000 OA
ATOM     25  H   UNL     1       5.508   4.336  19.903  0.00  0.00    +0.000 HD
BRANCH  23  26
ATOM     26  O   UNL     1       3.506   3.185  19.762  0.00  0.00    +0.000 OA
BRANCH  26  27
ATOM     27  C   UNL     1       2.186   3.685  19.513  0.00  0.00    +0.000 C 
BRANCH  27  28
ATOM     28  C   UNL     1       2.139   5.181  19.393  0.00  0.00    +0.000 A 
ATOM     29  C   UNL     1       2.448   5.831  18.194  0.00  0.00    +0.000 A 
ATOM     30  C   UNL     1       2.443   7.223  18.141  0.00  0.00    +0.000 A 
ATOM     31  C   UNL     1       2.125   7.925  19.292  0.00  0.00    +0.000 A 
ATOM     32  N   UNL     1       1.819   7.335  20.466  0.00  0.00    +0.000 NA
ATOM     33  C   UNL     1       1.830   5.980  20.487  0.00  0.00    +0.000 A 
ENDBRANCH  27  28
ENDBRANCH  26  27
ENDBRANCH  23  26
ENDBRANCH  21  22
ENDBRANCH   4  21
TORSDOF 8
ENDMDL
MODEL 5
REMARK VINA RESULT:      -7.5      2.532      9.695
REMARK  Name = 
REMARK  9 active torsions:
REMARK  status: ('A' for Active; 'I' for Inactive)
REMARK    1  A    between atoms: C_1  and  C_2
REMARK    2  A    between atoms: C_6  and  N_7
REMARK    3  A    between atoms: C_8  and  C_10
REMARK    4  A    between atoms: C_13  and  C_14
REMARK    5  A    between atoms: C_14  and  N_15
REMARK    6  A    between atoms: C_16  and  O_18
REMARK    7  A    between atoms: O_18  and  C_19
REMARK    8  A    between atoms: C_19  and  C_20
REMARK    9  A    between atoms: C_28  and  N_29
REMARK                            x       y       z     vdW  Elec       q    Type
REMARK                         _______ _______ _______ _____ _____    ______ ____
ROOT
ATOM      1  C   UNL     1       1.010   8.860  20.828  0.00  0.00    +0.000 A 
ATOM      2  C   UNL     1       0.559  10.029  20.194  0.00  0.00    +0.000 A 
ATOM      3  C   UNL     1      -0.126  11.013  20.908  0.00  0.00    +0.000 A 
ATOM      4  C   UNL     1      -0.387  10.852  22.275  0.00  0.00    +0.000 A 
ATOM      5  C   UNL     1       0.044   9.674  22.904  0.00  0.00    +0.000 A 
ATOM      6  C   UNL     1       0.736   8.682  22.188  0.00  0.00    +0.000 A 
ENDROOT
BRANCH   1   8
ATOM      7  N   UNL     1       1.973   6.613  20.559  0.00  0.00    +0.000 N 
ATOM      8  C   UNL     1       1.718   7.851  19.985  0.00  0.00    +0.000 C 
ATOM      9  O   UNL     1       2.014   8.190  18.839  0.00  0.00    +0.000 OA
ATOM     10  H   UNL     1       1.667   6.433  21.507  0.00  0.00    +0.000 HD
BRANCH   7  16
ATOM     11  C   UNL     1       2.055   1.861  18.969  0.00  0.00    +0.000 C 
ATOM     12  C   UNL     1       2.694   3.205  19.195  0.00  0.00    +0.000 A 
ATOM     13  C   UNL     1       4.025   3.373  18.784  0.00  0.00    +0.000 A 
ATOM     14  C   UNL     1       4.674   4.588  18.964  0.00  0.00    +0.000 A 
ATOM     15  C   UNL     1       3.997   5.657  19.543  0.00  0.00    +0.000 A 
ATOM     16  C   UNL     1       2.663   5.532  19.949  0.00  0.00    +0.000 A 
ATOM     17  C   UNL     1       1.990   4.295  19.763  0.00  0.00    +0.000 A 
BRANCH  17  18
ATOM     18  N   UNL     1       0.693   4.096  20.300  0.00  0.00    +0.000 N 
ATOM     19  H   UNL     1       0.079   4.887  20.152  0.00  0.00    +0.000 HD
ATOM     20  H   UNL     1       0.256   3.244  19.965  0.00  0.00    +0.000 HD
ENDBRANCH  17  18
ENDBRANCH   7  16
ENDBRANCH   1   8
BRANCH   4  21
ATOM     21  C   UNL     1      -1.112  11.943  23.024  0.00  0.00    +0.000 C 
BRANCH  21  22
ATOM     22  N   UNL     1      -2.231  12.481  22.290  0.00  0.00    +0.000 N 
ATOM     23  C   UNL     1      -3.501  12.409  22.784  0.00  0.00    +0.000 C 
ATOM     24  O   UNL     1      -3.803  11.944  23.871  0.00  0.00    +0.000 OA
ATOM     25  H   UNL     1      -2.119  12.819  21.346  0.00  0.00    +0.000 HD
BRANCH  23  26
ATOM     26  O   UNL     1      -4.377  12.858  21.849  0.00  0.00    +0.000 OA
BRANCH  26  27
ATOM     27  C   UNL     1      -3.787  13.318  20.626  0.00  0.00    +0.000 C 
BRANCH  27  28
ATOM     28  C   UNL     1      -3.976  12.358  19.487  0.00  0.00    +0.000 A 
ATOM     29  C   UNL     1      -2.890  11.840  18.776  0.00  0.00    +0.000 A 
ATOM     30  C   UNL     1      -3.114  10.993  17.692  0.00  0.00    +0.000 A 
ATOM     31  C   UNL     1      -4.421  10.687  17.355  0.00  0.00    +0.000 A 
ATOM     32  N   UNL     1      -5.496  11.164  18.018  0.00  0.00    +0.000 NA
ATOM     33  C   UNL     1      -5.248  11.983  19.067  0.00  0.00    +0.000 A 
ENDBRANCH  27  28
ENDBRANCH  26  27
ENDBRANCH  23  26
ENDBRANCH  21  22
ENDBRANCH   4  21
TORSDOF 8
ENDMDL
MODEL 6
REMARK VINA RESULT:      -7.4      3.278      4.884
REMARK  Name = 
REMARK  9 active torsions:
REMARK  status: ('A' for Active; 'I' for Inactive)
REMARK    1  A    between atoms: C_1  and  C_2
REMARK    2  A    between atoms: C_6  and  N_7
REMARK    3  A    between atoms: C_8  and  C_10
REMARK    4  A    between atoms: C_13  and  C_14
REMARK    5  A    between atoms: C_14  and  N_15
REMARK    6  A    between atoms: C_16  and  O_18
REMARK    7  A    between atoms: O_18  and  C_19
REMARK    8  A    between atoms: C_19  and  C_20
REMARK    9  A    between atoms: C_28  and  N_29
REMARK                            x       y       z     vdW  Elec       q    Type
REMARK                         _______ _______ _______ _____ _____    ______ ____
ROOT
ATOM      1  C   UNL     1       1.164   9.728  19.443  0.00  0.00    +0.000 A 
ATOM      2  C   UNL     1       1.821   8.936  18.487  0.00  0.00    +0.000 A 
ATOM      3  C   UNL     1       2.185   7.620  18.777  0.00  0.00    +0.000 A 
ATOM      4  C   UNL     1       1.910   7.062  20.031  0.00  0.00    +0.000 A 
ATOM      5  C   UNL     1       1.274   7.861  20.994  0.00  0.00    +0.000 A 
ATOM      6  C   UNL     1       0.904   9.186  20.706  0.00  0.00    +0.000 A 
ENDROOT
BRANCH   1   8
ATOM      7  N   UNL     1       1.649  12.138  19.547  0.00  0.00    +0.000 N 
ATOM      8  C   UNL     1       0.828  11.131  19.057  0.00  0.00    +0.000 C 
ATOM      9  O   UNL     1      -0.149  11.289  18.325  0.00  0.00    +0.000 OA
ATOM     10  H   UNL     1       2.441  11.893  20.128  0.00  0.00    +0.000 HD
BRANCH   7  16
ATOM     11  C   UNL     1       3.176  16.414  17.424  0.00  0.00    +0.000 C 
ATOM     12  C   UNL     1       2.253  15.615  18.306  0.00  0.00    +0.000 A 
ATOM     13  C   UNL     1       1.199  16.295  18.935  0.00  0.00    +0.000 A 
ATOM     14  C   UNL     1       0.313  15.618  19.763  0.00  0.00    +0.000 A 
ATOM     15  C   UNL     1       0.456  14.247  19.960  0.00  0.00    +0.000 A 
ATOM     16  C   UNL     1       1.484  13.532  19.334  0.00  0.00    +0.000 A 
ATOM     17  C   UNL     1       2.392  14.216  18.482  0.00  0.00    +0.000 A 
BRANCH  17  18
ATOM     18  N   UNL     1       3.527  13.547  17.957  0.00  0.00    +0.000 N 
ATOM     19  H   UNL     1       4.379  14.088  18.045  0.00  0.00    +0.000 HD
ATOM     20  H   UNL     1       3.655  12.622  18.353  0.00  0.00    +0.000 HD
ENDBRANCH  17  18
ENDBRANCH   7  16
ENDBRANCH   1   8
BRANCH   4  21
ATOM     21  C   UNL     1       2.298   5.630  20.307  0.00  0.00    +0.000 C 
BRANCH  21  22
ATOM     22  N   UNL     1       3.214   5.098  19.328  0.00  0.00    +0.000 N 
ATOM     23  C   UNL     1       3.078   3.828  18.849  0.00  0.00    +0.000 C 
ATOM     24  O   UNL     1       2.179   3.059  19.150  0.00  0.00    +0.000 OA
ATOM     25  H   UNL     1       4.043   5.608  19.061  0.00  0.00    +0.000 HD
BRANCH  23  26
ATOM     26  O   UNL     1       4.137   3.527  18.054  0.00  0.00    +0.000 OA
BRANCH  26  27
ATOM     27  C   UNL     1       5.174   4.516  18.014  0.00  0.00    +0.000 C 
BRANCH  27  28
ATOM     28  C   UNL     1       5.797   4.656  16.654  0.00  0.00    +0.000 A 
ATOM     29  C   UNL     1       5.277   3.995  15.537  0.00  0.00    +0.000 A 
ATOM     30  C   UNL     1       5.917   4.111  14.305  0.00  0.00    +0.000 A 
ATOM     31  C   UNL     1       7.059   4.890  14.227  0.00  0.00    +0.000 A 
ATOM     32  N   UNL     1       7.589   5.546  15.281  0.00  0.00    +0.000 NA
ATOM     33  C   UNL     1       6.945   5.416  16.465  0.00  0.00    +0.000 A 
ENDBRANCH  27  28
ENDBRANCH  26  27
ENDBRANCH  23  26
ENDBRANCH  21  22
ENDBRANCH   4  21
TORSDOF 8
ENDMDL
MODEL 7
REMARK VINA RESULT:      -7.4      2.123      2.805
REMARK  Name = 
REMARK  9 active torsions:
REMARK  status: ('A' for Active; 'I' for Inactive)
REMARK    1  A    between atoms: C_1  and  C_2
REMARK    2  A    between atoms: C_6  and  N_7
REMARK    3  A    between atoms: C_8  and  C_10
REMARK    4  A    between atoms: C_13  and  C_14
REMARK    5  A    between atoms: C_14  and  N_15
REMARK    6  A    between atoms: C_16  and  O_18
REMARK    7  A    between atoms: O_18  and  C_19
REMARK    8  A    between atoms: C_19  and  C_20
REMARK    9  A    between atoms: C_28  and  N_29
REMARK                            x       y       z     vdW  Elec       q    Type
REMARK                         _______ _______ _______ _____ _____    ______ ____
ROOT
ATOM      1  C   UNL     1       2.882   7.807  17.814  0.00  0.00    +0.000 A 
ATOM      2  C   UNL     1       2.335   6.548  18.110  0.00  0.00    +0.000 A 
ATOM      3  C   UNL     1       3.011   5.376  17.770  0.00  0.00    +0.000 A 
ATOM      4  C   UNL     1       4.249   5.428  17.118  0.00  0.00    +0.000 A 
ATOM      5  C   UNL     1       4.786   6.686  16.802  0.00  0.00    +0.000 A 
ATOM      6  C   UNL     1       4.108   7.869  17.145  0.00  0.00    +0.000 A 
ENDROOT
BRANCH   1   8
ATOM      7  N   UNL     1       1.254   8.895  19.304  0.00  0.00    +0.000 N 
ATOM      8  C   UNL     1       2.083   9.010  18.196  0.00  0.00    +0.000 C 
ATOM      9  O   UNL     1       2.228  10.018  17.504  0.00  0.00    +0.000 OA
ATOM     10  H   UNL     1       1.227   8.022  19.814  0.00  0.00    +0.000 HD
BRANCH   7  16
ATOM     11  C   UNL     1      -2.676  11.945  18.693  0.00  0.00    +0.000 C 
ATOM     12  C   UNL     1      -1.522  11.397  19.489  0.00  0.00    +0.000 A 
ATOM     13  C   UNL     1      -1.308  11.917  20.774  0.00  0.00    +0.000 A 
ATOM     14  C   UNL     1      -0.260  11.456  21.560  0.00  0.00    +0.000 A 
ATOM     15  C   UNL     1       0.581  10.456  21.079  0.00  0.00    +0.000 A 
ATOM     16  C   UNL     1       0.387   9.901  19.809  0.00  0.00    +0.000 A 
ATOM     17  C   UNL     1      -0.685  10.363  19.000  0.00  0.00    +0.000 A 
BRANCH  17  18
ATOM     18  N   UNL     1      -0.812   9.926  17.657  0.00  0.00    +0.000 N 
ATOM     19  H   UNL     1      -1.742  10.065  17.284  0.00  0.00    +0.000 HD
ATOM     20  H   UNL     1      -0.120  10.342  17.042  0.00  0.00    +0.000 HD
ENDBRANCH  17  18
ENDBRANCH   7  16
ENDBRANCH   1   8
BRANCH   4  21
ATOM     21  C   UNL     1       4.965   4.143  16.783  0.00  0.00    +0.000 C 
BRANCH  21  22
ATOM     22  N   UNL     1       4.794   3.125  17.789  0.00  0.00    +0.000 N 
ATOM     23  C   UNL     1       5.321   3.269  19.039  0.00  0.00    +0.000 C 
ATOM     24  O   UNL     1       5.928   4.253  19.433  0.00  0.00    +0.000 OA
ATOM     25  H   UNL     1       4.380   2.233  17.561  0.00  0.00    +0.000 HD
BRANCH  23  26
ATOM     26  O   UNL     1       5.139   2.123  19.743  0.00  0.00    +0.000 OA
BRANCH  26  27
ATOM     27  C   UNL     1       4.191   2.205  20.815  0.00  0.00    +0.000 C 
BRANCH  27  28
ATOM     28  C   UNL     1       2.835   2.664  20.363  0.00  0.00    +0.000 A 
ATOM     29  C   UNL     1       2.195   3.758  20.954  0.00  0.00    +0.000 A 
ATOM     30  C   UNL     1       0.914   4.117  20.540  0.00  0.00    +0.000 A 
ATOM     31  C   UNL     1       0.312   3.370  19.541  0.00  0.00    +0.000 A 
ATOM     32  N   UNL     1       0.897   2.310  18.944  0.00  0.00    +0.000 NA
ATOM     33  C   UNL     1       2.142   1.986  19.366  0.00  0.00    +0.000 A 
ENDBRANCH  27  28
ENDBRANCH  26  27
ENDBRANCH  23  26
ENDBRANCH  21  22
ENDBRANCH   4  21
TORSDOF 8
ENDMDL
MODEL 8
REMARK VINA RESULT:      -7.4      3.147      4.681
REMARK  Name = 
REMARK  9 active torsions:
REMARK  status: ('A' for Active; 'I' for Inactive)
REMARK    1  A    between atoms: C_1  and  C_2
REMARK    2  A    between atoms: C_6  and  N_7
REMARK    3  A    between atoms: C_8  and  C_10
REMARK    4  A    between atoms: C_13  and  C_14
REMARK    5  A    between atoms: C_14  and  N_15
REMARK    6  A    between atoms: C_16  and  O_18
REMARK    7  A    between atoms: O_18  and  C_19
REMARK    8  A    between atoms: C_19  and  C_20
REMARK    9  A    between atoms: C_28  and  N_29
REMARK                            x       y       z     vdW  Elec       q    Type
REMARK                         _______ _______ _______ _____ _____    ______ ____
ROOT
ATOM      1  C   UNL     1       1.300   9.749  19.186  0.00  0.00    +0.000 A 
ATOM      2  C   UNL     1       1.004   9.152  20.421  0.00  0.00    +0.000 A 
ATOM      3  C   UNL     1       1.406   7.845  20.699  0.00  0.00    +0.000 A 
ATOM      4  C   UNL     1       2.110   7.096  19.748  0.00  0.00    +0.000 A 
ATOM      5  C   UNL     1       2.387   7.685  18.504  0.00  0.00    +0.000 A 
ATOM      6  C   UNL     1       1.985   9.002  18.221  0.00  0.00    +0.000 A 
ENDROOT
BRANCH   1   8
ATOM      7  N   UNL     1       1.623  12.176  19.421  0.00  0.00    +0.000 N 
ATOM      8  C   UNL     1       0.816  11.144  18.963  0.00  0.00    +0.000 C 
ATOM      9  O   UNL     1      -0.261  11.275  18.380  0.00  0.00    +0.000 OA
ATOM     10  H   UNL     1       2.502  11.956  19.872  0.00  0.00    +0.000 HD
BRANCH   7  16
ATOM     11  C   UNL     1       2.677  16.740  17.638  0.00  0.00    +0.000 C 
ATOM     12  C   UNL     1       1.871  15.790  18.482  0.00  0.00    +0.000 A 
ATOM     13  C   UNL     1       0.799  16.316  19.218  0.00  0.00    +0.000 A 
ATOM     14  C   UNL     1       0.017  15.494  20.018  0.00  0.00    +0.000 A 
ATOM     15  C   UNL     1       0.283  14.129  20.081  0.00  0.00    +0.000 A 
ATOM     16  C   UNL     1       1.332  13.565  19.346  0.00  0.00    +0.000 A 
ATOM     17  C   UNL     1       2.135  14.398  18.521  0.00  0.00    +0.000 A 
BRANCH  17  18
ATOM     18  N   UNL     1       3.292  13.880  17.887  0.00  0.00    +0.000 N 
ATOM     19  H   UNL     1       4.048  13.696  18.534  0.00  0.00    +0.000 HD
ATOM     20  H   UNL     1       3.098  13.054  17.329  0.00  0.00    +0.000 HD
ENDBRANCH  17  18
ENDBRANCH   7  16
ENDBRANCH   1   8
BRANCH   4  21
ATOM     21  C   UNL     1       2.550   5.693  20.086  0.00  0.00    +0.000 C 
BRANCH  21  22
ATOM     22  N   UNL     1       3.965   5.488  19.902  0.00  0.00    +0.000 N 
ATOM     23  C   UNL     1       4.447   4.335  19.352  0.00  0.00    +0.000 C 
ATOM     24  O   UNL     1       3.759   3.417  18.937  0.00  0.00    +0.000 OA
ATOM     25  H   UNL     1       4.638   6.139  20.278  0.00  0.00    +0.000 HD
BRANCH  23  26
ATOM     26  O   UNL     1       5.804   4.335  19.417  0.00  0.00    +0.000 OA
BRANCH  26  27
ATOM     27  C   UNL     1       6.452   5.392  18.699  0.00  0.00    +0.000 C 
BRANCH  27  28
ATOM     28  C   UNL     1       6.229   5.315  17.216  0.00  0.00    +0.000 A 
ATOM     29  C   UNL     1       6.726   4.254  16.452  0.00  0.00    +0.000 A 
ATOM     30  C   UNL     1       6.541   4.249  15.072  0.00  0.00    +0.000 A 
ATOM     31  C   UNL     1       5.858   5.307  14.495  0.00  0.00    +0.000 A 
ATOM     32  N   UNL     1       5.361   6.347  15.197  0.00  0.00    +0.000 NA
ATOM     33  C   UNL     1       5.555   6.324  16.537  0.00  0.00    +0.000 A 
ENDBRANCH  27  28
ENDBRANCH  26  27
ENDBRANCH  23  26
ENDBRANCH  21  22
ENDBRANCH   4  21
TORSDOF 8
ENDMDL
MODEL 9
REMARK VINA RESULT:      -7.3      0.826      1.075
REMARK  Name = 
REMARK  9 active torsions:
REMARK  status: ('A' for Active; 'I' for Inactive)
REMARK    1  A    between atoms: C_1  and  C_2
REMARK    2  A    between atoms: C_6  and  N_7
REMARK    3  A    between atoms: C_8  and  C_10
REMARK    4  A    between atoms: C_13  and  C_14
REMARK    5  A    between atoms: C_14  and  N_15
REMARK    6  A    between atoms: C_16  and  O_18
REMARK    7  A    between atoms: O_18  and  C_19
REMARK    8  A    between atoms: C_19  and  C_20
REMARK    9  A    between atoms: C_28  and  N_29
REMARK                            x       y       z     vdW  Elec       q    Type
REMARK                         _______ _______ _______ _____ _____    ______ ____
ROOT
ATOM      1  C   UNL     1       0.832   9.238  19.973  0.00  0.00    +0.000 A 
ATOM      2  C   UNL     1       1.450   8.085  20.483  0.00  0.00    +0.000 A 
ATOM      3  C   UNL     1       2.361   7.360  19.714  0.00  0.00    +0.000 A 
ATOM      4  C   UNL     1       2.674   7.762  18.410  0.00  0.00    +0.000 A 
ATOM      5  C   UNL     1       2.040   8.902  17.891  0.00  0.00    +0.000 A 
ATOM      6  C   UNL     1       1.124   9.636  18.664  0.00  0.00    +0.000 A 
ENDROOT
BRANCH   1   8
ATOM      7  N   UNL     1      -0.429  11.268  20.554  0.00  0.00    +0.000 N 
ATOM      8  C   UNL     1      -0.144   9.943  20.856  0.00  0.00    +0.000 C 
ATOM      9  O   UNL     1      -0.631   9.292  21.781  0.00  0.00    +0.000 OA
ATOM     10  H   UNL     1       0.015  11.701  19.755  0.00  0.00    +0.000 HD
BRANCH   7  16
ATOM     11  C   UNL     1      -4.536  14.133  20.764  0.00  0.00    +0.000 C 
ATOM     12  C   UNL     1      -3.292  13.536  21.366  0.00  0.00    +0.000 A 
ATOM     13  C   UNL     1      -2.990  13.857  22.698  0.00  0.00    +0.000 A 
ATOM     14  C   UNL     1      -1.857  13.341  23.312  0.00  0.00    +0.000 A 
ATOM     15  C   UNL     1      -1.016  12.483  22.609  0.00  0.00    +0.000 A 
ATOM     16  C   UNL     1      -1.294  12.126  21.285  0.00  0.00    +0.000 A 
ATOM     17  C   UNL     1      -2.454  12.645  20.650  0.00  0.00    +0.000 A 
BRANCH  17  18
ATOM     18  N   UNL     1      -2.678  12.421  19.268  0.00  0.00    +0.000 N 
ATOM     19  H   UNL     1      -3.275  13.122  18.847  0.00  0.00    +0.000 HD
ATOM     20  H   UNL     1      -1.816  12.329  18.740  0.00  0.00    +0.000 HD
ENDBRANCH  17  18
ENDBRANCH   7  16
ENDBRANCH   1   8
BRANCH   4  21
ATOM     21  C   UNL     1       3.679   6.969  17.611  0.00  0.00    +0.000 C 
BRANCH  21  22
ATOM     22  N   UNL     1       3.299   5.588  17.443  0.00  0.00    +0.000 N 
ATOM     23  C   UNL     1       4.228   4.628  17.161  0.00  0.00    +0.000 C 
ATOM     24  O   UNL     1       5.429   4.823  17.070  0.00  0.00    +0.000 OA
ATOM     25  H   UNL     1       2.328   5.315  17.417  0.00  0.00    +0.000 HD
BRANCH  23  26
ATOM     26  O   UNL     1       3.600   3.449  16.917  0.00  0.00    +0.000 OA
BRANCH  26  27
ATOM     27  C   UNL     1       3.791   2.435  17.913  0.00  0.00    +0.000 C 
BRANCH  27  28
ATOM     28  C   UNL     1       2.908   2.622  19.114  0.00  0.00    +0.000 A 
ATOM     29  C   UNL     1       3.433   2.675  20.409  0.00  0.00    +0.000 A 
ATOM     30  C   UNL     1       2.573   2.796  21.498  0.00  0.00    +0.000 A 
ATOM     31  C   UNL     1       1.211   2.864  21.258  0.00  0.00    +0.000 A 
ATOM     32  N   UNL     1       0.667   2.819  20.024  0.00  0.00    +0.000 NA
ATOM     33  C   UNL     1       1.527   2.703  18.984  0.00  0.00    +0.000 A 
ENDBRANCH  27  28
ENDBRANCH  26  27
ENDBRANCH  23  26
ENDBRANCH  21  22
ENDBRANCH   4  21
TORSDOF 8
ENDMDL
