MODEL 1
REMARK VINA RESULT:      -8.4      0.000      0.000
REMARK  Name = 
REMARK  7 active torsions:
REMARK  status: ('A' for Active; 'I' for Inactive)
REMARK    1  A    between atoms: C_2  and  O_3
REMARK    2  A    between atoms: C_2  and  C_4
REMARK    3  A    between atoms: C_6  and  S_7
REMARK    4  A    between atoms: S_7  and  N_10
REMARK    5  A    between atoms: N_10  and  C_11
REMARK    6  A    between atoms: C_16  and  C_17
REMARK    7  A    between atoms: C_27  and  O_28
REMARK                            x       y       z     vdW  Elec       q    Type
REMARK                         _______ _______ _______ _____ _____    ______ ____
ROOT
ATOM      1  C   UNL     1       5.916   3.979  14.638  0.00  0.00    +0.000 A 
ATOM      2  C   UNL     1       5.122   3.307  15.562  0.00  0.00    +0.000 A 
ATOM      3  C   UNL     1       5.188   3.624  16.931  0.00  0.00    +0.000 A 
ATOM      4  C   UNL     1       6.064   4.652  17.406  0.00  0.00    +0.000 A 
ATOM      5  C   UNL     1       6.188   5.070  18.759  0.00  0.00    +0.000 A 
ATOM      6  C   UNL     1       7.041   6.102  19.159  0.00  0.00    +0.000 A 
ATOM      7  C   UNL     1       7.830   6.742  18.226  0.00  0.00    +0.000 A 
ATOM      8  C   UNL     1       7.752   6.360  16.890  0.00  0.00    +0.000 A 
ATOM      9  C   UNL     1       6.884   5.327  16.452  0.00  0.00    +0.000 A 
ATOM     10  C   UNL     1       6.794   4.971  15.083  0.00  0.00    +0.000 A 
ENDROOT
BRANCH   3  11
ATOM     11  S   UNL     1       4.017   2.747  17.973  0.00  0.00    +0.000 S 
ATOM     12  O   UNL     1       3.799   1.422  17.438  0.00  0.00    +0.000 OA
ATOM     13  O   UNL     1       4.430   2.908  19.354  0.00  0.00    +0.000 OA
BRANCH  11  14
ATOM     14  N   UNL     1       2.559   3.598  17.733  0.00  0.00    +0.000 N 
ATOM     15  H   UNL     1       1.820   2.912  17.552  0.00  0.00    +0.000 HD
BRANCH  14  16
ATOM     16  C   UNL     1       2.251   4.629  18.681  0.00  0.00    +0.000 A 
ATOM     17  C   UNL     1       2.711   5.919  18.392  0.00  0.00    +0.000 A 
ATOM     18  C   UNL     1       2.531   6.962  19.302  0.00  0.00    +0.000 A 
ATOM     19  C   UNL     1       1.868   6.730  20.502  0.00  0.00    +0.000 A 
ATOM     20  C   UNL     1       1.399   5.450  20.795  0.00  0.00    +0.000 A 
ATOM     21  C   UNL     1       1.599   4.378  19.900  0.00  0.00    +0.000 A 
BRANCH  21  22
ATOM     22  C   UNL     1       1.117   3.019  20.336  0.00  0.00    +0.000 C 
ATOM     23  F   UNL     1       2.043   2.027  20.217  0.00  0.00    +0.000 F 
ATOM     24  F   UNL     1       0.698   2.998  21.631  0.00  0.00    +0.000 F 
ATOM     25  F   UNL     1       0.049   2.598  19.599  0.00  0.00    +0.000 F 
ENDBRANCH  21  22
ENDBRANCH  14  16
ENDBRANCH  11  14
ENDBRANCH   3  11
BRANCH   1  27
ATOM     26  O   UNL     1       4.776   3.719  12.572  0.00  0.00    +0.000 OA
ATOM     27  C   UNL     1       5.804   3.577  13.211  0.00  0.00    +0.000 C 
BRANCH  27  28
ATOM     28  O   UNL     1       6.946   3.102  12.670  0.00  0.00    +0.000 OA
ATOM     29  H   UNL     1       7.737   3.608  12.963  0.00  0.00    +0.000 HD
ENDBRANCH  27  28
ENDBRANCH   1  27
BRANCH  10  30
ATOM     30  O   UNL     1       7.558   5.610  14.131  0.00  0.00    +0.000 OA
ATOM     31  H   UNL     1       7.444   5.146  13.281  0.00  0.00    +0.000 HD
ENDBRANCH  10  30
TORSDOF 7
ENDMDL
MODEL 2
REMARK VINA RESULT:      -7.6      3.957      5.614
REMARK  Name = 
REMARK  7 active torsions:
REMARK  status: ('A' for Active; 'I' for Inactive)
REMARK    1  A    between atoms: C_2  and  O_3
REMARK    2  A    between atoms: C_2  and  C_4
REMARK    3  A    between atoms: C_6  and  S_7
REMARK    4  A    between atoms: S_7  and  N_10
REMARK    5  A    between atoms: N_10  and  C_11
REMARK    6  A    between atoms: C_16  and  C_17
REMARK    7  A    between atoms: C_27  and  O_28
REMARK                            x       y       z     vdW  Elec       q    Type
REMARK                         _______ _______ _______ _____ _____    ______ ____
ROOT
ATOM      1  C   UNL     1       5.365   5.794  17.834  0.00  0.00    +0.000 A 
ATOM      2  C   UNL     1       4.429   6.805  17.646  0.00  0.00    +0.000 A 
ATOM      3  C   UNL     1       3.168   6.742  18.267  0.00  0.00    +0.000 A 
ATOM      4  C   UNL     1       2.821   5.643  19.116  0.00  0.00    +0.000 A 
ATOM      5  C   UNL     1       1.591   5.495  19.812  0.00  0.00    +0.000 A 
ATOM      6  C   UNL     1       1.320   4.412  20.653  0.00  0.00    +0.000 A 
ATOM      7  C   UNL     1       2.259   3.414  20.812  0.00  0.00    +0.000 A 
ATOM      8  C   UNL     1       3.475   3.510  20.141  0.00  0.00    +0.000 A 
ATOM      9  C   UNL     1       3.784   4.605  19.294  0.00  0.00    +0.000 A 
ATOM     10  C   UNL     1       5.039   4.701  18.642  0.00  0.00    +0.000 A 
ENDROOT
BRANCH   3  11
ATOM     11  S   UNL     1       2.123   8.180  18.014  0.00  0.00    +0.000 S 
ATOM     12  O   UNL     1       2.882   9.213  17.343  0.00  0.00    +0.000 OA
ATOM     13  O   UNL     1       0.864   7.732  17.451  0.00  0.00    +0.000 OA
BRANCH  11  14
ATOM     14  N   UNL     1       1.845   8.752  19.596  0.00  0.00    +0.000 N 
ATOM     15  H   UNL     1       2.754   8.872  20.052  0.00  0.00    +0.000 HD
BRANCH  14  16
ATOM     16  C   UNL     1       0.915   9.835  19.736  0.00  0.00    +0.000 A 
ATOM     17  C   UNL     1       0.982  10.858  18.784  0.00  0.00    +0.000 A 
ATOM     18  C   UNL     1       0.173  11.991  18.895  0.00  0.00    +0.000 A 
ATOM     19  C   UNL     1      -0.727  12.100  19.949  0.00  0.00    +0.000 A 
ATOM     20  C   UNL     1      -0.807  11.081  20.897  0.00  0.00    +0.000 A 
ATOM     21  C   UNL     1       0.024   9.944  20.817  0.00  0.00    +0.000 A 
BRANCH  21  22
ATOM     22  C   UNL     1      -0.087   8.930  21.925  0.00  0.00    +0.000 C 
ATOM     23  F   UNL     1      -0.734   7.783  21.579  0.00  0.00    +0.000 F 
ATOM     24  F   UNL     1       1.125   8.551  22.417  0.00  0.00    +0.000 F 
ATOM     25  F   UNL     1      -0.779   9.419  22.994  0.00  0.00    +0.000 F 
ENDBRANCH  21  22
ENDBRANCH  14  16
ENDBRANCH  11  14
ENDBRANCH   3  11
BRANCH   1  27
ATOM     26  O   UNL     1       7.312   4.950  16.768  0.00  0.00    +0.000 OA
ATOM     27  C   UNL     1       6.669   5.921  17.131  0.00  0.00    +0.000 C 
BRANCH  27  28
ATOM     28  O   UNL     1       7.048   7.191  16.875  0.00  0.00    +0.000 OA
ATOM     29  H   UNL     1       7.913   7.413  17.286  0.00  0.00    +0.000 HD
ENDBRANCH  27  28
ENDBRANCH   1  27
BRANCH  10  30
ATOM     30  O   UNL     1       5.999   3.726  18.802  0.00  0.00    +0.000 OA
ATOM     31  H   UNL     1       6.508   3.655  17.972  0.00  0.00    +0.000 HD
ENDBRANCH  10  30
TORSDOF 7
ENDMDL
MODEL 3
REMARK VINA RESULT:      -7.6      4.138      6.190
REMARK  Name = 
REMARK  7 active torsions:
REMARK  status: ('A' for Active; 'I' for Inactive)
REMARK    1  A    between atoms: C_2  and  O_3
REMARK    2  A    between atoms: C_2  and  C_4
REMARK    3  A    between atoms: C_6  and  S_7
REMARK    4  A    between atoms: S_7  and  N_10
REMARK    5  A    between atoms: N_10  and  C_11
REMARK    6  A    between atoms: C_16  and  C_17
REMARK    7  A    between atoms: C_27  and  O_28
REMARK                            x       y       z     vdW  Elec       q    Type
REMARK                         _______ _______ _______ _____ _____    ______ ____
ROOT
ATOM      1  C   UNL     1       2.489   4.546  19.828  0.00  0.00    +0.000 A 
ATOM      2  C   UNL     1       2.126   5.869  19.591  0.00  0.00    +0.000 A 
ATOM      3  C   UNL     1       2.753   6.616  18.578  0.00  0.00    +0.000 A 
ATOM      4  C   UNL     1       3.770   6.033  17.757  0.00  0.00    +0.000 A 
ATOM      5  C   UNL     1       4.445   6.686  16.690  0.00  0.00    +0.000 A 
ATOM      6  C   UNL     1       5.411   6.054  15.903  0.00  0.00    +0.000 A 
ATOM      7  C   UNL     1       5.764   4.747  16.166  0.00  0.00    +0.000 A 
ATOM      8  C   UNL     1       5.139   4.068  17.208  0.00  0.00    +0.000 A 
ATOM      9  C   UNL     1       4.144   4.679  18.014  0.00  0.00    +0.000 A 
ATOM     10  C   UNL     1       3.495   3.964  19.052  0.00  0.00    +0.000 A 
ENDROOT
BRANCH   3  11
ATOM     11  S   UNL     1       2.089   8.266  18.328  0.00  0.00    +0.000 S 
ATOM     12  O   UNL     1       3.169   9.174  18.012  0.00  0.00    +0.000 OA
ATOM     13  O   UNL     1       0.949   8.166  17.437  0.00  0.00    +0.000 OA
BRANCH  11  14
ATOM     14  N   UNL     1       1.536   8.710  19.879  0.00  0.00    +0.000 N 
ATOM     15  H   UNL     1       2.332   8.660  20.523  0.00  0.00    +0.000 HD
BRANCH  14  16
ATOM     16  C   UNL     1       0.725   9.889  19.960  0.00  0.00    +0.000 A 
ATOM     17  C   UNL     1       0.854  10.823  18.926  0.00  0.00    +0.000 A 
ATOM     18  C   UNL     1       0.166  12.037  18.971  0.00  0.00    +0.000 A 
ATOM     19  C   UNL     1      -0.676  12.320  20.041  0.00  0.00    +0.000 A 
ATOM     20  C   UNL     1      -0.817  11.391  21.071  0.00  0.00    +0.000 A 
ATOM     21  C   UNL     1      -0.106  10.173  21.057  0.00  0.00    +0.000 A 
BRANCH  21  22
ATOM     22  C   UNL     1      -0.271   9.265  22.248  0.00  0.00    +0.000 C 
ATOM     23  F   UNL     1       0.890   8.966  22.895  0.00  0.00    +0.000 F 
ATOM     24  F   UNL     1      -1.112   9.777  23.188  0.00  0.00    +0.000 F 
ATOM     25  F   UNL     1      -0.804   8.058  21.898  0.00  0.00    +0.000 F 
ENDBRANCH  21  22
ENDBRANCH  14  16
ENDBRANCH  11  14
ENDBRANCH   3  11
BRANCH   1  27
ATOM     26  O   UNL     1       2.313   3.643  22.016  0.00  0.00    +0.000 OA
ATOM     27  C   UNL     1       1.795   3.826  20.927  0.00  0.00    +0.000 C 
BRANCH  27  28
ATOM     28  O   UNL     1       0.530   3.450  20.643  0.00  0.00    +0.000 OA
ATOM     29  H   UNL     1       0.382   2.490  20.799  0.00  0.00    +0.000 HD
ENDBRANCH  27  28
ENDBRANCH   1  27
BRANCH  10  30
ATOM     30  O   UNL     1       3.818   2.652  19.320  0.00  0.00    +0.000 OA
ATOM     31  H   UNL     1       3.435   2.410  20.184  0.00  0.00    +0.000 HD
ENDBRANCH  10  30
TORSDOF 7
ENDMDL
MODEL 4
REMARK VINA RESULT:      -7.6      0.853      1.248
REMARK  Name = 
REMARK  7 active torsions:
REMARK  status: ('A' for Active; 'I' for Inactive)
REMARK    1  A    between atoms: C_2  and  O_3
REMARK    2  A    between atoms: C_2  and  C_4
REMARK    3  A    between atoms: C_6  and  S_7
REMARK    4  A    between atoms: S_7  and  N_10
REMARK    5  A    between atoms: N_10  and  C_11
REMARK    6  A    between atoms: C_16  and  C_17
REMARK    7  A    between atoms: C_27  and  O_28
REMARK                            x       y       z     vdW  Elec       q    Type
REMARK                         _______ _______ _______ _____ _____    ______ ____
ROOT
ATOM      1  C   UNL     1       5.906   4.029  14.447  0.00  0.00    +0.000 A 
ATOM      2  C   UNL     1       5.034   3.410  15.336  0.00  0.00    +0.000 A 
ATOM      3  C   UNL     1       5.069   3.716  16.709  0.00  0.00    +0.000 A 
ATOM      4  C   UNL     1       5.994   4.680  17.223  0.00  0.00    +0.000 A 
ATOM      5  C   UNL     1       6.094   5.084  18.582  0.00  0.00    +0.000 A 
ATOM      6  C   UNL     1       6.999   6.054  19.021  0.00  0.00    +0.000 A 
ATOM      7  C   UNL     1       7.864   6.643  18.122  0.00  0.00    +0.000 A 
ATOM      8  C   UNL     1       7.811   6.272  16.782  0.00  0.00    +0.000 A 
ATOM      9  C   UNL     1       6.893   5.302  16.305  0.00  0.00    +0.000 A 
ATOM     10  C   UNL     1       6.832   4.958  14.931  0.00  0.00    +0.000 A 
ENDROOT
BRANCH   3  11
ATOM     11  S   UNL     1       3.802   2.917  17.700  0.00  0.00    +0.000 S 
ATOM     12  O   UNL     1       2.498   3.369  17.267  0.00  0.00    +0.000 OA
ATOM     13  O   UNL     1       4.092   1.497  17.747  0.00  0.00    +0.000 OA
BRANCH  11  14
ATOM     14  N   UNL     1       4.038   3.578  19.254  0.00  0.00    +0.000 N 
ATOM     15  H   UNL     1       5.020   3.860  19.330  0.00  0.00    +0.000 HD
BRANCH  14  16
ATOM     16  C   UNL     1       3.066   4.530  19.703  0.00  0.00    +0.000 A 
ATOM     17  C   UNL     1       3.225   5.853  19.275  0.00  0.00    +0.000 A 
ATOM     18  C   UNL     1       2.374   6.860  19.735  0.00  0.00    +0.000 A 
ATOM     19  C   UNL     1       1.341   6.549  20.612  0.00  0.00    +0.000 A 
ATOM     20  C   UNL     1       1.170   5.232  21.037  0.00  0.00    +0.000 A 
ATOM     21  C   UNL     1       2.039   4.208  20.606  0.00  0.00    +0.000 A 
BRANCH  21  22
ATOM     22  C   UNL     1       1.815   2.831  21.174  0.00  0.00    +0.000 C 
ATOM     23  F   UNL     1       0.787   2.748  22.065  0.00  0.00    +0.000 F 
ATOM     24  F   UNL     1       1.564   1.899  20.214  0.00  0.00    +0.000 F 
ATOM     25  F   UNL     1       2.908   2.376  21.850  0.00  0.00    +0.000 F 
ENDBRANCH  21  22
ENDBRANCH  14  16
ENDBRANCH  11  14
ENDBRANCH   3  11
BRANCH   1  27
ATOM     26  O   UNL     1       4.778   3.687  12.386  0.00  0.00    +0.000 OA
ATOM     27  C   UNL     1       5.822   3.641  13.015  0.00  0.00    +0.000 C 
BRANCH  27  28
ATOM     28  O   UNL     1       7.001   3.295  12.455  0.00  0.00    +0.000 OA
ATOM     29  H   UNL     1       6.885   2.743  11.650  0.00  0.00    +0.000 HD
ENDBRANCH  27  28
ENDBRANCH   1  27
BRANCH  10  30
ATOM     30  O   UNL     1       7.673   5.547  14.013  0.00  0.00    +0.000 OA
ATOM     31  H   UNL     1       8.324   6.091  14.495  0.00  0.00    +0.000 HD
ENDBRANCH  10  30
TORSDOF 7
ENDMDL
MODEL 5
REMARK VINA RESULT:      -7.4      6.220      8.391
REMARK  Name = 
REMARK  7 active torsions:
REMARK  status: ('A' for Active; 'I' for Inactive)
REMARK    1  A    between atoms: C_2  and  O_3
REMARK    2  A    between atoms: C_2  and  C_4
REMARK    3  A    between atoms: C_6  and  S_7
REMARK    4  A    between atoms: S_7  and  N_10
REMARK    5  A    between atoms: N_10  and  C_11
REMARK    6  A    between atoms: C_16  and  C_17
REMARK    7  A    between atoms: C_27  and  O_28
REMARK                            x       y       z     vdW  Elec       q    Type
REMARK                         _______ _______ _______ _____ _____    ______ ____
ROOT
ATOM      1  C   UNL     1      -1.494  10.481  18.201  0.00  0.00    +0.000 A 
ATOM      2  C   UNL     1      -1.022   9.668  19.226  0.00  0.00    +0.000 A 
ATOM      3  C   UNL     1      -0.021  10.125  20.103  0.00  0.00    +0.000 A 
ATOM      4  C   UNL     1       0.528  11.440  19.970  0.00  0.00    +0.000 A 
ATOM      5  C   UNL     1       1.518  12.010  20.816  0.00  0.00    +0.000 A 
ATOM      6  C   UNL     1       1.995  13.313  20.654  0.00  0.00    +0.000 A 
ATOM      7  C   UNL     1       1.523  14.095  19.621  0.00  0.00    +0.000 A 
ATOM      8  C   UNL     1       0.560  13.576  18.759  0.00  0.00    +0.000 A 
ATOM      9  C   UNL     1       0.046  12.263  18.908  0.00  0.00    +0.000 A 
ATOM     10  C   UNL     1      -0.956  11.761  18.040  0.00  0.00    +0.000 A 
ENDROOT
BRANCH   3  11
ATOM     11  S   UNL     1       0.392   8.998  21.439  0.00  0.00    +0.000 S 
ATOM     12  O   UNL     1       0.655   9.756  22.642  0.00  0.00    +0.000 OA
ATOM     13  O   UNL     1      -0.595   7.936  21.458  0.00  0.00    +0.000 OA
BRANCH  11  14
ATOM     14  N   UNL     1       1.892   8.345  20.957  0.00  0.00    +0.000 N 
ATOM     15  H   UNL     1       2.524   8.379  21.763  0.00  0.00    +0.000 HD
BRANCH  14  16
ATOM     16  C   UNL     1       1.854   7.109  20.231  0.00  0.00    +0.000 A 
ATOM     17  C   UNL     1       1.669   5.939  20.976  0.00  0.00    +0.000 A 
ATOM     18  C   UNL     1       1.705   4.687  20.359  0.00  0.00    +0.000 A 
ATOM     19  C   UNL     1       1.905   4.594  18.986  0.00  0.00    +0.000 A 
ATOM     20  C   UNL     1       2.082   5.756  18.235  0.00  0.00    +0.000 A 
ATOM     21  C   UNL     1       2.078   7.027  18.847  0.00  0.00    +0.000 A 
BRANCH  21  22
ATOM     22  C   UNL     1       2.346   8.217  17.963  0.00  0.00    +0.000 C 
ATOM     23  F   UNL     1       3.323   8.021  17.033  0.00  0.00    +0.000 F 
ATOM     24  F   UNL     1       1.243   8.624  17.277  0.00  0.00    +0.000 F 
ATOM     25  F   UNL     1       2.752   9.303  18.681  0.00  0.00    +0.000 F 
ENDBRANCH  21  22
ENDBRANCH  14  16
ENDBRANCH  11  14
ENDBRANCH   3  11
BRANCH   1  27
ATOM     26  O   UNL     1      -2.487  10.038  16.090  0.00  0.00    +0.000 OA
ATOM     27  C   UNL     1      -2.539   9.923  17.303  0.00  0.00    +0.000 C 
BRANCH  27  28
ATOM     28  O   UNL     1      -3.510   9.230  17.935  0.00  0.00    +0.000 OA
ATOM     29  H   UNL     1      -3.349   8.260  17.918  0.00  0.00    +0.000 HD
ENDBRANCH  27  28
ENDBRANCH   1  27
BRANCH  10  30
ATOM     30  O   UNL     1      -1.456  12.531  17.013  0.00  0.00    +0.000 OA
ATOM     31  H   UNL     1      -2.431  12.493  17.045  0.00  0.00    +0.000 HD
ENDBRANCH  10  30
TORSDOF 7
ENDMDL
MODEL 6
REMARK VINA RESULT:      -7.3      4.189      5.719
REMARK  Name = 
REMARK  7 active torsions:
REMARK  status: ('A' for Active; 'I' for Inactive)
REMARK    1  A    between atoms: C_2  and  O_3
REMARK    2  A    between atoms: C_2  and  C_4
REMARK    3  A    between atoms: C_6  and  S_7
REMARK    4  A    between atoms: S_7  and  N_10
REMARK    5  A    between atoms: N_10  and  C_11
REMARK    6  A    between atoms: C_16  and  C_17
REMARK    7  A    between atoms: C_27  and  O_28
REMARK                            x       y       z     vdW  Elec       q    Type
REMARK                         _______ _______ _______ _____ _____    ______ ____
ROOT
ATOM      1  C   UNL     1       4.854   6.194  17.158  0.00  0.00    +0.000 A 
ATOM      2  C   UNL     1       3.965   7.264  17.177  0.00  0.00    +0.000 A 
ATOM      3  C   UNL     1       2.889   7.288  18.082  0.00  0.00    +0.000 A 
ATOM      4  C   UNL     1       2.686   6.220  19.012  0.00  0.00    +0.000 A 
ATOM      5  C   UNL     1       1.652   6.157  19.985  0.00  0.00    +0.000 A 
ATOM      6  C   UNL     1       1.523   5.100  20.889  0.00  0.00    +0.000 A 
ATOM      7  C   UNL     1       2.408   4.043  20.841  0.00  0.00    +0.000 A 
ATOM      8  C   UNL     1       3.432   4.053  19.897  0.00  0.00    +0.000 A 
ATOM      9  C   UNL     1       3.597   5.121  18.978  0.00  0.00    +0.000 A 
ATOM     10  C   UNL     1       4.663   5.130  18.044  0.00  0.00    +0.000 A 
ENDROOT
BRANCH   3  11
ATOM     11  S   UNL     1       1.905   8.791  18.055  0.00  0.00    +0.000 S 
ATOM     12  O   UNL     1       2.682   9.862  17.470  0.00  0.00    +0.000 OA
ATOM     13  O   UNL     1       0.600   8.469  17.512  0.00  0.00    +0.000 OA
BRANCH  11  14
ATOM     14  N   UNL     1       1.733   9.182  19.706  0.00  0.00    +0.000 N 
ATOM     15  H   UNL     1       2.671   9.254  20.112  0.00  0.00    +0.000 HD
BRANCH  14  16
ATOM     16  C   UNL     1       0.818  10.239  20.026  0.00  0.00    +0.000 A 
ATOM     17  C   UNL     1       0.863  11.384  19.222  0.00  0.00    +0.000 A 
ATOM     18  C   UNL     1       0.068  12.494  19.516  0.00  0.00    +0.000 A 
ATOM     19  C   UNL     1      -0.796  12.460  20.605  0.00  0.00    +0.000 A 
ATOM     20  C   UNL     1      -0.852  11.320  21.406  0.00  0.00    +0.000 A 
ATOM     21  C   UNL     1      -0.035  10.202  21.141  0.00  0.00    +0.000 A 
BRANCH  21  22
ATOM     22  C   UNL     1      -0.118   9.045  22.103  0.00  0.00    +0.000 C 
ATOM     23  F   UNL     1      -0.780   9.321  23.261  0.00  0.00    +0.000 F 
ATOM     24  F   UNL     1      -0.728   7.954  21.564  0.00  0.00    +0.000 F 
ATOM     25  F   UNL     1       1.118   8.619  22.493  0.00  0.00    +0.000 F 
ENDBRANCH  21  22
ENDBRANCH  14  16
ENDBRANCH  11  14
ENDBRANCH   3  11
BRANCH   1  27
ATOM     26  O   UNL     1       5.755   6.156  14.961  0.00  0.00    +0.000 OA
ATOM     27  C   UNL     1       5.957   6.231  16.162  0.00  0.00    +0.000 C 
BRANCH  27  28
ATOM     28  O   UNL     1       7.186   6.416  16.689  0.00  0.00    +0.000 OA
ATOM     29  H   UNL     1       7.769   5.635  16.559  0.00  0.00    +0.000 HD
ENDBRANCH  27  28
ENDBRANCH   1  27
BRANCH  10  30
ATOM     30  O   UNL     1       5.570   4.095  17.990  0.00  0.00    +0.000 OA
ATOM     31  H   UNL     1       5.369   3.470  18.712  0.00  0.00    +0.000 HD
ENDBRANCH  10  30
TORSDOF 7
ENDMDL
MODEL 7
REMARK VINA RESULT:      -7.3      2.168      2.689
REMARK  Name = 
REMARK  7 active torsions:
REMARK  status: ('A' for Active; 'I' for Inactive)
REMARK    1  A    between atoms: C_2  and  O_3
REMARK    2  A    between atoms: C_2  and  C_4
REMARK    3  A    between atoms: C_6  and  S_7
REMARK    4  A    between atoms: S_7  and  N_10
REMARK    5  A    between atoms: N_10  and  C_11
REMARK    6  A    between atoms: C_16  and  C_17
REMARK    7  A    between atoms: C_27  and  O_28
REMARK                            x       y       z     vdW  Elec       q    Type
REMARK                         _______ _______ _______ _____ _____    ______ ____
ROOT
ATOM      1  C   UNL     1       5.958   4.166  14.681  0.00  0.00    +0.000 A 
ATOM      2  C   UNL     1       4.951   3.590  15.450  0.00  0.00    +0.000 A 
ATOM      3  C   UNL     1       4.894   3.806  16.838  0.00  0.00    +0.000 A 
ATOM      4  C   UNL     1       5.861   4.633  17.494  0.00  0.00    +0.000 A 
ATOM      5  C   UNL     1       5.880   4.940  18.882  0.00  0.00    +0.000 A 
ATOM      6  C   UNL     1       6.835   5.779  19.461  0.00  0.00    +0.000 A 
ATOM      7  C   UNL     1       7.832   6.327  18.680  0.00  0.00    +0.000 A 
ATOM      8  C   UNL     1       7.862   6.046  17.317  0.00  0.00    +0.000 A 
ATOM      9  C   UNL     1       6.897   5.210  16.699  0.00  0.00    +0.000 A 
ATOM     10  C   UNL     1       6.925   4.960  15.304  0.00  0.00    +0.000 A 
ENDROOT
BRANCH   3  11
ATOM     11  S   UNL     1       3.469   3.087  17.662  0.00  0.00    +0.000 S 
ATOM     12  O   UNL     1       2.955   1.996  16.865  0.00  0.00    +0.000 OA
ATOM     13  O   UNL     1       3.816   2.861  19.052  0.00  0.00    +0.000 OA
BRANCH  11  14
ATOM     14  N   UNL     1       2.298   4.323  17.582  0.00  0.00    +0.000 N 
ATOM     15  H   UNL     1       1.437   3.917  17.203  0.00  0.00    +0.000 HD
BRANCH  14  16
ATOM     16  C   UNL     1       2.154   5.151  18.744  0.00  0.00    +0.000 A 
ATOM     17  C   UNL     1       1.502   4.590  19.848  0.00  0.00    +0.000 A 
ATOM     18  C   UNL     1       1.242   5.353  20.988  0.00  0.00    +0.000 A 
ATOM     19  C   UNL     1       1.652   6.680  21.043  0.00  0.00    +0.000 A 
ATOM     20  C   UNL     1       2.310   7.245  19.950  0.00  0.00    +0.000 A 
ATOM     21  C   UNL     1       2.553   6.497  18.780  0.00  0.00    +0.000 A 
BRANCH  21  22
ATOM     22  C   UNL     1       3.208   7.214  17.628  0.00  0.00    +0.000 C 
ATOM     23  F   UNL     1       3.527   6.414  16.572  0.00  0.00    +0.000 F 
ATOM     24  F   UNL     1       2.439   8.219  17.127  0.00  0.00    +0.000 F 
ATOM     25  F   UNL     1       4.384   7.801  17.996  0.00  0.00    +0.000 F 
ENDBRANCH  21  22
ENDBRANCH  14  16
ENDBRANCH  11  14
ENDBRANCH   3  11
BRANCH   1  27
ATOM     26  O   UNL     1       6.994   3.816  12.574  0.00  0.00    +0.000 OA
ATOM     27  C   UNL     1       5.963   3.878  13.223  0.00  0.00    +0.000 C 
BRANCH  27  28
ATOM     28  O   UNL     1       4.746   3.630  12.694  0.00  0.00    +0.000 OA
ATOM     29  H   UNL     1       4.264   4.455  12.461  0.00  0.00    +0.000 HD
ENDBRANCH  27  28
ENDBRANCH   1  27
BRANCH  10  30
ATOM     30  O   UNL     1       7.900   5.511  14.502  0.00  0.00    +0.000 OA
ATOM     31  H   UNL     1       7.666   6.443  14.329  0.00  0.00    +0.000 HD
ENDBRANCH  10  30
TORSDOF 7
ENDMDL
MODEL 8
REMARK VINA RESULT:      -7.2      5.086      7.623
REMARK  Name = 
REMARK  7 active torsions:
REMARK  status: ('A' for Active; 'I' for Inactive)
REMARK    1  A    between atoms: C_2  and  O_3
REMARK    2  A    between atoms: C_2  and  C_4
REMARK    3  A    between atoms: C_6  and  S_7
REMARK    4  A    between atoms: S_7  and  N_10
REMARK    5  A    between atoms: N_10  and  C_11
REMARK    6  A    between atoms: C_16  and  C_17
REMARK    7  A    between atoms: C_27  and  O_28
REMARK                            x       y       z     vdW  Elec       q    Type
REMARK                         _______ _______ _______ _____ _____    ______ ____
ROOT
ATOM      1  C   UNL     1      -0.796  10.357  18.254  0.00  0.00    +0.000 A 
ATOM      2  C   UNL     1       0.247   9.487  17.953  0.00  0.00    +0.000 A 
ATOM      3  C   UNL     1       1.032   8.926  18.976  0.00  0.00    +0.000 A 
ATOM      4  C   UNL     1       0.772   9.224  20.352  0.00  0.00    +0.000 A 
ATOM      5  C   UNL     1       1.482   8.691  21.461  0.00  0.00    +0.000 A 
ATOM      6  C   UNL     1       1.161   8.998  22.786  0.00  0.00    +0.000 A 
ATOM      7  C   UNL     1       0.131   9.874  23.059  0.00  0.00    +0.000 A 
ATOM      8  C   UNL     1      -0.587  10.431  22.004  0.00  0.00    +0.000 A 
ATOM      9  C   UNL     1      -0.294  10.127  20.650  0.00  0.00    +0.000 A 
ATOM     10  C   UNL     1      -1.055  10.679  19.589  0.00  0.00    +0.000 A 
ENDROOT
BRANCH   3  11
ATOM     11  S   UNL     1       2.261   7.737  18.427  0.00  0.00    +0.000 S 
ATOM     12  O   UNL     1       1.624   6.737  17.599  0.00  0.00    +0.000 OA
ATOM     13  O   UNL     1       3.405   8.469  17.919  0.00  0.00    +0.000 OA
BRANCH  11  14
ATOM     14  N   UNL     1       2.713   6.940  19.865  0.00  0.00    +0.000 N 
ATOM     15  H   UNL     1       2.346   7.481  20.654  0.00  0.00    +0.000 HD
BRANCH  14  16
ATOM     16  C   UNL     1       2.499   5.523  19.911  0.00  0.00    +0.000 A 
ATOM     17  C   UNL     1       1.307   5.078  20.492  0.00  0.00    +0.000 A 
ATOM     18  C   UNL     1       1.058   3.713  20.656  0.00  0.00    +0.000 A 
ATOM     19  C   UNL     1       1.991   2.780  20.219  0.00  0.00    +0.000 A 
ATOM     20  C   UNL     1       3.178   3.214  19.631  0.00  0.00    +0.000 A 
ATOM     21  C   UNL     1       3.459   4.589  19.485  0.00  0.00    +0.000 A 
BRANCH  21  22
ATOM     22  C   UNL     1       4.797   4.960  18.901  0.00  0.00    +0.000 C 
ATOM     23  F   UNL     1       5.545   5.788  19.684  0.00  0.00    +0.000 F 
ATOM     24  F   UNL     1       5.577   3.876  18.638  0.00  0.00    +0.000 F 
ATOM     25  F   UNL     1       4.669   5.616  17.712  0.00  0.00    +0.000 F 
ENDBRANCH  21  22
ENDBRANCH  14  16
ENDBRANCH  11  14
ENDBRANCH   3  11
BRANCH   1  27
ATOM     26  O   UNL     1      -2.190  10.224  16.336  0.00  0.00    +0.000 OA
ATOM     27  C   UNL     1      -1.570  10.925  17.119  0.00  0.00    +0.000 C 
BRANCH  27  28
ATOM     28  O   UNL     1      -1.581  12.274  17.065  0.00  0.00    +0.000 OA
ATOM     29  H   UNL     1      -0.747  12.668  17.406  0.00  0.00    +0.000 HD
ENDBRANCH  27  28
ENDBRANCH   1  27
BRANCH  10  30
ATOM     30  O   UNL     1      -2.100  11.542  19.839  0.00  0.00    +0.000 OA
ATOM     31  H   UNL     1      -2.293  12.037  19.021  0.00  0.00    +0.000 HD
ENDBRANCH  10  30
TORSDOF 7
ENDMDL
MODEL 9
REMARK VINA RESULT:      -7.2      4.865      8.188
REMARK  Name = 
REMARK  7 active torsions:
REMARK  status: ('A' for Active; 'I' for Inactive)
REMARK    1  A    between atoms: C_2  and  O_3
REMARK    2  A    between atoms: C_2  and  C_4
REMARK    3  A    between atoms: C_6  and  S_7
REMARK    4  A    between atoms: S_7  and  N_10
REMARK    5  A    between atoms: N_10  and  C_11
REMARK    6  A    between atoms: C_16  and  C_17
REMARK    7  A    between atoms: C_27  and  O_28
REMARK                            x       y       z     vdW  Elec       q    Type
REMARK                         _______ _______ _______ _____ _____    ______ ____
ROOT
ATOM      1  C   UNL     1       0.605   9.753  21.679  0.00  0.00    +0.000 A 
ATOM      2  C   UNL     1       1.253   9.027  20.685  0.00  0.00    +0.000 A 
ATOM      3  C   UNL     1       0.847   9.128  19.341  0.00  0.00    +0.000 A 
ATOM      4  C   UNL     1      -0.233   9.986  18.962  0.00  0.00    +0.000 A 
ATOM      5  C   UNL     1      -0.704  10.184  17.636  0.00  0.00    +0.000 A 
ATOM      6  C   UNL     1      -1.746  11.061  17.323  0.00  0.00    +0.000 A 
ATOM      7  C   UNL     1      -2.383  11.758  18.328  0.00  0.00    +0.000 A 
ATOM      8  C   UNL     1      -1.965  11.589  19.645  0.00  0.00    +0.000 A 
ATOM      9  C   UNL     1      -0.900  10.718  19.991  0.00  0.00    +0.000 A 
ATOM     10  C   UNL     1      -0.467  10.581  21.334  0.00  0.00    +0.000 A 
ENDROOT
BRANCH   3  11
ATOM     11  S   UNL     1       1.860   8.217  18.171  0.00  0.00    +0.000 S 
ATOM     12  O   UNL     1       1.024   7.303  17.423  0.00  0.00    +0.000 OA
ATOM     13  O   UNL     1       2.701   9.165  17.465  0.00  0.00    +0.000 OA
BRANCH  11  14
ATOM     14  N   UNL     1       2.844   7.246  19.169  0.00  0.00    +0.000 N 
ATOM     15  H   UNL     1       2.492   7.322  20.128  0.00  0.00    +0.000 HD
BRANCH  14  16
ATOM     16  C   UNL     1       3.131   5.922  18.699  0.00  0.00    +0.000 A 
ATOM     17  C   UNL     1       3.903   5.812  17.537  0.00  0.00    +0.000 A 
ATOM     18  C   UNL     1       4.156   4.565  16.963  0.00  0.00    +0.000 A 
ATOM     19  C   UNL     1       3.656   3.412  17.559  0.00  0.00    +0.000 A 
ATOM     20  C   UNL     1       2.892   3.512  18.721  0.00  0.00    +0.000 A 
ATOM     21  C   UNL     1       2.602   4.766  19.297  0.00  0.00    +0.000 A 
BRANCH  21  22
ATOM     22  C   UNL     1       1.713   4.776  20.513  0.00  0.00    +0.000 C 
ATOM     23  F   UNL     1       2.371   4.628  21.697  0.00  0.00    +0.000 F 
ATOM     24  F   UNL     1       0.982   5.920  20.623  0.00  0.00    +0.000 F 
ATOM     25  F   UNL     1       0.801   3.761  20.485  0.00  0.00    +0.000 F 
ENDBRANCH  21  22
ENDBRANCH  14  16
ENDBRANCH  11  14
ENDBRANCH   3  11
BRANCH   1  27
ATOM     26  O   UNL     1       0.317   9.591  24.030  0.00  0.00    +0.000 OA
ATOM     27  C   UNL     1       1.078   9.581  23.078  0.00  0.00    +0.000 C 
BRANCH  27  28
ATOM     28  O   UNL     1       2.403   9.353  23.199  0.00  0.00    +0.000 OA
ATOM     29  H   UNL     1       2.625   8.872  24.027  0.00  0.00    +0.000 HD
ENDBRANCH  27  28
ENDBRANCH   1  27
BRANCH  10  30
ATOM     30  O   UNL     1      -1.075  11.282  22.352  0.00  0.00    +0.000 OA
ATOM     31  H   UNL     1      -1.529  10.646  22.936  0.00  0.00    +0.000 HD
ENDBRANCH  10  30
TORSDOF 7
ENDMDL
