MODEL 1
REMARK VINA RESULT:      -7.3      0.000      0.000
REMARK  Name = 
REMARK  3 active torsions:
REMARK  status: ('A' for Active; 'I' for Inactive)
REMARK    1  A    between atoms: C_1  and  O_2
REMARK    2  A    between atoms: O_2  and  C_3
REMARK    3  A    between atoms: N_10  and  C_11
REMARK                            x       y       z     vdW  Elec       q    Type
REMARK                         _______ _______ _______ _____ _____    ______ ____
ROOT
ATOM      1  C   UNL     1       6.136   6.204  16.638  0.00  0.00    +0.000 A 
ATOM      2  C   UNL     1       6.855   5.188  16.013  0.00  0.00    +0.000 A 
ATOM      3  C   UNL     1       6.291   3.921  15.853  0.00  0.00    +0.000 A 
ATOM      4  C   UNL     1       4.994   3.671  16.308  0.00  0.00    +0.000 A 
ATOM      5  C   UNL     1       4.278   4.666  16.978  0.00  0.00    +0.000 A 
ATOM      6  C   UNL     1       2.995   4.436  17.463  0.00  0.00    +0.000 A 
ATOM      7  C   UNL     1       2.330   5.435  18.155  0.00  0.00    +0.000 A 
ATOM      8  N   UNL     1       2.885   6.654  18.359  0.00  0.00    +0.000 N 
ATOM      9  C   UNL     1       4.135   6.901  17.886  0.00  0.00    +0.000 A 
ATOM     10  C   UNL     1       4.855   5.942  17.163  0.00  0.00    +0.000 A 
ENDROOT
BRANCH   8  11
ATOM     11  C   UNL     1       2.157   7.685  19.084  0.00  0.00    +0.000 A 
ATOM     12  C   UNL     1       1.839   7.519  20.430  0.00  0.00    +0.000 A 
ATOM     13  C   UNL     1       1.124   8.517  21.109  0.00  0.00    +0.000 A 
ATOM     14  C   UNL     1       0.726   9.674  20.433  0.00  0.00    +0.000 A 
ATOM     15  I   UNL     1      -0.354  11.138  21.431  0.00  0.00    +0.000 I 
ATOM     16  C   UNL     1       1.049   9.849  19.093  0.00  0.00    +0.000 A 
ATOM     17  C   UNL     1       1.773   8.859  18.411  0.00  0.00    +0.000 A 
ENDBRANCH   8  11
BRANCH   1  19
ATOM     18  C   UNL     1       7.685   7.773  17.573  0.00  0.00    +0.000 C 
ATOM     19  O   UNL     1       6.553   7.503  16.749  0.00  0.00    +0.000 OA
ENDBRANCH   1  19
TORSDOF 2
ENDMDL
MODEL 2
REMARK VINA RESULT:      -7.3      0.049      1.112
REMARK  Name = 
REMARK  3 active torsions:
REMARK  status: ('A' for Active; 'I' for Inactive)
REMARK    1  A    between atoms: C_1  and  O_2
REMARK    2  A    between atoms: O_2  and  C_3
REMARK    3  A    between atoms: N_10  and  C_11
REMARK                            x       y       z     vdW  Elec       q    Type
REMARK                         _______ _______ _______ _____ _____    ______ ____
ROOT
ATOM      1  C   UNL     1       6.162   6.235  16.667  0.00  0.00    +0.000 A 
ATOM      2  C   UNL     1       6.896   5.219  16.059  0.00  0.00    +0.000 A 
ATOM      3  C   UNL     1       6.338   3.950  15.893  0.00  0.00    +0.000 A 
ATOM      4  C   UNL     1       5.034   3.698  16.324  0.00  0.00    +0.000 A 
ATOM      5  C   UNL     1       4.303   4.692  16.977  0.00  0.00    +0.000 A 
ATOM      6  C   UNL     1       3.012   4.460  17.440  0.00  0.00    +0.000 A 
ATOM      7  C   UNL     1       2.331   5.460  18.116  0.00  0.00    +0.000 A 
ATOM      8  N   UNL     1       2.879   6.681  18.326  0.00  0.00    +0.000 N 
ATOM      9  C   UNL     1       4.136   6.930  17.875  0.00  0.00    +0.000 A 
ATOM     10  C   UNL     1       4.873   5.970  17.169  0.00  0.00    +0.000 A 
ENDROOT
BRANCH   8  11
ATOM     11  C   UNL     1       2.134   7.712  19.035  0.00  0.00    +0.000 A 
ATOM     12  C   UNL     1       1.745   8.882  18.389  0.00  0.00    +0.000 A 
ATOM     13  C   UNL     1       1.040   9.870  19.092  0.00  0.00    +0.000 A 
ATOM     14  C   UNL     1       0.735   9.682  20.442  0.00  0.00    +0.000 A 
ATOM     15  I   UNL     1      -0.285  11.155  21.490  0.00  0.00    +0.000 I 
ATOM     16  C   UNL     1       1.112   8.512  21.091  0.00  0.00    +0.000 A 
ATOM     17  C   UNL     1       1.809   7.515  20.390  0.00  0.00    +0.000 A 
ENDBRANCH   8  11
BRANCH   1  19
ATOM     18  C   UNL     1       7.715   7.806  17.591  0.00  0.00    +0.000 C 
ATOM     19  O   UNL     1       6.573   7.536  16.781  0.00  0.00    +0.000 OA
ENDBRANCH   1  19
TORSDOF 2
ENDMDL
MODEL 3
REMARK VINA RESULT:      -7.1      2.486      3.699
REMARK  Name = 
REMARK  3 active torsions:
REMARK  status: ('A' for Active; 'I' for Inactive)
REMARK    1  A    between atoms: C_1  and  O_2
REMARK    2  A    between atoms: O_2  and  C_3
REMARK    3  A    between atoms: N_10  and  C_11
REMARK                            x       y       z     vdW  Elec       q    Type
REMARK                         _______ _______ _______ _____ _____    ______ ____
ROOT
ATOM      1  C   UNL     1       2.929   4.309  20.009  0.00  0.00    +0.000 A 
ATOM      2  C   UNL     1       3.603   3.343  19.264  0.00  0.00    +0.000 A 
ATOM      3  C   UNL     1       4.161   3.670  18.028  0.00  0.00    +0.000 A 
ATOM      4  C   UNL     1       4.057   4.974  17.537  0.00  0.00    +0.000 A 
ATOM      5  C   UNL     1       3.345   5.941  18.250  0.00  0.00    +0.000 A 
ATOM      6  C   UNL     1       3.205   7.240  17.773  0.00  0.00    +0.000 A 
ATOM      7  C   UNL     1       2.461   8.163  18.490  0.00  0.00    +0.000 A 
ATOM      8  N   UNL     1       1.873   7.844  19.669  0.00  0.00    +0.000 N 
ATOM      9  C   UNL     1       2.005   6.583  20.156  0.00  0.00    +0.000 A 
ATOM     10  C   UNL     1       2.758   5.608  19.491  0.00  0.00    +0.000 A 
ENDROOT
BRANCH   8  11
ATOM     11  C   UNL     1       1.102   8.839  20.401  0.00  0.00    +0.000 A 
ATOM     12  C   UNL     1       0.935   8.738  21.779  0.00  0.00    +0.000 A 
ATOM     13  C   UNL     1       0.177   9.699  22.466  0.00  0.00    +0.000 A 
ATOM     14  C   UNL     1      -0.415  10.752  21.764  0.00  0.00    +0.000 A 
ATOM     15  I   UNL     1      -1.559  12.158  22.776  0.00  0.00    +0.000 I 
ATOM     16  C   UNL     1      -0.245  10.863  20.389  0.00  0.00    +0.000 A 
ATOM     17  C   UNL     1       0.522   9.911  19.699  0.00  0.00    +0.000 A 
ENDBRANCH   8  11
BRANCH   1  19
ATOM     18  C   UNL     1       1.760   2.900  21.553  0.00  0.00    +0.000 C 
ATOM     19  O   UNL     1       2.441   4.121  21.275  0.00  0.00    +0.000 OA
ENDBRANCH   1  19
TORSDOF 2
ENDMDL
MODEL 4
REMARK VINA RESULT:      -7.1      2.427      3.688
REMARK  Name = 
REMARK  3 active torsions:
REMARK  status: ('A' for Active; 'I' for Inactive)
REMARK    1  A    between atoms: C_1  and  O_2
REMARK    2  A    between atoms: O_2  and  C_3
REMARK    3  A    between atoms: N_10  and  C_11
REMARK                            x       y       z     vdW  Elec       q    Type
REMARK                         _______ _______ _______ _____ _____    ______ ____
ROOT
ATOM      1  C   UNL     1       2.033   3.158  19.288  0.00  0.00    +0.000 A 
ATOM      2  C   UNL     1       2.529   1.953  18.796  0.00  0.00    +0.000 A 
ATOM      3  C   UNL     1       3.554   1.947  17.850  0.00  0.00    +0.000 A 
ATOM      4  C   UNL     1       4.099   3.153  17.402  0.00  0.00    +0.000 A 
ATOM      5  C   UNL     1       3.582   4.370  17.851  0.00  0.00    +0.000 A 
ATOM      6  C   UNL     1       4.089   5.585  17.403  0.00  0.00    +0.000 A 
ATOM      7  C   UNL     1       3.526   6.772  17.843  0.00  0.00    +0.000 A 
ATOM      8  N   UNL     1       2.497   6.791  18.725  0.00  0.00    +0.000 N 
ATOM      9  C   UNL     1       1.994   5.615  19.181  0.00  0.00    +0.000 A 
ATOM     10  C   UNL     1       2.527   4.380  18.791  0.00  0.00    +0.000 A 
ENDROOT
BRANCH   8  11
ATOM     11  C   UNL     1       1.932   8.056  19.173  0.00  0.00    +0.000 A 
ATOM     12  C   UNL     1       1.542   8.234  20.497  0.00  0.00    +0.000 A 
ATOM     13  C   UNL     1       0.986   9.456  20.906  0.00  0.00    +0.000 A 
ATOM     14  C   UNL     1       0.819  10.490  19.983  0.00  0.00    +0.000 A 
ATOM     15  I   UNL     1      -0.027  12.288  20.583  0.00  0.00    +0.000 I 
ATOM     16  C   UNL     1       1.216  10.323  18.662  0.00  0.00    +0.000 A 
ATOM     17  C   UNL     1       1.782   9.107  18.248  0.00  0.00    +0.000 A 
ENDBRANCH   8  11
BRANCH   1  19
ATOM     18  C   UNL     1       1.472   2.807  21.589  0.00  0.00    +0.000 C 
ATOM     19  O   UNL     1       1.108   3.273  20.292  0.00  0.00    +0.000 OA
ENDBRANCH   1  19
TORSDOF 2
ENDMDL
MODEL 5
REMARK VINA RESULT:      -7.1      2.441      3.798
REMARK  Name = 
REMARK  3 active torsions:
REMARK  status: ('A' for Active; 'I' for Inactive)
REMARK    1  A    between atoms: C_1  and  O_2
REMARK    2  A    between atoms: O_2  and  C_3
REMARK    3  A    between atoms: N_10  and  C_11
REMARK                            x       y       z     vdW  Elec       q    Type
REMARK                         _______ _______ _______ _____ _____    ______ ____
ROOT
ATOM      1  C   UNL     1       3.025   4.369  19.982  0.00  0.00    +0.000 A 
ATOM      2  C   UNL     1       3.725   3.406  19.259  0.00  0.00    +0.000 A 
ATOM      3  C   UNL     1       4.289   3.725  18.023  0.00  0.00    +0.000 A 
ATOM      4  C   UNL     1       4.165   5.020  17.511  0.00  0.00    +0.000 A 
ATOM      5  C   UNL     1       3.428   5.983  18.203  0.00  0.00    +0.000 A 
ATOM      6  C   UNL     1       3.268   7.272  17.705  0.00  0.00    +0.000 A 
ATOM      7  C   UNL     1       2.498   8.190  18.400  0.00  0.00    +0.000 A 
ATOM      8  N   UNL     1       1.905   7.878  19.578  0.00  0.00    +0.000 N 
ATOM      9  C   UNL     1       2.056   6.627  20.086  0.00  0.00    +0.000 A 
ATOM     10  C   UNL     1       2.835   5.657  19.443  0.00  0.00    +0.000 A 
ENDROOT
BRANCH   8  11
ATOM     11  C   UNL     1       1.108   8.868  20.288  0.00  0.00    +0.000 A 
ATOM     12  C   UNL     1       0.550   9.951  19.613  0.00  0.00    +0.000 A 
ATOM     13  C   UNL     1      -0.204  10.903  20.316  0.00  0.00    +0.000 A 
ATOM     14  C   UNL     1      -0.389  10.767  21.694  0.00  0.00    +0.000 A 
ATOM     15  I   UNL     1      -1.482  12.189  22.738  0.00  0.00    +0.000 I 
ATOM     16  C   UNL     1       0.157   9.683  22.372  0.00  0.00    +0.000 A 
ATOM     17  C   UNL     1       0.903   8.722  21.672  0.00  0.00    +0.000 A 
ENDBRANCH   8  11
BRANCH   1  19
ATOM     18  C   UNL     1       1.917   2.940  21.552  0.00  0.00    +0.000 C 
ATOM     19  O   UNL     1       2.529   4.191  21.246  0.00  0.00    +0.000 OA
ENDBRANCH   1  19
TORSDOF 2
ENDMDL
MODEL 6
REMARK VINA RESULT:      -7.1      2.444      3.857
REMARK  Name = 
REMARK  3 active torsions:
REMARK  status: ('A' for Active; 'I' for Inactive)
REMARK    1  A    between atoms: C_1  and  O_2
REMARK    2  A    between atoms: O_2  and  C_3
REMARK    3  A    between atoms: N_10  and  C_11
REMARK                            x       y       z     vdW  Elec       q    Type
REMARK                         _______ _______ _______ _____ _____    ______ ____
ROOT
ATOM      1  C   UNL     1       2.083   3.173  19.391  0.00  0.00    +0.000 A 
ATOM      2  C   UNL     1       2.592   1.984  18.872  0.00  0.00    +0.000 A 
ATOM      3  C   UNL     1       3.585   2.011  17.892  0.00  0.00    +0.000 A 
ATOM      4  C   UNL     1       4.084   3.234  17.436  0.00  0.00    +0.000 A 
ATOM      5  C   UNL     1       3.552   4.434  17.913  0.00  0.00    +0.000 A 
ATOM      6  C   UNL     1       4.013   5.665  17.459  0.00  0.00    +0.000 A 
ATOM      7  C   UNL     1       3.436   6.834  17.927  0.00  0.00    +0.000 A 
ATOM      8  N   UNL     1       2.437   6.820  18.844  0.00  0.00    +0.000 N 
ATOM      9  C   UNL     1       1.978   5.628  19.306  0.00  0.00    +0.000 A 
ATOM     10  C   UNL     1       2.529   4.411  18.887  0.00  0.00    +0.000 A 
ENDROOT
BRANCH   8  11
ATOM     11  C   UNL     1       1.856   8.067  19.320  0.00  0.00    +0.000 A 
ATOM     12  C   UNL     1       1.656   9.138  18.453  0.00  0.00    +0.000 A 
ATOM     13  C   UNL     1       1.107  10.336  18.934  0.00  0.00    +0.000 A 
ATOM     14  C   UNL     1       0.769  10.457  20.284  0.00  0.00    +0.000 A 
ATOM     15  I   UNL     1      -0.018  12.239  21.000  0.00  0.00    +0.000 I 
ATOM     16  C   UNL     1       0.957   9.388  21.153  0.00  0.00    +0.000 A 
ATOM     17  C   UNL     1       1.496   8.183  20.676  0.00  0.00    +0.000 A 
ENDBRANCH   8  11
BRANCH   1  19
ATOM     18  C   UNL     1       1.527   2.610  21.651  0.00  0.00    +0.000 C 
ATOM     19  O   UNL     1       1.190   3.256  20.425  0.00  0.00    +0.000 OA
ENDBRANCH   1  19
TORSDOF 2
ENDMDL
MODEL 7
REMARK VINA RESULT:      -6.7      2.559      3.983
REMARK  Name = 
REMARK  3 active torsions:
REMARK  status: ('A' for Active; 'I' for Inactive)
REMARK    1  A    between atoms: C_1  and  O_2
REMARK    2  A    between atoms: O_2  and  C_3
REMARK    3  A    between atoms: N_10  and  C_11
REMARK                            x       y       z     vdW  Elec       q    Type
REMARK                         _______ _______ _______ _____ _____    ______ ____
ROOT
ATOM      1  C   UNL     1       2.861   5.302  20.007  0.00  0.00    +0.000 A 
ATOM      2  C   UNL     1       3.618   4.445  19.212  0.00  0.00    +0.000 A 
ATOM      3  C   UNL     1       4.093   4.870  17.971  0.00  0.00    +0.000 A 
ATOM      4  C   UNL     1       3.822   6.167  17.526  0.00  0.00    +0.000 A 
ATOM      5  C   UNL     1       3.026   7.022  18.291  0.00  0.00    +0.000 A 
ATOM      6  C   UNL     1       2.720   8.309  17.860  0.00  0.00    +0.000 A 
ATOM      7  C   UNL     1       1.898   9.117  18.628  0.00  0.00    +0.000 A 
ATOM      8  N   UNL     1       1.390   8.698  19.813  0.00  0.00    +0.000 N 
ATOM      9  C   UNL     1       1.683   7.448  20.255  0.00  0.00    +0.000 A 
ATOM     10  C   UNL     1       2.523   6.587  19.536  0.00  0.00    +0.000 A 
ENDROOT
BRANCH   8  11
ATOM     11  C   UNL     1       0.533   9.574  20.599  0.00  0.00    +0.000 A 
ATOM     12  C   UNL     1       0.396   9.392  21.973  0.00  0.00    +0.000 A 
ATOM     13  C   UNL     1      -0.445  10.237  22.712  0.00  0.00    +0.000 A 
ATOM     14  C   UNL     1      -1.150  11.256  22.067  0.00  0.00    +0.000 A 
ATOM     15  I   UNL     1      -2.415  12.490  23.156  0.00  0.00    +0.000 I 
ATOM     16  C   UNL     1      -1.010  11.450  20.698  0.00  0.00    +0.000 A 
ATOM     17  C   UNL     1      -0.162  10.614  19.955  0.00  0.00    +0.000 A 
ENDBRANCH   8  11
BRANCH   1  19
ATOM     18  C   UNL     1       2.174   3.661  21.610  0.00  0.00    +0.000 C 
ATOM     19  O   UNL     1       2.440   5.022  21.280  0.00  0.00    +0.000 OA
ENDBRANCH   1  19
TORSDOF 2
ENDMDL
MODEL 8
REMARK VINA RESULT:      -6.7      3.305      6.734
REMARK  Name = 
REMARK  3 active torsions:
REMARK  status: ('A' for Active; 'I' for Inactive)
REMARK    1  A    between atoms: C_1  and  O_2
REMARK    2  A    between atoms: O_2  and  C_3
REMARK    3  A    between atoms: N_10  and  C_11
REMARK                            x       y       z     vdW  Elec       q    Type
REMARK                         _______ _______ _______ _____ _____    ______ ____
ROOT
ATOM      1  C   UNL     1       0.987  10.191  19.516  0.00  0.00    +0.000 A 
ATOM      2  C   UNL     1       0.113  10.749  20.447  0.00  0.00    +0.000 A 
ATOM      3  C   UNL     1      -0.290  10.015  21.563  0.00  0.00    +0.000 A 
ATOM      4  C   UNL     1       0.195   8.720  21.761  0.00  0.00    +0.000 A 
ATOM      5  C   UNL     1       1.035   8.130  20.814  0.00  0.00    +0.000 A 
ATOM      6  C   UNL     1       1.512   6.833  20.973  0.00  0.00    +0.000 A 
ATOM      7  C   UNL     1       2.314   6.268  19.995  0.00  0.00    +0.000 A 
ATOM      8  N   UNL     1       2.673   6.953  18.882  0.00  0.00    +0.000 N 
ATOM      9  C   UNL     1       2.224   8.223  18.712  0.00  0.00    +0.000 A 
ATOM     10  C   UNL     1       1.425   8.860  19.670  0.00  0.00    +0.000 A 
ENDROOT
BRANCH   8  11
ATOM     11  C   UNL     1       3.522   6.332  17.876  0.00  0.00    +0.000 A 
ATOM     12  C   UNL     1       4.352   7.104  17.068  0.00  0.00    +0.000 A 
ATOM     13  C   UNL     1       5.153   6.489  16.094  0.00  0.00    +0.000 A 
ATOM     14  C   UNL     1       5.112   5.102  15.931  0.00  0.00    +0.000 A 
ATOM     15  I   UNL     1       6.277   4.195  14.472  0.00  0.00    +0.000 I 
ATOM     16  C   UNL     1       4.292   4.324  16.740  0.00  0.00    +0.000 A 
ATOM     17  C   UNL     1       3.497   4.933  17.723  0.00  0.00    +0.000 A 
ENDBRANCH   8  11
BRANCH   1  19
ATOM     18  C   UNL     1       1.879  12.228  18.630  0.00  0.00    +0.000 C 
ATOM     19  O   UNL     1       1.525  10.859  18.450  0.00  0.00    +0.000 OA
ENDBRANCH   1  19
TORSDOF 2
ENDMDL
MODEL 9
REMARK VINA RESULT:      -6.7      3.297      6.677
REMARK  Name = 
REMARK  3 active torsions:
REMARK  status: ('A' for Active; 'I' for Inactive)
REMARK    1  A    between atoms: C_1  and  O_2
REMARK    2  A    between atoms: O_2  and  C_3
REMARK    3  A    between atoms: N_10  and  C_11
REMARK                            x       y       z     vdW  Elec       q    Type
REMARK                         _______ _______ _______ _____ _____    ______ ____
ROOT
ATOM      1  C   UNL     1       0.913  10.249  19.472  0.00  0.00    +0.000 A 
ATOM      2  C   UNL     1       0.046  10.832  20.394  0.00  0.00    +0.000 A 
ATOM      3  C   UNL     1      -0.349  10.128  21.532  0.00  0.00    +0.000 A 
ATOM      4  C   UNL     1       0.134   8.837  21.759  0.00  0.00    +0.000 A 
ATOM      5  C   UNL     1       0.966   8.222  20.821  0.00  0.00    +0.000 A 
ATOM      6  C   UNL     1       1.442   6.929  21.010  0.00  0.00    +0.000 A 
ATOM      7  C   UNL     1       2.235   6.337  20.040  0.00  0.00    +0.000 A 
ATOM      8  N   UNL     1       2.588   6.992  18.908  0.00  0.00    +0.000 N 
ATOM      9  C   UNL     1       2.140   8.259  18.709  0.00  0.00    +0.000 A 
ATOM     10  C   UNL     1       1.349   8.922  19.656  0.00  0.00    +0.000 A 
ENDROOT
BRANCH   8  11
ATOM     11  C   UNL     1       3.428   6.344  17.911  0.00  0.00    +0.000 A 
ATOM     12  C   UNL     1       3.407   4.961  17.752  0.00  0.00    +0.000 A 
ATOM     13  C   UNL     1       4.234   4.353  16.795  0.00  0.00    +0.000 A 
ATOM     14  C   UNL     1       5.083   5.135  16.009  0.00  0.00    +0.000 A 
ATOM     15  I   UNL     1       6.326   4.233  14.612  0.00  0.00    +0.000 I 
ATOM     16  C   UNL     1       5.102   6.517  16.156  0.00  0.00    +0.000 A 
ATOM     17  C   UNL     1       4.269   7.132  17.104  0.00  0.00    +0.000 A 
ENDBRANCH   8  11
BRANCH   1  19
ATOM     18  C   UNL     1       1.989  12.192  18.578  0.00  0.00    +0.000 C 
ATOM     19  O   UNL     1       1.444  10.889  18.385  0.00  0.00    +0.000 OA
ENDBRANCH   1  19
TORSDOF 2
ENDMDL
