MODEL 1
REMARK VINA RESULT:      -8.8      0.000      0.000
REMARK  Name = 
REMARK  5 active torsions:
REMARK  status: ('A' for Active; 'I' for Inactive)
REMARK    1  A    between atoms: C_4  and  C_5
REMARK    2  A    between atoms: C_10  and  O_11
REMARK    3  A    between atoms: O_11  and  C_12
REMARK    4  A    between atoms: C_12  and  C_13
REMARK    5  A    between atoms: C_19  and  C_20
REMARK                            x       y       z     vdW  Elec       q    Type
REMARK                         _______ _______ _______ _____ _____    ______ ____
ROOT
ATOM      1  F   UNL     1       1.134   8.035  21.531  0.00  0.00    +0.000 F 
ATOM      2  C   UNL     1       1.565   8.193  20.269  0.00  0.00    +0.000 A 
ATOM      3  C   UNL     1       2.334   7.159  19.730  0.00  0.00    +0.000 A 
ATOM      4  C   UNL     1       2.745   7.160  18.387  0.00  0.00    +0.000 A 
ATOM      5  C   UNL     1       2.416   8.306  17.644  0.00  0.00    +0.000 A 
ATOM      6  C   UNL     1       1.673   9.365  18.204  0.00  0.00    +0.000 A 
ATOM      7  C   UNL     1       1.209   9.325  19.530  0.00  0.00    +0.000 A 
ENDROOT
BRANCH   7   8
ATOM      8  C   UNL     1       0.369  10.405  20.092  0.00  0.00    +0.000 A 
ATOM      9  C   UNL     1       0.722  11.120  21.248  0.00  0.00    +0.000 A 
ATOM     10  N   UNL     1      -0.013  12.108  21.827  0.00  0.00    +0.000 NA
ATOM     11  C   UNL     1      -1.148  12.314  21.134  0.00  0.00    +0.000 A 
ATOM     12  N   UNL     1      -2.113  13.230  21.443  0.00  0.00    +0.000 N 
ATOM     13  C   UNL     1      -3.123  13.166  20.512  0.00  0.00    +0.000 A 
ATOM     14  C   UNL     1      -2.794  12.185  19.595  0.00  0.00    +0.000 A 
ATOM     15  C   UNL     1      -1.544  11.644  19.982  0.00  0.00    +0.000 A 
ATOM     16  N   UNL     1      -0.786  10.667  19.419  0.00  0.00    +0.000 NA
ATOM     17  H   UNL     1      -2.066  13.850  22.239  0.00  0.00    +0.000 HD
ENDBRANCH   7   8
BRANCH   4  18
ATOM     18  C   UNL     1       3.397   5.957  17.799  0.00  0.00    +0.000 A 
ATOM     19  C   UNL     1       4.741   6.043  17.372  0.00  0.00    +0.000 A 
ATOM     20  C   UNL     1       5.413   4.946  16.840  0.00  0.00    +0.000 A 
ATOM     21  C   UNL     1       4.732   3.755  16.748  0.00  0.00    +0.000 A 
ATOM     22  N   UNL     1       3.456   3.598  17.151  0.00  0.00    +0.000 NA
ATOM     23  C   UNL     1       2.820   4.684  17.662  0.00  0.00    +0.000 A 
BRANCH  23  24
ATOM     24  O   UNL     1       1.511   4.490  18.055  0.00  0.00    +0.000 OA
BRANCH  24  25
ATOM     25  C   UNL     1       1.344   3.342  18.904  0.00  0.00    +0.000 C 
BRANCH  25  26
ATOM     26  C   UNL     1       1.330   3.658  20.401  0.00  0.00    +0.000 C 
ATOM     27  F   UNL     1       2.546   4.007  20.880  0.00  0.00    +0.000 F 
ATOM     28  F   UNL     1       0.504   4.708  20.647  0.00  0.00    +0.000 F 
ATOM     29  F   UNL     1       0.874   2.621  21.138  0.00  0.00    +0.000 F 
ENDBRANCH  25  26
ENDBRANCH  24  25
ENDBRANCH  23  24
ENDBRANCH   4  18
TORSDOF 5
ENDMDL
MODEL 2
REMARK VINA RESULT:      -8.7      3.158      8.064
REMARK  Name = 
REMARK  5 active torsions:
REMARK  status: ('A' for Active; 'I' for Inactive)
REMARK    1  A    between atoms: C_4  and  C_5
REMARK    2  A    between atoms: C_10  and  O_11
REMARK    3  A    between atoms: O_11  and  C_12
REMARK    4  A    between atoms: C_12  and  C_13
REMARK    5  A    between atoms: C_19  and  C_20
REMARK                            x       y       z     vdW  Elec       q    Type
REMARK                         _______ _______ _______ _____ _____    ______ ____
ROOT
ATOM      1  F   UNL     1       1.611   7.149  21.117  0.00  0.00    +0.000 F 
ATOM      2  C   UNL     1       1.711   7.832  19.966  0.00  0.00    +0.000 A 
ATOM      3  C   UNL     1       1.142   9.107  19.938  0.00  0.00    +0.000 A 
ATOM      4  C   UNL     1       1.280   9.959  18.829  0.00  0.00    +0.000 A 
ATOM      5  C   UNL     1       1.945   9.418  17.717  0.00  0.00    +0.000 A 
ATOM      6  C   UNL     1       2.484   8.116  17.736  0.00  0.00    +0.000 A 
ATOM      7  C   UNL     1       2.398   7.295  18.873  0.00  0.00    +0.000 A 
ENDROOT
BRANCH   7   8
ATOM      8  C   UNL     1       3.027   5.956  18.915  0.00  0.00    +0.000 A 
ATOM      9  C   UNL     1       4.351   5.750  19.335  0.00  0.00    +0.000 A 
ATOM     10  N   UNL     1       4.993   4.551  19.377  0.00  0.00    +0.000 NA
ATOM     11  C   UNL     1       4.178   3.568  18.952  0.00  0.00    +0.000 A 
ATOM     12  N   UNL     1       4.507   2.245  18.864  0.00  0.00    +0.000 N 
ATOM     13  C   UNL     1       3.427   1.533  18.398  0.00  0.00    +0.000 A 
ATOM     14  C   UNL     1       2.392   2.424  18.183  0.00  0.00    +0.000 A 
ATOM     15  C   UNL     1       2.861   3.713  18.534  0.00  0.00    +0.000 A 
ATOM     16  N   UNL     1       2.240   4.921  18.510  0.00  0.00    +0.000 NA
ATOM     17  H   UNL     1       5.413   1.874  19.112  0.00  0.00    +0.000 HD
ENDBRANCH   7   8
BRANCH   4  18
ATOM     18  C   UNL     1       0.826  11.376  18.908  0.00  0.00    +0.000 A 
ATOM     19  C   UNL     1       1.780  12.410  18.775  0.00  0.00    +0.000 A 
ATOM     20  C   UNL     1       1.415  13.753  18.811  0.00  0.00    +0.000 A 
ATOM     21  C   UNL     1       0.083  14.055  18.971  0.00  0.00    +0.000 A 
ATOM     22  N   UNL     1      -0.880  13.120  19.088  0.00  0.00    +0.000 NA
ATOM     23  C   UNL     1      -0.498  11.817  19.054  0.00  0.00    +0.000 A 
BRANCH  23  24
ATOM     24  O   UNL     1      -1.509  10.886  19.187  0.00  0.00    +0.000 OA
BRANCH  24  25
ATOM     25  C   UNL     1      -2.570  11.070  18.234  0.00  0.00    +0.000 C 
BRANCH  25  26
ATOM     26  C   UNL     1      -2.390  10.292  16.929  0.00  0.00    +0.000 C 
ATOM     27  F   UNL     1      -1.328   9.455  16.953  0.00  0.00    +0.000 F 
ATOM     28  F   UNL     1      -3.483   9.521  16.693  0.00  0.00    +0.000 F 
ATOM     29  F   UNL     1      -2.252  11.110  15.862  0.00  0.00    +0.000 F 
ENDBRANCH  25  26
ENDBRANCH  24  25
ENDBRANCH  23  24
ENDBRANCH   4  18
TORSDOF 5
ENDMDL
MODEL 3
REMARK VINA RESULT:      -8.6      3.021      3.906
REMARK  Name = 
REMARK  5 active torsions:
REMARK  status: ('A' for Active; 'I' for Inactive)
REMARK    1  A    between atoms: C_4  and  C_5
REMARK    2  A    between atoms: C_10  and  O_11
REMARK    3  A    between atoms: O_11  and  C_12
REMARK    4  A    between atoms: C_12  and  C_13
REMARK    5  A    between atoms: C_19  and  C_20
REMARK                            x       y       z     vdW  Elec       q    Type
REMARK                         _______ _______ _______ _____ _____    ______ ____
ROOT
ATOM      1  F   UNL     1       0.818   8.831  21.108  0.00  0.00    +0.000 F 
ATOM      2  C   UNL     1       1.490   8.431  20.017  0.00  0.00    +0.000 A 
ATOM      3  C   UNL     1       2.107   7.180  20.081  0.00  0.00    +0.000 A 
ATOM      4  C   UNL     1       2.743   6.607  18.967  0.00  0.00    +0.000 A 
ATOM      5  C   UNL     1       2.800   7.405  17.813  0.00  0.00    +0.000 A 
ATOM      6  C   UNL     1       2.209   8.684  17.766  0.00  0.00    +0.000 A 
ATOM      7  C   UNL     1       1.518   9.222  18.865  0.00  0.00    +0.000 A 
ENDROOT
BRANCH   7   8
ATOM      8  C   UNL     1       0.838  10.534  18.789  0.00  0.00    +0.000 A 
ATOM      9  C   UNL     1      -0.532  10.665  18.509  0.00  0.00    +0.000 A 
ATOM     10  N   UNL     1      -1.212  11.840  18.406  0.00  0.00    +0.000 NA
ATOM     11  C   UNL     1      -0.383  12.880  18.608  0.00  0.00    +0.000 A 
ATOM     12  N   UNL     1      -0.739  14.199  18.571  0.00  0.00    +0.000 N 
ATOM     13  C   UNL     1       0.363  14.980  18.830  0.00  0.00    +0.000 A 
ATOM     14  C   UNL     1       1.441  14.139  19.032  0.00  0.00    +0.000 A 
ATOM     15  C   UNL     1       0.975  12.809  18.895  0.00  0.00    +0.000 A 
ATOM     16  N   UNL     1       1.628  11.622  19.001  0.00  0.00    +0.000 NA
ATOM     17  H   UNL     1      -1.676  14.523  18.381  0.00  0.00    +0.000 HD
ENDBRANCH   7   8
BRANCH   4  18
ATOM     18  C   UNL     1       3.221   5.197  19.016  0.00  0.00    +0.000 A 
ATOM     19  C   UNL     1       2.322   4.156  18.691  0.00  0.00    +0.000 A 
ATOM     20  C   UNL     1       2.716   2.820  18.692  0.00  0.00    +0.000 A 
ATOM     21  C   UNL     1       4.023   2.534  19.009  0.00  0.00    +0.000 A 
ATOM     22  N   UNL     1       4.936   3.477  19.312  0.00  0.00    +0.000 NA
ATOM     23  C   UNL     1       4.527   4.772  19.309  0.00  0.00    +0.000 A 
BRANCH  23  24
ATOM     24  O   UNL     1       5.485   5.712  19.634  0.00  0.00    +0.000 OA
BRANCH  24  25
ATOM     25  C   UNL     1       6.767   5.432  19.045  0.00  0.00    +0.000 C 
BRANCH  25  26
ATOM     26  C   UNL     1       7.176   6.400  17.933  0.00  0.00    +0.000 C 
ATOM     27  F   UNL     1       7.562   5.771  16.799  0.00  0.00    +0.000 F 
ATOM     28  F   UNL     1       6.126   7.191  17.595  0.00  0.00    +0.000 F 
ATOM     29  F   UNL     1       8.178   7.222  18.315  0.00  0.00    +0.000 F 
ENDBRANCH  25  26
ENDBRANCH  24  25
ENDBRANCH  23  24
ENDBRANCH   4  18
TORSDOF 5
ENDMDL
MODEL 4
REMARK VINA RESULT:      -8.6      1.364      1.873
REMARK  Name = 
REMARK  5 active torsions:
REMARK  status: ('A' for Active; 'I' for Inactive)
REMARK    1  A    between atoms: C_4  and  C_5
REMARK    2  A    between atoms: C_10  and  O_11
REMARK    3  A    between atoms: O_11  and  C_12
REMARK    4  A    between atoms: C_12  and  C_13
REMARK    5  A    between atoms: C_19  and  C_20
REMARK                            x       y       z     vdW  Elec       q    Type
REMARK                         _______ _______ _______ _____ _____    ______ ____
ROOT
ATOM      1  F   UNL     1       1.214  10.355  17.758  0.00  0.00    +0.000 F 
ATOM      2  C   UNL     1       1.473   9.287  18.528  0.00  0.00    +0.000 A 
ATOM      3  C   UNL     1       2.025   8.171  17.893  0.00  0.00    +0.000 A 
ATOM      4  C   UNL     1       2.442   7.038  18.611  0.00  0.00    +0.000 A 
ATOM      5  C   UNL     1       2.188   7.056  19.992  0.00  0.00    +0.000 A 
ATOM      6  C   UNL     1       1.595   8.170  20.622  0.00  0.00    +0.000 A 
ATOM      7  C   UNL     1       1.242   9.326  19.906  0.00  0.00    +0.000 A 
ENDROOT
BRANCH   7   8
ATOM      8  C   UNL     1       0.686  10.519  20.581  0.00  0.00    +0.000 A 
ATOM      9  C   UNL     1       1.177  11.816  20.360  0.00  0.00    +0.000 A 
ATOM     10  N   UNL     1       0.725  12.950  20.962  0.00  0.00    +0.000 NA
ATOM     11  C   UNL     1      -0.272  12.660  21.818  0.00  0.00    +0.000 A 
ATOM     12  N   UNL     1      -0.946  13.564  22.589  0.00  0.00    +0.000 N 
ATOM     13  C   UNL     1      -1.901  12.912  23.333  0.00  0.00    +0.000 A 
ATOM     14  C   UNL     1      -1.829  11.566  23.030  0.00  0.00    +0.000 A 
ATOM     15  C   UNL     1      -0.801  11.400  22.070  0.00  0.00    +0.000 A 
ATOM     16  N   UNL     1      -0.338  10.284  21.448  0.00  0.00    +0.000 NA
ATOM     17  H   UNL     1      -0.753  14.555  22.591  0.00  0.00    +0.000 HD
ENDBRANCH   7   8
BRANCH   4  18
ATOM     18  C   UNL     1       3.197   5.951  17.928  0.00  0.00    +0.000 A 
ATOM     19  C   UNL     1       4.540   6.179  17.553  0.00  0.00    +0.000 A 
ATOM     20  C   UNL     1       5.307   5.194  16.937  0.00  0.00    +0.000 A 
ATOM     21  C   UNL     1       4.722   3.970  16.709  0.00  0.00    +0.000 A 
ATOM     22  N   UNL     1       3.454   3.679  17.056  0.00  0.00    +0.000 NA
ATOM     23  C   UNL     1       2.724   4.658  17.651  0.00  0.00    +0.000 A 
BRANCH  23  24
ATOM     24  O   UNL     1       1.425   4.330  17.983  0.00  0.00    +0.000 OA
BRANCH  24  25
ATOM     25  C   UNL     1       1.340   3.183  18.848  0.00  0.00    +0.000 C 
BRANCH  25  26
ATOM     26  C   UNL     1       1.333   3.516  20.341  0.00  0.00    +0.000 C 
ATOM     27  F   UNL     1       0.461   4.499  20.661  0.00  0.00    +0.000 F 
ATOM     28  F   UNL     1       0.962   2.424  21.059  0.00  0.00    +0.000 F 
ATOM     29  F   UNL     1       2.555   3.881  20.788  0.00  0.00    +0.000 F 
ENDBRANCH  25  26
ENDBRANCH  24  25
ENDBRANCH  23  24
ENDBRANCH   4  18
TORSDOF 5
ENDMDL
MODEL 5
REMARK VINA RESULT:      -8.5      1.424      1.819
REMARK  Name = 
REMARK  5 active torsions:
REMARK  status: ('A' for Active; 'I' for Inactive)
REMARK    1  A    between atoms: C_4  and  C_5
REMARK    2  A    between atoms: C_10  and  O_11
REMARK    3  A    between atoms: O_11  and  C_12
REMARK    4  A    between atoms: C_12  and  C_13
REMARK    5  A    between atoms: C_19  and  C_20
REMARK                            x       y       z     vdW  Elec       q    Type
REMARK                         _______ _______ _______ _____ _____    ______ ____
ROOT
ATOM      1  F   UNL     1       1.216  10.260  18.407  0.00  0.00    +0.000 F 
ATOM      2  C   UNL     1       1.515   9.060  18.929  0.00  0.00    +0.000 A 
ATOM      3  C   UNL     1       2.252   8.188  18.124  0.00  0.00    +0.000 A 
ATOM      4  C   UNL     1       2.719   6.952  18.600  0.00  0.00    +0.000 A 
ATOM      5  C   UNL     1       2.324   6.605  19.902  0.00  0.00    +0.000 A 
ATOM      6  C   UNL     1       1.547   7.472  20.698  0.00  0.00    +0.000 A 
ATOM      7  C   UNL     1       1.140   8.736  20.236  0.00  0.00    +0.000 A 
ENDROOT
BRANCH   7   8
ATOM      8  C   UNL     1       0.386   9.672  21.098  0.00  0.00    +0.000 A 
ATOM      9  C   UNL     1       0.415   9.607  22.500  0.00  0.00    +0.000 A 
ATOM     10  N   UNL     1      -0.269  10.422  23.348  0.00  0.00    +0.000 NA
ATOM     11  C   UNL     1      -0.995  11.317  22.653  0.00  0.00    +0.000 A 
ATOM     12  N   UNL     1      -1.801  12.279  23.194  0.00  0.00    +0.000 N 
ATOM     13  C   UNL     1      -2.379  13.014  22.186  0.00  0.00    +0.000 A 
ATOM     14  C   UNL     1      -1.934  12.505  20.980  0.00  0.00    +0.000 A 
ATOM     15  C   UNL     1      -1.056  11.432  21.269  0.00  0.00    +0.000 A 
ATOM     16  N   UNL     1      -0.355  10.610  20.445  0.00  0.00    +0.000 NA
ATOM     17  H   UNL     1      -1.932  12.409  24.186  0.00  0.00    +0.000 HD
ENDBRANCH   7   8
BRANCH   4  18
ATOM     18  C   UNL     1       3.659   6.137  17.781  0.00  0.00    +0.000 A 
ATOM     19  C   UNL     1       4.914   6.683  17.430  0.00  0.00    +0.000 A 
ATOM     20  C   UNL     1       5.847   5.961  16.691  0.00  0.00    +0.000 A 
ATOM     21  C   UNL     1       5.519   4.680  16.314  0.00  0.00    +0.000 A 
ATOM     22  N   UNL     1       4.349   4.092  16.629  0.00  0.00    +0.000 NA
ATOM     23  C   UNL     1       3.453   4.818  17.346  0.00  0.00    +0.000 A 
BRANCH  23  24
ATOM     24  O   UNL     1       2.260   4.189  17.642  0.00  0.00    +0.000 OA
BRANCH  24  25
ATOM     25  C   UNL     1       2.417   3.091  18.558  0.00  0.00    +0.000 C 
BRANCH  25  26
ATOM     26  C   UNL     1       1.185   2.804  19.419  0.00  0.00    +0.000 C 
ATOM     27  F   UNL     1       0.593   3.926  19.887  0.00  0.00    +0.000 F 
ATOM     28  F   UNL     1       0.247   2.152  18.685  0.00  0.00    +0.000 F 
ATOM     29  F   UNL     1       1.474   2.013  20.475  0.00  0.00    +0.000 F 
ENDBRANCH  25  26
ENDBRANCH  24  25
ENDBRANCH  23  24
ENDBRANCH   4  18
TORSDOF 5
ENDMDL
MODEL 6
REMARK VINA RESULT:      -8.5      0.897      1.216
REMARK  Name = 
REMARK  5 active torsions:
REMARK  status: ('A' for Active; 'I' for Inactive)
REMARK    1  A    between atoms: C_4  and  C_5
REMARK    2  A    between atoms: C_10  and  O_11
REMARK    3  A    between atoms: O_11  and  C_12
REMARK    4  A    between atoms: C_12  and  C_13
REMARK    5  A    between atoms: C_19  and  C_20
REMARK                            x       y       z     vdW  Elec       q    Type
REMARK                         _______ _______ _______ _____ _____    ______ ____
ROOT
ATOM      1  F   UNL     1       1.194   8.101  21.604  0.00  0.00    +0.000 F 
ATOM      2  C   UNL     1       1.544   8.226  20.314  0.00  0.00    +0.000 A 
ATOM      3  C   UNL     1       2.339   7.211  19.775  0.00  0.00    +0.000 A 
ATOM      4  C   UNL     1       2.675   7.174  18.412  0.00  0.00    +0.000 A 
ATOM      5  C   UNL     1       2.240   8.265  17.642  0.00  0.00    +0.000 A 
ATOM      6  C   UNL     1       1.471   9.307  18.198  0.00  0.00    +0.000 A 
ATOM      7  C   UNL     1       1.084   9.302  19.550  0.00  0.00    +0.000 A 
ENDROOT
BRANCH   7   8
ATOM      8  C   UNL     1       0.217  10.359  20.114  0.00  0.00    +0.000 A 
ATOM      9  C   UNL     1      -0.158  11.502  19.389  0.00  0.00    +0.000 A 
ATOM     10  N   UNL     1      -0.934  12.519  19.855  0.00  0.00    +0.000 NA
ATOM     11  C   UNL     1      -1.301  12.282  21.128  0.00  0.00    +0.000 A 
ATOM     12  N   UNL     1      -2.077  13.102  21.897  0.00  0.00    +0.000 N 
ATOM     13  C   UNL     1      -2.251  12.538  23.139  0.00  0.00    +0.000 A 
ATOM     14  C   UNL     1      -1.568  11.337  23.160  0.00  0.00    +0.000 A 
ATOM     15  C   UNL     1      -0.966  11.168  21.889  0.00  0.00    +0.000 A 
ATOM     16  N   UNL     1      -0.196  10.163  21.396  0.00  0.00    +0.000 NA
ATOM     17  H   UNL     1      -2.454  13.982  21.576  0.00  0.00    +0.000 HD
ENDBRANCH   7   8
BRANCH   4  18
ATOM     18  C   UNL     1       3.359   5.982  17.838  0.00  0.00    +0.000 A 
ATOM     19  C   UNL     1       4.709   6.093  17.434  0.00  0.00    +0.000 A 
ATOM     20  C   UNL     1       5.411   5.009  16.916  0.00  0.00    +0.000 A 
ATOM     21  C   UNL     1       4.755   3.804  16.816  0.00  0.00    +0.000 A 
ATOM     22  N   UNL     1       3.476   3.623  17.198  0.00  0.00    +0.000 NA
ATOM     23  C   UNL     1       2.810   4.697  17.695  0.00  0.00    +0.000 A 
BRANCH  23  24
ATOM     24  O   UNL     1       1.499   4.479  18.066  0.00  0.00    +0.000 OA
BRANCH  24  25
ATOM     25  C   UNL     1       1.344   3.348  18.941  0.00  0.00    +0.000 C 
BRANCH  25  26
ATOM     26  C   UNL     1       1.347   3.696  20.432  0.00  0.00    +0.000 C 
ATOM     27  F   UNL     1       2.573   4.030  20.895  0.00  0.00    +0.000 F 
ATOM     28  F   UNL     1       0.544   4.768  20.660  0.00  0.00    +0.000 F 
ATOM     29  F   UNL     1       0.875   2.685  21.192  0.00  0.00    +0.000 F 
ENDBRANCH  25  26
ENDBRANCH  24  25
ENDBRANCH  23  24
ENDBRANCH   4  18
TORSDOF 5
ENDMDL
MODEL 7
REMARK VINA RESULT:      -8.5      1.810      2.421
REMARK  Name = 
REMARK  5 active torsions:
REMARK  status: ('A' for Active; 'I' for Inactive)
REMARK    1  A    between atoms: C_4  and  C_5
REMARK    2  A    between atoms: C_10  and  O_11
REMARK    3  A    between atoms: O_11  and  C_12
REMARK    4  A    between atoms: C_12  and  C_13
REMARK    5  A    between atoms: C_19  and  C_20
REMARK                            x       y       z     vdW  Elec       q    Type
REMARK                         _______ _______ _______ _____ _____    ______ ____
ROOT
ATOM      1  F   UNL     1       1.809   9.691  17.281  0.00  0.00    +0.000 F 
ATOM      2  C   UNL     1       2.163   8.608  17.989  0.00  0.00    +0.000 A 
ATOM      3  C   UNL     1       3.054   7.720  17.381  0.00  0.00    +0.000 A 
ATOM      4  C   UNL     1       3.583   6.612  18.064  0.00  0.00    +0.000 A 
ATOM      5  C   UNL     1       3.094   6.400  19.363  0.00  0.00    +0.000 A 
ATOM      6  C   UNL     1       2.165   7.277  19.959  0.00  0.00    +0.000 A 
ATOM      7  C   UNL     1       1.691   8.420  19.291  0.00  0.00    +0.000 A 
ENDROOT
BRANCH   7   8
ATOM      8  C   UNL     1       0.772   9.377  19.946  0.00  0.00    +0.000 A 
ATOM      9  C   UNL     1       0.184  10.454  19.264  0.00  0.00    +0.000 A 
ATOM     10  N   UNL     1      -0.652  11.379  19.810  0.00  0.00    +0.000 NA
ATOM     11  C   UNL     1      -0.842  11.123  21.117  0.00  0.00    +0.000 A 
ATOM     12  N   UNL     1      -1.620  11.859  21.966  0.00  0.00    +0.000 N 
ATOM     13  C   UNL     1      -1.585  11.300  23.222  0.00  0.00    +0.000 A 
ATOM     14  C   UNL     1      -0.765  10.189  23.170  0.00  0.00    +0.000 A 
ATOM     15  C   UNL     1      -0.293  10.071  21.840  0.00  0.00    +0.000 A 
ATOM     16  N   UNL     1       0.532   9.155  21.268  0.00  0.00    +0.000 NA
ATOM     17  H   UNL     1      -2.134  12.682  21.687  0.00  0.00    +0.000 HD
ENDBRANCH   7   8
BRANCH   4  18
ATOM     18  C   UNL     1       4.671   5.800  17.451  0.00  0.00    +0.000 A 
ATOM     19  C   UNL     1       5.993   6.300  17.467  0.00  0.00    +0.000 A 
ATOM     20  C   UNL     1       7.057   5.576  16.936  0.00  0.00    +0.000 A 
ATOM     21  C   UNL     1       6.790   4.339  16.398  0.00  0.00    +0.000 A 
ATOM     22  N   UNL     1       5.558   3.795  16.365  0.00  0.00    +0.000 NA
ATOM     23  C   UNL     1       4.536   4.523  16.885  0.00  0.00    +0.000 A 
BRANCH  23  24
ATOM     24  O   UNL     1       3.285   3.941  16.825  0.00  0.00    +0.000 OA
BRANCH  24  25
ATOM     25  C   UNL     1       3.057   2.991  17.881  0.00  0.00    +0.000 C 
BRANCH  25  26
ATOM     26  C   UNL     1       1.693   3.119  18.563  0.00  0.00    +0.000 C 
ATOM     27  F   UNL     1       1.786   3.379  19.887  0.00  0.00    +0.000 F 
ATOM     28  F   UNL     1       0.995   4.147  18.017  0.00  0.00    +0.000 F 
ATOM     29  F   UNL     1       0.940   2.008  18.408  0.00  0.00    +0.000 F 
ENDBRANCH  25  26
ENDBRANCH  24  25
ENDBRANCH  23  24
ENDBRANCH   4  18
TORSDOF 5
ENDMDL
MODEL 8
REMARK VINA RESULT:      -8.4      2.951      3.955
REMARK  Name = 
REMARK  5 active torsions:
REMARK  status: ('A' for Active; 'I' for Inactive)
REMARK    1  A    between atoms: C_4  and  C_5
REMARK    2  A    between atoms: C_10  and  O_11
REMARK    3  A    between atoms: O_11  and  C_12
REMARK    4  A    between atoms: C_12  and  C_13
REMARK    5  A    between atoms: C_19  and  C_20
REMARK                            x       y       z     vdW  Elec       q    Type
REMARK                         _______ _______ _______ _____ _____    ______ ____
ROOT
ATOM      1  F   UNL     1       0.518   9.328  21.426  0.00  0.00    +0.000 F 
ATOM      2  C   UNL     1       1.171   8.811  20.374  0.00  0.00    +0.000 A 
ATOM      3  C   UNL     1       1.713   7.533  20.534  0.00  0.00    +0.000 A 
ATOM      4  C   UNL     1       2.319   6.844  19.472  0.00  0.00    +0.000 A 
ATOM      5  C   UNL     1       2.431   7.551  18.264  0.00  0.00    +0.000 A 
ATOM      6  C   UNL     1       1.917   8.856  18.118  0.00  0.00    +0.000 A 
ATOM      7  C   UNL     1       1.253   9.512  19.168  0.00  0.00    +0.000 A 
ENDROOT
BRANCH   7   8
ATOM      8  C   UNL     1       0.653  10.853  18.990  0.00  0.00    +0.000 A 
ATOM      9  C   UNL     1      -0.666  11.043  18.547  0.00  0.00    +0.000 A 
ATOM     10  N   UNL     1      -1.270  12.246  18.344  0.00  0.00    +0.000 NA
ATOM     11  C   UNL     1      -0.420  13.250  18.627  0.00  0.00    +0.000 A 
ATOM     12  N   UNL     1      -0.703  14.583  18.526  0.00  0.00    +0.000 N 
ATOM     13  C   UNL     1       0.398  15.316  18.903  0.00  0.00    +0.000 A 
ATOM     14  C   UNL     1       1.401  14.429  19.245  0.00  0.00    +0.000 A 
ATOM     15  C   UNL     1       0.889  13.120  19.075  0.00  0.00    +0.000 A 
ATOM     16  N   UNL     1       1.466  11.907  19.278  0.00  0.00    +0.000 NA
ATOM     17  H   UNL     1      -1.594  14.946  18.221  0.00  0.00    +0.000 HD
ENDBRANCH   7   8
BRANCH   4  18
ATOM     18  C   UNL     1       2.712   5.415  19.628  0.00  0.00    +0.000 A 
ATOM     19  C   UNL     1       1.753   4.486  20.089  0.00  0.00    +0.000 A 
ATOM     20  C   UNL     1       2.050   3.133  20.229  0.00  0.00    +0.000 A 
ATOM     21  C   UNL     1       3.316   2.713  19.891  0.00  0.00    +0.000 A 
ATOM     22  N   UNL     1       4.273   3.541  19.429  0.00  0.00    +0.000 NA
ATOM     23  C   UNL     1       3.960   4.857  19.306  0.00  0.00    +0.000 A 
BRANCH  23  24
ATOM     24  O   UNL     1       4.966   5.678  18.840  0.00  0.00    +0.000 OA
BRANCH  24  25
ATOM     25  C   UNL     1       6.274   5.266  19.276  0.00  0.00    +0.000 C 
BRANCH  25  26
ATOM     26  C   UNL     1       7.394   5.549  18.272  0.00  0.00    +0.000 C 
ATOM     27  F   UNL     1       6.944   6.081  17.112  0.00  0.00    +0.000 F 
ATOM     28  F   UNL     1       8.269   6.447  18.792  0.00  0.00    +0.000 F 
ATOM     29  F   UNL     1       8.103   4.439  17.974  0.00  0.00    +0.000 F 
ENDBRANCH  25  26
ENDBRANCH  24  25
ENDBRANCH  23  24
ENDBRANCH   4  18
TORSDOF 5
ENDMDL
MODEL 9
REMARK VINA RESULT:      -8.4      2.448      3.274
REMARK  Name = 
REMARK  5 active torsions:
REMARK  status: ('A' for Active; 'I' for Inactive)
REMARK    1  A    between atoms: C_4  and  C_5
REMARK    2  A    between atoms: C_10  and  O_11
REMARK    3  A    between atoms: O_11  and  C_12
REMARK    4  A    between atoms: C_12  and  C_13
REMARK    5  A    between atoms: C_19  and  C_20
REMARK                            x       y       z     vdW  Elec       q    Type
REMARK                         _______ _______ _______ _____ _____    ______ ____
ROOT
ATOM      1  F   UNL     1       1.085   8.192  21.718  0.00  0.00    +0.000 F 
ATOM      2  C   UNL     1       1.491   8.173  20.439  0.00  0.00    +0.000 A 
ATOM      3  C   UNL     1       2.119   7.007  19.993  0.00  0.00    +0.000 A 
ATOM      4  C   UNL     1       2.486   6.827  18.650  0.00  0.00    +0.000 A 
ATOM      5  C   UNL     1       2.267   7.923  17.800  0.00  0.00    +0.000 A 
ATOM      6  C   UNL     1       1.668   9.113  18.263  0.00  0.00    +0.000 A 
ATOM      7  C   UNL     1       1.244   9.259  19.595  0.00  0.00    +0.000 A 
ENDROOT
BRANCH   7   8
ATOM      8  C   UNL     1       0.552  10.481  20.060  0.00  0.00    +0.000 A 
ATOM      9  C   UNL     1       1.143  11.402  20.939  0.00  0.00    +0.000 A 
ATOM     10  N   UNL     1       0.554  12.532  21.420  0.00  0.00    +0.000 NA
ATOM     11  C   UNL     1      -0.695  12.651  20.934  0.00  0.00    +0.000 A 
ATOM     12  N   UNL     1      -1.564  13.667  21.218  0.00  0.00    +0.000 N 
ATOM     13  C   UNL     1      -2.744  13.465  20.541  0.00  0.00    +0.000 A 
ATOM     14  C   UNL     1      -2.622  12.295  19.815  0.00  0.00    +0.000 A 
ATOM     15  C   UNL     1      -1.327  11.777  20.058  0.00  0.00    +0.000 A 
ATOM     16  N   UNL     1      -0.713  10.660  19.586  0.00  0.00    +0.000 NA
ATOM     17  H   UNL     1      -1.347  14.437  21.834  0.00  0.00    +0.000 HD
ENDBRANCH   7   8
BRANCH   4  18
ATOM     18  C   UNL     1       2.976   5.503  18.174  0.00  0.00    +0.000 A 
ATOM     19  C   UNL     1       2.036   4.509  17.822  0.00  0.00    +0.000 A 
ATOM     20  C   UNL     1       2.431   3.262  17.345  0.00  0.00    +0.000 A 
ATOM     21  C   UNL     1       3.779   3.020  17.211  0.00  0.00    +0.000 A 
ATOM     22  N   UNL     1       4.727   3.927  17.513  0.00  0.00    +0.000 NA
ATOM     23  C   UNL     1       4.317   5.135  17.981  0.00  0.00    +0.000 A 
BRANCH  23  24
ATOM     24  O   UNL     1       5.316   6.037  18.290  0.00  0.00    +0.000 OA
BRANCH  24  25
ATOM     25  C   UNL     1       6.272   5.515  19.229  0.00  0.00    +0.000 C 
BRANCH  25  26
ATOM     26  C   UNL     1       7.724   5.566  18.749  0.00  0.00    +0.000 C 
ATOM     27  F   UNL     1       7.986   4.679  17.762  0.00  0.00    +0.000 F 
ATOM     28  F   UNL     1       8.004   6.795  18.245  0.00  0.00    +0.000 F 
ATOM     29  F   UNL     1       8.601   5.345  19.752  0.00  0.00    +0.000 F 
ENDBRANCH  25  26
ENDBRANCH  24  25
ENDBRANCH  23  24
ENDBRANCH   4  18
TORSDOF 5
ENDMDL
