MODEL 1
REMARK VINA RESULT:      -6.2      0.000      0.000
REMARK  Name = 
REMARK  3 active torsions:
REMARK  status: ('A' for Active; 'I' for Inactive)
REMARK    1  A    between atoms: C_1  and  C_2
REMARK    2  A    between atoms: C_2  and  C_3
REMARK    3  A    between atoms: C_7  and  C_8
REMARK                            x       y       z     vdW  Elec       q    Type
REMARK                         _______ _______ _______ _____ _____    ______ ____
ROOT
ATOM      1  C   UNL     1       4.302   4.898  17.098  0.00  0.00    +0.000 A 
ATOM      2  N   UNL     1       4.333   3.557  17.284  0.00  0.00    +0.000 NA
ATOM      3  C   UNL     1       3.568   3.036  18.267  0.00  0.00    +0.000 A 
ATOM      4 CL   UNL     1       3.711   1.322  18.370  0.00  0.00    +0.000 Cl
ATOM      5  C   UNL     1       2.757   3.784  19.104  0.00  0.00    +0.000 A 
ATOM      6  C   UNL     1       2.740   5.181  18.926  0.00  0.00    +0.000 A 
ATOM      7  C   UNL     1       3.507   5.752  17.883  0.00  0.00    +0.000 A 
ATOM      8  C   UNL     1       3.522   7.249  17.659  0.00  0.00    +0.000 C 
ATOM      9  C   UNL     1       2.363   7.987  18.325  0.00  0.00    +0.000 C 
ATOM     10  C   UNL     1       2.214   7.530  19.764  0.00  0.00    +0.000 C 
ATOM     11  C   UNL     1       1.855   6.047  19.804  0.00  0.00    +0.000 C 
ENDROOT
BRANCH   1  13
ATOM     12  C   UNL     1       5.530   4.268  15.003  0.00  0.00    +0.000 C 
ATOM     13  C   UNL     1       5.165   5.392  15.961  0.00  0.00    +0.000 C 
ENDBRANCH   1  13
BRANCH   5  14
ATOM     14  C   UNL     1       1.959   3.143  20.105  0.00  0.00    +0.000 C 
ATOM     15  N   UNL     1       1.322   2.652  20.940  0.00  0.00    +0.000 NA
ENDBRANCH   5  14
TORSDOF 2
ENDMDL
MODEL 2
REMARK VINA RESULT:      -6.2      1.632      3.832
REMARK  Name = 
REMARK  3 active torsions:
REMARK  status: ('A' for Active; 'I' for Inactive)
REMARK    1  A    between atoms: C_1  and  C_2
REMARK    2  A    between atoms: C_2  and  C_3
REMARK    3  A    between atoms: C_7  and  C_8
REMARK                            x       y       z     vdW  Elec       q    Type
REMARK                         _______ _______ _______ _____ _____    ______ ____
ROOT
ATOM      1  C   UNL     1       2.542   6.303  19.170  0.00  0.00    +0.000 A 
ATOM      2  N   UNL     1       1.929   5.364  19.929  0.00  0.00    +0.000 NA
ATOM      3  C   UNL     1       2.246   4.069  19.716  0.00  0.00    +0.000 A 
ATOM      4 CL   UNL     1       1.388   3.003  20.763  0.00  0.00    +0.000 Cl
ATOM      5  C   UNL     1       3.156   3.636  18.766  0.00  0.00    +0.000 A 
ATOM      6  C   UNL     1       3.779   4.608  17.960  0.00  0.00    +0.000 A 
ATOM      7  C   UNL     1       3.490   5.975  18.184  0.00  0.00    +0.000 A 
ATOM      8  C   UNL     1       4.133   7.054  17.338  0.00  0.00    +0.000 C 
ATOM      9  C   UNL     1       5.376   6.591  16.583  0.00  0.00    +0.000 C 
ATOM     10  C   UNL     1       5.098   5.273  15.884  0.00  0.00    +0.000 C 
ATOM     11  C   UNL     1       4.797   4.190  16.915  0.00  0.00    +0.000 C 
ENDROOT
BRANCH   1  13
ATOM     12  C   UNL     1       1.451   7.822  20.842  0.00  0.00    +0.000 C 
ATOM     13  C   UNL     1       2.149   7.725  19.493  0.00  0.00    +0.000 C 
ENDBRANCH   1  13
BRANCH   5  14
ATOM     14  C   UNL     1       3.450   2.242  18.626  0.00  0.00    +0.000 C 
ATOM     15  N   UNL     1       3.702   1.119  18.477  0.00  0.00    +0.000 NA
ENDBRANCH   5  14
TORSDOF 2
ENDMDL
MODEL 3
REMARK VINA RESULT:      -6.2      1.860      3.816
REMARK  Name = 
REMARK  3 active torsions:
REMARK  status: ('A' for Active; 'I' for Inactive)
REMARK    1  A    between atoms: C_1  and  C_2
REMARK    2  A    between atoms: C_2  and  C_3
REMARK    3  A    between atoms: C_7  and  C_8
REMARK                            x       y       z     vdW  Elec       q    Type
REMARK                         _______ _______ _______ _____ _____    ______ ____
ROOT
ATOM      1  C   UNL     1       3.136   6.752  18.004  0.00  0.00    +0.000 A 
ATOM      2  N   UNL     1       2.300   6.186  18.907  0.00  0.00    +0.000 NA
ATOM      3  C   UNL     1       2.333   4.843  19.047  0.00  0.00    +0.000 A 
ATOM      4 CL   UNL     1       1.220   4.281  20.236  0.00  0.00    +0.000 Cl
ATOM      5  C   UNL     1       3.164   4.004  18.324  0.00  0.00    +0.000 A 
ATOM      6  C   UNL     1       4.020   4.588  17.370  0.00  0.00    +0.000 A 
ATOM      7  C   UNL     1       4.029   5.995  17.223  0.00  0.00    +0.000 A 
ATOM      8  C   UNL     1       4.928   6.665  16.206  0.00  0.00    +0.000 C 
ATOM      9  C   UNL     1       6.069   5.780  15.710  0.00  0.00    +0.000 C 
ATOM     10  C   UNL     1       5.537   4.410  15.330  0.00  0.00    +0.000 C 
ATOM     11  C   UNL     1       4.963   3.716  16.561  0.00  0.00    +0.000 C 
ENDROOT
BRANCH   1  13
ATOM     12  C   UNL     1       1.612   8.736  17.823  0.00  0.00    +0.000 C 
ATOM     13  C   UNL     1       3.053   8.258  17.931  0.00  0.00    +0.000 C 
ENDBRANCH   1  13
BRANCH   5  14
ATOM     14  C   UNL     1       3.150   2.592  18.558  0.00  0.00    +0.000 C 
ATOM     15  N   UNL     1       3.100   1.447  18.741  0.00  0.00    +0.000 NA
ENDBRANCH   5  14
TORSDOF 2
ENDMDL
MODEL 4
REMARK VINA RESULT:      -6.1      2.993      4.865
REMARK  Name = 
REMARK  3 active torsions:
REMARK  status: ('A' for Active; 'I' for Inactive)
REMARK    1  A    between atoms: C_1  and  C_2
REMARK    2  A    between atoms: C_2  and  C_3
REMARK    3  A    between atoms: C_7  and  C_8
REMARK                            x       y       z     vdW  Elec       q    Type
REMARK                         _______ _______ _______ _____ _____    ______ ____
ROOT
ATOM      1  C   UNL     1       3.293   6.703  17.994  0.00  0.00    +0.000 A 
ATOM      2  N   UNL     1       4.437   7.404  17.811  0.00  0.00    +0.000 NA
ATOM      3  C   UNL     1       5.558   6.719  17.500  0.00  0.00    +0.000 A 
ATOM      4 CL   UNL     1       6.922   7.752  17.294  0.00  0.00    +0.000 Cl
ATOM      5  C   UNL     1       5.617   5.343  17.360  0.00  0.00    +0.000 A 
ATOM      6  C   UNL     1       4.433   4.609  17.570  0.00  0.00    +0.000 A 
ATOM      7  C   UNL     1       3.237   5.304  17.866  0.00  0.00    +0.000 A 
ATOM      8  C   UNL     1       1.943   4.555  18.104  0.00  0.00    +0.000 C 
ATOM      9  C   UNL     1       1.952   3.119  17.585  0.00  0.00    +0.000 C 
ATOM     10  C   UNL     1       3.221   2.415  18.028  0.00  0.00    +0.000 C 
ATOM     11  C   UNL     1       4.437   3.100  17.412  0.00  0.00    +0.000 C 
ENDROOT
BRANCH   1  13
ATOM     12  C   UNL     1       2.228   8.963  17.766  0.00  0.00    +0.000 C 
ATOM     13  C   UNL     1       2.083   7.550  18.312  0.00  0.00    +0.000 C 
ENDBRANCH   1  13
BRANCH   5  14
ATOM     14  C   UNL     1       6.846   4.702  17.002  0.00  0.00    +0.000 C 
ATOM     15  N   UNL     1       7.858   4.217  16.707  0.00  0.00    +0.000 NA
ENDBRANCH   5  14
TORSDOF 2
ENDMDL
MODEL 5
REMARK VINA RESULT:      -6.1      2.168      3.808
REMARK  Name = 
REMARK  3 active torsions:
REMARK  status: ('A' for Active; 'I' for Inactive)
REMARK    1  A    between atoms: C_1  and  C_2
REMARK    2  A    between atoms: C_2  and  C_3
REMARK    3  A    between atoms: C_7  and  C_8
REMARK                            x       y       z     vdW  Elec       q    Type
REMARK                         _______ _______ _______ _____ _____    ______ ____
ROOT
ATOM      1  C   UNL     1       3.167   6.589  18.231  0.00  0.00    +0.000 A 
ATOM      2  N   UNL     1       2.325   5.853  18.994  0.00  0.00    +0.000 NA
ATOM      3  C   UNL     1       2.778   4.681  19.488  0.00  0.00    +0.000 A 
ATOM      4 CL   UNL     1       1.593   3.870  20.442  0.00  0.00    +0.000 Cl
ATOM      5  C   UNL     1       4.047   4.177  19.261  0.00  0.00    +0.000 A 
ATOM      6  C   UNL     1       4.918   4.930  18.449  0.00  0.00    +0.000 A 
ATOM      7  C   UNL     1       4.481   6.178  17.944  0.00  0.00    +0.000 A 
ATOM      8  C   UNL     1       5.382   7.018  17.064  0.00  0.00    +0.000 C 
ATOM      9  C   UNL     1       6.858   6.635  17.142  0.00  0.00    +0.000 C 
ATOM     10  C   UNL     1       7.011   5.131  17.009  0.00  0.00    +0.000 C 
ATOM     11  C   UNL     1       6.327   4.434  18.181  0.00  0.00    +0.000 C 
ENDROOT
BRANCH   1  13
ATOM     12  C   UNL     1       1.802   8.606  18.836  0.00  0.00    +0.000 C 
ATOM     13  C   UNL     1       2.589   7.897  17.743  0.00  0.00    +0.000 C 
ENDBRANCH   1  13
BRANCH   5  14
ATOM     14  C   UNL     1       4.451   2.935  19.846  0.00  0.00    +0.000 C 
ATOM     15  N   UNL     1       4.809   1.929  20.299  0.00  0.00    +0.000 NA
ENDBRANCH   5  14
TORSDOF 2
ENDMDL
MODEL 6
REMARK VINA RESULT:      -6.1      2.632      3.882
REMARK  Name = 
REMARK  3 active torsions:
REMARK  status: ('A' for Active; 'I' for Inactive)
REMARK    1  A    between atoms: C_1  and  C_2
REMARK    2  A    between atoms: C_2  and  C_3
REMARK    3  A    between atoms: C_7  and  C_8
REMARK                            x       y       z     vdW  Elec       q    Type
REMARK                         _______ _______ _______ _____ _____    ______ ____
ROOT
ATOM      1  C   UNL     1       3.821   4.818  17.769  0.00  0.00    +0.000 A 
ATOM      2  N   UNL     1       3.604   6.115  17.444  0.00  0.00    +0.000 NA
ATOM      3  C   UNL     1       2.933   6.886  18.327  0.00  0.00    +0.000 A 
ATOM      4 CL   UNL     1       2.746   8.506  17.772  0.00  0.00    +0.000 Cl
ATOM      5  C   UNL     1       2.447   6.436  19.543  0.00  0.00    +0.000 A 
ATOM      6  C   UNL     1       2.653   5.083  19.874  0.00  0.00    +0.000 A 
ATOM      7  C   UNL     1       3.381   4.259  18.982  0.00  0.00    +0.000 A 
ATOM      8  C   UNL     1       3.621   2.798  19.295  0.00  0.00    +0.000 C 
ATOM      9  C   UNL     1       3.416   2.436  20.764  0.00  0.00    +0.000 C 
ATOM     10  C   UNL     1       2.106   3.018  21.263  0.00  0.00    +0.000 C 
ATOM     11  C   UNL     1       2.157   4.541  21.202  0.00  0.00    +0.000 C 
ENDROOT
BRANCH   1  13
ATOM     12  C   UNL     1       5.320   4.956  15.762  0.00  0.00    +0.000 C 
ATOM     13  C   UNL     1       4.601   4.036  16.738  0.00  0.00    +0.000 C 
ENDBRANCH   1  13
BRANCH   5  14
ATOM     14  C   UNL     1       1.769   7.333  20.429  0.00  0.00    +0.000 C 
ATOM     15  N   UNL     1       1.249   8.083  21.145  0.00  0.00    +0.000 NA
ENDBRANCH   5  14
TORSDOF 2
ENDMDL
MODEL 7
REMARK VINA RESULT:      -6.0      1.349      1.392
REMARK  Name = 
REMARK  3 active torsions:
REMARK  status: ('A' for Active; 'I' for Inactive)
REMARK    1  A    between atoms: C_1  and  C_2
REMARK    2  A    between atoms: C_2  and  C_3
REMARK    3  A    between atoms: C_7  and  C_8
REMARK                            x       y       z     vdW  Elec       q    Type
REMARK                         _______ _______ _______ _____ _____    ______ ____
ROOT
ATOM      1  C   UNL     1       4.986   4.737  18.139  0.00  0.00    +0.000 A 
ATOM      2  N   UNL     1       5.193   3.523  18.700  0.00  0.00    +0.000 NA
ATOM      3  C   UNL     1       4.362   3.131  19.690  0.00  0.00    +0.000 A 
ATOM      4 CL   UNL     1       4.753   1.564  20.292  0.00  0.00    +0.000 Cl
ATOM      5  C   UNL     1       3.313   3.893  20.174  0.00  0.00    +0.000 A 
ATOM      6  C   UNL     1       3.108   5.166  19.607  0.00  0.00    +0.000 A 
ATOM      7  C   UNL     1       3.944   5.590  18.546  0.00  0.00    +0.000 A 
ATOM      8  C   UNL     1       3.762   6.952  17.911  0.00  0.00    +0.000 C 
ATOM      9  C   UNL     1       2.405   7.592  18.193  0.00  0.00    +0.000 C 
ATOM     10  C   UNL     1       2.086   7.500  19.674  0.00  0.00    +0.000 C 
ATOM     11  C   UNL     1       1.962   6.037  20.089  0.00  0.00    +0.000 C 
ENDROOT
BRANCH   1  13
ATOM     12  C   UNL     1       7.366   4.663  17.353  0.00  0.00    +0.000 C 
ATOM     13  C   UNL     1       5.942   5.084  17.022  0.00  0.00    +0.000 C 
ENDBRANCH   1  13
BRANCH   5  14
ATOM     14  C   UNL     1       2.466   3.387  21.211  0.00  0.00    +0.000 C 
ATOM     15  N   UNL     1       1.769   3.012  22.059  0.00  0.00    +0.000 NA
ENDBRANCH   5  14
TORSDOF 2
ENDMDL
MODEL 8
REMARK VINA RESULT:      -6.0      2.843      5.112
REMARK  Name = 
REMARK  3 active torsions:
REMARK  status: ('A' for Active; 'I' for Inactive)
REMARK    1  A    between atoms: C_1  and  C_2
REMARK    2  A    between atoms: C_2  and  C_3
REMARK    3  A    between atoms: C_7  and  C_8
REMARK                            x       y       z     vdW  Elec       q    Type
REMARK                         _______ _______ _______ _____ _____    ______ ____
ROOT
ATOM      1  C   UNL     1       2.616   4.767  20.341  0.00  0.00    +0.000 A 
ATOM      2  N   UNL     1       1.922   5.824  20.825  0.00  0.00    +0.000 NA
ATOM      3  C   UNL     1       1.901   6.958  20.092  0.00  0.00    +0.000 A 
ATOM      4 CL   UNL     1       0.972   8.202  20.838  0.00  0.00    +0.000 Cl
ATOM      5  C   UNL     1       2.548   7.114  18.878  0.00  0.00    +0.000 A 
ATOM      6  C   UNL     1       3.289   6.023  18.382  0.00  0.00    +0.000 A 
ATOM      7  C   UNL     1       3.302   4.811  19.114  0.00  0.00    +0.000 A 
ATOM      8  C   UNL     1       4.089   3.616  18.621  0.00  0.00    +0.000 C 
ATOM      9  C   UNL     1       4.466   3.687  17.143  0.00  0.00    +0.000 C 
ATOM     10  C   UNL     1       5.052   5.049  16.822  0.00  0.00    +0.000 C 
ATOM     11  C   UNL     1       4.003   6.133  17.048  0.00  0.00    +0.000 C 
ENDROOT
BRANCH   1  13
ATOM     12  C   UNL     1       1.221   2.826  21.103  0.00  0.00    +0.000 C 
ATOM     13  C   UNL     1       2.565   3.532  21.210  0.00  0.00    +0.000 C 
ENDBRANCH   1  13
BRANCH   5  14
ATOM     14  C   UNL     1       2.449   8.346  18.156  0.00  0.00    +0.000 C 
ATOM     15  N   UNL     1       2.344   9.357  17.598  0.00  0.00    +0.000 NA
ENDBRANCH   5  14
TORSDOF 2
ENDMDL
MODEL 9
REMARK VINA RESULT:      -6.0      1.755      4.129
REMARK  Name = 
REMARK  3 active torsions:
REMARK  status: ('A' for Active; 'I' for Inactive)
REMARK    1  A    between atoms: C_1  and  C_2
REMARK    2  A    between atoms: C_2  and  C_3
REMARK    3  A    between atoms: C_7  and  C_8
REMARK                            x       y       z     vdW  Elec       q    Type
REMARK                         _______ _______ _______ _____ _____    ______ ____
ROOT
ATOM      1  C   UNL     1       2.868   5.012  19.864  0.00  0.00    +0.000 A 
ATOM      2  N   UNL     1       3.723   4.232  19.162  0.00  0.00    +0.000 NA
ATOM      3  C   UNL     1       4.290   4.752  18.052  0.00  0.00    +0.000 A 
ATOM      4 CL   UNL     1       5.355   3.640  17.278  0.00  0.00    +0.000 Cl
ATOM      5  C   UNL     1       4.050   6.032  17.580  0.00  0.00    +0.000 A 
ATOM      6  C   UNL     1       3.145   6.838  18.297  0.00  0.00    +0.000 A 
ATOM      7  C   UNL     1       2.560   6.330  19.482  0.00  0.00    +0.000 A 
ATOM      8  C   UNL     1       1.578   7.160  20.281  0.00  0.00    +0.000 C 
ATOM      9  C   UNL     1       1.624   8.652  19.962  0.00  0.00    +0.000 C 
ATOM     10  C   UNL     1       1.607   8.863  18.460  0.00  0.00    +0.000 C 
ATOM     11  C   UNL     1       2.858   8.254  17.835  0.00  0.00    +0.000 C 
ENDROOT
BRANCH   1  13
ATOM     12  C   UNL     1       1.169   3.403  20.768  0.00  0.00    +0.000 C 
ATOM     13  C   UNL     1       2.302   4.362  21.105  0.00  0.00    +0.000 C 
ENDBRANCH   1  13
BRANCH   5  14
ATOM     14  C   UNL     1       4.717   6.509  16.407  0.00  0.00    +0.000 C 
ATOM     15  N   UNL     1       5.226   6.886  15.435  0.00  0.00    +0.000 NA
ENDBRANCH   5  14
TORSDOF 2
ENDMDL
