MODEL 1
REMARK VINA RESULT:      -7.2      0.000      0.000
REMARK  Name = 
REMARK  8 active torsions:
REMARK  status: ('A' for Active; 'I' for Inactive)
REMARK    1  A    between atoms: C_1  and  S_2
REMARK    2  A    between atoms: S_2  and  C_3
REMARK    3  A    between atoms: C_3  and  C_4
REMARK    4  A    between atoms: C_7  and  C_8
REMARK    5  A    between atoms: C_7  and  C_17
REMARK    6  A    between atoms: C_8  and  C_9
REMARK    7  A    between atoms: C_9  and  C_10
REMARK    8  A    between atoms: C_17  and  N_18
REMARK                            x       y       z     vdW  Elec       q    Type
REMARK                         _______ _______ _______ _____ _____    ______ ____
ROOT
ATOM      1  C   UNL     1       6.001   4.389  17.190  0.00  0.00    +0.000 C 
ATOM      2  C   UNL     1       5.055   3.969  16.104  0.00  0.00    +0.000 C 
ATOM      3  O   UNL     1       3.802   4.310  16.601  0.00  0.00    +0.000 OA
ATOM      4  C   UNL     1       3.917   4.099  18.000  0.00  0.00    +0.000 C 
ATOM      5  O   UNL     1       5.289   4.159  18.372  0.00  0.00    +0.000 OA
ENDROOT
BRANCH   1   6
ATOM      6  C   UNL     1       6.406   5.874  17.063  0.00  0.00    +0.000 C 
BRANCH   6   8
ATOM      7  C   UNL     1       7.877   8.130  17.822  0.00  0.00    +0.000 C 
ATOM      8  S   UNL     1       7.612   6.397  18.345  0.00  0.00    +0.000 S 
ENDBRANCH   6   8
ENDBRANCH   1   6
BRANCH   4   9
ATOM      9  C   UNL     1       3.150   5.224  18.735  0.00  0.00    +0.000 C 
BRANCH   9  10
ATOM     10  C   UNL     1       3.284   6.588  18.030  0.00  0.00    +0.000 C 
BRANCH  10  11
ATOM     11  C   UNL     1       2.405   7.630  18.653  0.00  0.00    +0.000 A 
ATOM     12  C   UNL     1       1.887   8.684  17.880  0.00  0.00    +0.000 A 
ATOM     13  C   UNL     1       1.047   9.636  18.465  0.00  0.00    +0.000 A 
ATOM     14  C   UNL     1       0.721   9.544  19.822  0.00  0.00    +0.000 A 
ATOM     15 CL   UNL     1      -0.332  10.739  20.553  0.00  0.00    +0.000 Cl
ATOM     16  C   UNL     1       1.232   8.497  20.595  0.00  0.00    +0.000 A 
ATOM     17  C   UNL     1       2.066   7.542  20.012  0.00  0.00    +0.000 A 
ENDBRANCH  10  11
ENDBRANCH   9  10
ENDBRANCH   4   9
BRANCH   4  18
ATOM     18  C   UNL     1       3.352   2.695  18.373  0.00  0.00    +0.000 C 
BRANCH  18  19
ATOM     19  N   UNL     1       2.772   2.684  19.721  0.00  0.00    +0.000 N 
ATOM     20  C   UNL     1       1.465   2.718  20.042  0.00  0.00    +0.000 A 
ATOM     21  C   UNL     1       1.367   2.686  21.416  0.00  0.00    +0.000 A 
ATOM     22  N   UNL     1       2.604   2.642  21.949  0.00  0.00    +0.000 NA
ATOM     23  C   UNL     1       3.439   2.642  20.890  0.00  0.00    +0.000 A 
ENDBRANCH  18  19
ENDBRANCH   4  18
TORSDOF 7
ENDMDL
MODEL 2
REMARK VINA RESULT:      -7.2      2.652      4.683
REMARK  Name = 
REMARK  8 active torsions:
REMARK  status: ('A' for Active; 'I' for Inactive)
REMARK    1  A    between atoms: C_1  and  S_2
REMARK    2  A    between atoms: S_2  and  C_3
REMARK    3  A    between atoms: C_3  and  C_4
REMARK    4  A    between atoms: C_7  and  C_8
REMARK    5  A    between atoms: C_7  and  C_17
REMARK    6  A    between atoms: C_8  and  C_9
REMARK    7  A    between atoms: C_9  and  C_10
REMARK    8  A    between atoms: C_17  and  N_18
REMARK                            x       y       z     vdW  Elec       q    Type
REMARK                         _______ _______ _______ _____ _____    ______ ____
ROOT
ATOM      1  C   UNL     1       3.177   3.011  17.469  0.00  0.00    +0.000 C 
ATOM      2  C   UNL     1       3.865   2.412  18.660  0.00  0.00    +0.000 C 
ATOM      3  O   UNL     1       4.394   3.511  19.328  0.00  0.00    +0.000 OA
ATOM      4  C   UNL     1       4.741   4.412  18.288  0.00  0.00    +0.000 C 
ATOM      5  O   UNL     1       3.973   4.109  17.129  0.00  0.00    +0.000 OA
ENDROOT
BRANCH   1   6
ATOM      6  C   UNL     1       1.733   3.450  17.795  0.00  0.00    +0.000 C 
BRANCH   6   8
ATOM      7  C   UNL     1       1.000   3.865  20.463  0.00  0.00    +0.000 C 
ATOM      8  S   UNL     1       1.010   2.532  19.211  0.00  0.00    +0.000 S 
ENDBRANCH   6   8
ENDBRANCH   1   6
BRANCH   4   9
ATOM      9  C   UNL     1       4.405   5.851  18.747  0.00  0.00    +0.000 C 
BRANCH   9  10
ATOM     10  C   UNL     1       3.456   6.575  17.772  0.00  0.00    +0.000 C 
BRANCH  10  11
ATOM     11  C   UNL     1       2.568   7.556  18.478  0.00  0.00    +0.000 A 
ATOM     12  C   UNL     1       2.195   7.346  19.817  0.00  0.00    +0.000 A 
ATOM     13  C   UNL     1       1.389   8.280  20.474  0.00  0.00    +0.000 A 
ATOM     14  C   UNL     1       0.947   9.423  19.800  0.00  0.00    +0.000 A 
ATOM     15 CL   UNL     1      -0.064  10.591  20.627  0.00  0.00    +0.000 Cl
ATOM     16  C   UNL     1       1.316   9.637  18.469  0.00  0.00    +0.000 A 
ATOM     17  C   UNL     1       2.127   8.709  17.813  0.00  0.00    +0.000 A 
ENDBRANCH  10  11
ENDBRANCH   9  10
ENDBRANCH   4   9
BRANCH   4  18
ATOM     18  C   UNL     1       6.254   4.270  17.945  0.00  0.00    +0.000 C 
BRANCH  18  19
ATOM     19  N   UNL     1       6.913   5.577  17.839  0.00  0.00    +0.000 N 
ATOM     20  C   UNL     1       7.643   6.197  18.784  0.00  0.00    +0.000 A 
ATOM     21  C   UNL     1       8.076   7.397  18.263  0.00  0.00    +0.000 A 
ATOM     22  N   UNL     1       7.612   7.529  17.005  0.00  0.00    +0.000 NA
ATOM     23  C   UNL     1       6.907   6.403  16.775  0.00  0.00    +0.000 A 
ENDBRANCH  18  19
ENDBRANCH   4  18
TORSDOF 7
ENDMDL
MODEL 3
REMARK VINA RESULT:      -7.2      0.860      1.366
REMARK  Name = 
REMARK  8 active torsions:
REMARK  status: ('A' for Active; 'I' for Inactive)
REMARK    1  A    between atoms: C_1  and  S_2
REMARK    2  A    between atoms: S_2  and  C_3
REMARK    3  A    between atoms: C_3  and  C_4
REMARK    4  A    between atoms: C_7  and  C_8
REMARK    5  A    between atoms: C_7  and  C_17
REMARK    6  A    between atoms: C_8  and  C_9
REMARK    7  A    between atoms: C_9  and  C_10
REMARK    8  A    between atoms: C_17  and  N_18
REMARK                            x       y       z     vdW  Elec       q    Type
REMARK                         _______ _______ _______ _____ _____    ______ ____
ROOT
ATOM      1  C   UNL     1       6.995   4.603  18.232  0.00  0.00    +0.000 C 
ATOM      2  C   UNL     1       6.393   4.554  16.858  0.00  0.00    +0.000 C 
ATOM      3  O   UNL     1       5.101   5.033  17.043  0.00  0.00    +0.000 OA
ATOM      4  C   UNL     1       4.744   4.573  18.337  0.00  0.00    +0.000 C 
ATOM      5  O   UNL     1       5.926   4.314  19.085  0.00  0.00    +0.000 OA
ENDROOT
BRANCH   1   6
ATOM      6  C   UNL     1       7.603   5.986  18.548  0.00  0.00    +0.000 C 
BRANCH   6   8
ATOM      7  C   UNL     1       8.125   8.673  17.967  0.00  0.00    +0.000 C 
ATOM      8  S   UNL     1       7.306   7.218  17.220  0.00  0.00    +0.000 S 
ENDBRANCH   6   8
ENDBRANCH   1   6
BRANCH   4   9
ATOM      9  C   UNL     1       3.933   5.681  19.050  0.00  0.00    +0.000 C 
BRANCH   9  10
ATOM     10  C   UNL     1       3.093   6.522  18.069  0.00  0.00    +0.000 C 
BRANCH  10  11
ATOM     11  C   UNL     1       2.298   7.580  18.775  0.00  0.00    +0.000 A 
ATOM     12  C   UNL     1       1.973   7.439  20.136  0.00  0.00    +0.000 A 
ATOM     13  C   UNL     1       1.255   8.443  20.792  0.00  0.00    +0.000 A 
ATOM     14  C   UNL     1       0.854   9.589  20.096  0.00  0.00    +0.000 A 
ATOM     15 CL   UNL     1      -0.047  10.845  20.921  0.00  0.00    +0.000 Cl
ATOM     16  C   UNL     1       1.177   9.734  18.743  0.00  0.00    +0.000 A 
ATOM     17  C   UNL     1       1.899   8.736  18.088  0.00  0.00    +0.000 A 
ENDBRANCH  10  11
ENDBRANCH   9  10
ENDBRANCH   4   9
BRANCH   4  18
ATOM     18  C   UNL     1       3.918   3.256  18.223  0.00  0.00    +0.000 C 
BRANCH  18  19
ATOM     19  N   UNL     1       3.033   3.068  19.378  0.00  0.00    +0.000 N 
ATOM     20  C   UNL     1       1.700   3.247  19.417  0.00  0.00    +0.000 A 
ATOM     21  C   UNL     1       1.271   2.956  20.694  0.00  0.00    +0.000 A 
ATOM     22  N   UNL     1       2.332   2.606  21.449  0.00  0.00    +0.000 NA
ATOM     23  C   UNL     1       3.391   2.684  20.618  0.00  0.00    +0.000 A 
ENDBRANCH  18  19
ENDBRANCH   4  18
TORSDOF 7
ENDMDL
MODEL 4
REMARK VINA RESULT:      -7.2      2.749      4.596
REMARK  Name = 
REMARK  8 active torsions:
REMARK  status: ('A' for Active; 'I' for Inactive)
REMARK    1  A    between atoms: C_1  and  S_2
REMARK    2  A    between atoms: S_2  and  C_3
REMARK    3  A    between atoms: C_3  and  C_4
REMARK    4  A    between atoms: C_7  and  C_8
REMARK    5  A    between atoms: C_7  and  C_17
REMARK    6  A    between atoms: C_8  and  C_9
REMARK    7  A    between atoms: C_9  and  C_10
REMARK    8  A    between atoms: C_17  and  N_18
REMARK                            x       y       z     vdW  Elec       q    Type
REMARK                         _______ _______ _______ _____ _____    ______ ____
ROOT
ATOM      1  C   UNL     1       4.715   3.763  18.627  0.00  0.00    +0.000 C 
ATOM      2  C   UNL     1       5.448   4.806  19.418  0.00  0.00    +0.000 C 
ATOM      3  O   UNL     1       4.623   5.922  19.344  0.00  0.00    +0.000 OA
ATOM      4  C   UNL     1       4.041   5.836  18.053  0.00  0.00    +0.000 C 
ATOM      5  O   UNL     1       4.088   4.485  17.607  0.00  0.00    +0.000 OA
ENDROOT
BRANCH   1   6
ATOM      6  C   UNL     1       3.684   3.001  19.487  0.00  0.00    +0.000 C 
BRANCH   6   8
ATOM      7  C   UNL     1       0.981   2.840  18.784  0.00  0.00    +0.000 C 
ATOM      8  S   UNL     1       2.554   1.955  18.487  0.00  0.00    +0.000 S 
ENDBRANCH   6   8
ENDBRANCH   1   6
BRANCH   4   9
ATOM      9  C   UNL     1       2.562   6.281  18.145  0.00  0.00    +0.000 C 
BRANCH   9  10
ATOM     10  C   UNL     1       2.391   7.802  17.959  0.00  0.00    +0.000 C 
BRANCH  10  11
ATOM     11  C   UNL     1       1.720   8.439  19.139  0.00  0.00    +0.000 A 
ATOM     12  C   UNL     1       1.025   9.653  18.996  0.00  0.00    +0.000 A 
ATOM     13  C   UNL     1       0.380  10.225  20.096  0.00  0.00    +0.000 A 
ATOM     14  C   UNL     1       0.426   9.593  21.343  0.00  0.00    +0.000 A 
ATOM     15 CL   UNL     1      -0.383  10.313  22.721  0.00  0.00    +0.000 Cl
ATOM     16  C   UNL     1       1.114   8.385  21.490  0.00  0.00    +0.000 A 
ATOM     17  C   UNL     1       1.754   7.809  20.392  0.00  0.00    +0.000 A 
ENDBRANCH  10  11
ENDBRANCH   9  10
ENDBRANCH   4   9
BRANCH   4  18
ATOM     18  C   UNL     1       4.835   6.727  17.051  0.00  0.00    +0.000 C 
BRANCH  18  19
ATOM     19  N   UNL     1       5.750   5.933  16.224  0.00  0.00    +0.000 N 
ATOM     20  C   UNL     1       5.467   5.326  15.055  0.00  0.00    +0.000 A 
ATOM     21  C   UNL     1       6.613   4.697  14.619  0.00  0.00    +0.000 A 
ATOM     22  N   UNL     1       7.600   4.901  15.513  0.00  0.00    +0.000 NA
ATOM     23  C   UNL     1       7.043   5.658  16.480  0.00  0.00    +0.000 A 
ENDBRANCH  18  19
ENDBRANCH   4  18
TORSDOF 7
ENDMDL
MODEL 5
REMARK VINA RESULT:      -7.1      2.655      4.591
REMARK  Name = 
REMARK  8 active torsions:
REMARK  status: ('A' for Active; 'I' for Inactive)
REMARK    1  A    between atoms: C_1  and  S_2
REMARK    2  A    between atoms: S_2  and  C_3
REMARK    3  A    between atoms: C_3  and  C_4
REMARK    4  A    between atoms: C_7  and  C_8
REMARK    5  A    between atoms: C_7  and  C_17
REMARK    6  A    between atoms: C_8  and  C_9
REMARK    7  A    between atoms: C_9  and  C_10
REMARK    8  A    between atoms: C_17  and  N_18
REMARK                            x       y       z     vdW  Elec       q    Type
REMARK                         _______ _______ _______ _____ _____    ______ ____
ROOT
ATOM      1  C   UNL     1       3.842   3.165  17.855  0.00  0.00    +0.000 C 
ATOM      2  C   UNL     1       4.471   3.560  19.159  0.00  0.00    +0.000 C 
ATOM      3  O   UNL     1       3.963   4.831  19.403  0.00  0.00    +0.000 OA
ATOM      4  C   UNL     1       3.832   5.405  18.112  0.00  0.00    +0.000 C 
ATOM      5  O   UNL     1       3.745   4.365  17.144  0.00  0.00    +0.000 OA
ENDROOT
BRANCH   1   6
ATOM      6  C   UNL     1       2.453   2.521  18.054  0.00  0.00    +0.000 C 
BRANCH   6   8
ATOM      7  C   UNL     1       0.836   3.510  20.112  0.00  0.00    +0.000 C 
ATOM      8  S   UNL     1       2.066   2.188  19.818  0.00  0.00    +0.000 S 
ENDBRANCH   6   8
ENDBRANCH   1   6
BRANCH   4   9
ATOM      9  C   UNL     1       2.529   6.237  18.069  0.00  0.00    +0.000 C 
BRANCH   9  10
ATOM     10  C   UNL     1       2.797   7.742  17.866  0.00  0.00    +0.000 C 
BRANCH  10  11
ATOM     11  C   UNL     1       1.844   8.592  18.652  0.00  0.00    +0.000 A 
ATOM     12  C   UNL     1       1.645   8.360  20.023  0.00  0.00    +0.000 A 
ATOM     13  C   UNL     1       0.775   9.176  20.753  0.00  0.00    +0.000 A 
ATOM     14  C   UNL     1       0.097  10.223  20.119  0.00  0.00    +0.000 A 
ATOM     15 CL   UNL     1      -0.993  11.243  21.037  0.00  0.00    +0.000 Cl
ATOM     16  C   UNL     1       0.294  10.459  18.755  0.00  0.00    +0.000 A 
ATOM     17  C   UNL     1       1.166   9.650  18.027  0.00  0.00    +0.000 A 
ENDBRANCH  10  11
ENDBRANCH   9  10
ENDBRANCH   4   9
BRANCH   4  18
ATOM     18  C   UNL     1       5.076   6.289  17.795  0.00  0.00    +0.000 C 
BRANCH  18  19
ATOM     19  N   UNL     1       5.979   5.635  16.842  0.00  0.00    +0.000 N 
ATOM     20  C   UNL     1       5.845   5.578  15.504  0.00  0.00    +0.000 A 
ATOM     21  C   UNL     1       6.917   4.873  15.001  0.00  0.00    +0.000 A 
ATOM     22  N   UNL     1       7.710   4.485  16.020  0.00  0.00    +0.000 NA
ATOM     23  C   UNL     1       7.112   4.964  17.129  0.00  0.00    +0.000 A 
ENDBRANCH  18  19
ENDBRANCH   4  18
TORSDOF 7
ENDMDL
MODEL 6
REMARK VINA RESULT:      -7.1      2.595      4.495
REMARK  Name = 
REMARK  8 active torsions:
REMARK  status: ('A' for Active; 'I' for Inactive)
REMARK    1  A    between atoms: C_1  and  S_2
REMARK    2  A    between atoms: S_2  and  C_3
REMARK    3  A    between atoms: C_3  and  C_4
REMARK    4  A    between atoms: C_7  and  C_8
REMARK    5  A    between atoms: C_7  and  C_17
REMARK    6  A    between atoms: C_8  and  C_9
REMARK    7  A    between atoms: C_9  and  C_10
REMARK    8  A    between atoms: C_17  and  N_18
REMARK                            x       y       z     vdW  Elec       q    Type
REMARK                         _______ _______ _______ _____ _____    ______ ____
ROOT
ATOM      1  C   UNL     1       3.446   2.849  17.839  0.00  0.00    +0.000 C 
ATOM      2  C   UNL     1       4.255   2.405  19.023  0.00  0.00    +0.000 C 
ATOM      3  O   UNL     1       4.427   3.568  19.765  0.00  0.00    +0.000 OA
ATOM      4  C   UNL     1       4.517   4.592  18.786  0.00  0.00    +0.000 C 
ATOM      5  O   UNL     1       3.895   4.149  17.586  0.00  0.00    +0.000 OA
ENDROOT
BRANCH   1   6
ATOM      6  C   UNL     1       1.931   2.830  18.134  0.00  0.00    +0.000 C 
BRANCH   6   8
ATOM      7  C   UNL     1       1.011   3.999  20.504  0.00  0.00    +0.000 C 
ATOM      8  S   UNL     1       1.546   2.369  19.869  0.00  0.00    +0.000 S 
ENDBRANCH   6   8
ENDBRANCH   1   6
BRANCH   4   9
ATOM      9  C   UNL     1       3.767   5.842  19.306  0.00  0.00    +0.000 C 
BRANCH   9  10
ATOM     10  C   UNL     1       3.084   6.633  18.173  0.00  0.00    +0.000 C 
BRANCH  10  11
ATOM     11  C   UNL     1       2.254   7.765  18.701  0.00  0.00    +0.000 A 
ATOM     12  C   UNL     1       1.784   8.769  17.838  0.00  0.00    +0.000 A 
ATOM     13  C   UNL     1       0.989   9.806  18.335  0.00  0.00    +0.000 A 
ATOM     14  C   UNL     1       0.662   9.848  19.695  0.00  0.00    +0.000 A 
ATOM     15 CL   UNL     1      -0.335  11.149  20.316  0.00  0.00    +0.000 Cl
ATOM     16  C   UNL     1       1.126   8.850  20.557  0.00  0.00    +0.000 A 
ATOM     17  C   UNL     1       1.914   7.812  20.061  0.00  0.00    +0.000 A 
ENDBRANCH  10  11
ENDBRANCH   9  10
ENDBRANCH   4   9
BRANCH   4  18
ATOM     18  C   UNL     1       6.013   4.915  18.492  0.00  0.00    +0.000 C 
BRANCH  18  19
ATOM     19  N   UNL     1       6.273   5.019  17.052  0.00  0.00    +0.000 N 
ATOM     20  C   UNL     1       6.814   4.079  16.254  0.00  0.00    +0.000 A 
ATOM     21  C   UNL     1       6.872   4.591  14.977  0.00  0.00    +0.000 A 
ATOM     22  N   UNL     1       6.381   5.846  14.978  0.00  0.00    +0.000 NA
ATOM     23  C   UNL     1       6.023   6.078  16.258  0.00  0.00    +0.000 A 
ENDBRANCH  18  19
ENDBRANCH   4  18
TORSDOF 7
ENDMDL
MODEL 7
REMARK VINA RESULT:      -7.1      2.741      4.756
REMARK  Name = 
REMARK  8 active torsions:
REMARK  status: ('A' for Active; 'I' for Inactive)
REMARK    1  A    between atoms: C_1  and  S_2
REMARK    2  A    between atoms: S_2  and  C_3
REMARK    3  A    between atoms: C_3  and  C_4
REMARK    4  A    between atoms: C_7  and  C_8
REMARK    5  A    between atoms: C_7  and  C_17
REMARK    6  A    between atoms: C_8  and  C_9
REMARK    7  A    between atoms: C_9  and  C_10
REMARK    8  A    between atoms: C_17  and  N_18
REMARK                            x       y       z     vdW  Elec       q    Type
REMARK                         _______ _______ _______ _____ _____    ______ ____
ROOT
ATOM      1  C   UNL     1       2.976   3.348  17.353  0.00  0.00    +0.000 C 
ATOM      2  C   UNL     1       3.667   2.422  18.310  0.00  0.00    +0.000 C 
ATOM      3  O   UNL     1       4.316   3.277  19.192  0.00  0.00    +0.000 OA
ATOM      4  C   UNL     1       4.688   4.386  18.388  0.00  0.00    +0.000 C 
ATOM      5  O   UNL     1       3.844   4.438  17.244  0.00  0.00    +0.000 OA
ENDROOT
BRANCH   1   6
ATOM      6  C   UNL     1       1.590   3.789  17.873  0.00  0.00    +0.000 C 
BRANCH   6   8
ATOM      7  C   UNL     1       0.954   3.196  20.532  0.00  0.00    +0.000 C 
ATOM      8  S   UNL     1       0.750   2.487  18.858  0.00  0.00    +0.000 S 
ENDBRANCH   6   8
ENDBRANCH   1   6
BRANCH   4   9
ATOM      9  C   UNL     1       4.496   5.682  19.211  0.00  0.00    +0.000 C 
BRANCH   9  10
ATOM     10  C   UNL     1       3.107   5.757  19.877  0.00  0.00    +0.000 C 
BRANCH  10  11
ATOM     11  C   UNL     1       2.404   7.044  19.562  0.00  0.00    +0.000 A 
ATOM     12  C   UNL     1       1.702   7.737  20.563  0.00  0.00    +0.000 A 
ATOM     13  C   UNL     1       1.072   8.949  20.266  0.00  0.00    +0.000 A 
ATOM     14  C   UNL     1       1.136   9.474  18.970  0.00  0.00    +0.000 A 
ATOM     15 CL   UNL     1       0.345  10.994  18.601  0.00  0.00    +0.000 Cl
ATOM     16  C   UNL     1       1.835   8.789  17.972  0.00  0.00    +0.000 A 
ATOM     17  C   UNL     1       2.469   7.582  18.268  0.00  0.00    +0.000 A 
ENDBRANCH  10  11
ENDBRANCH   9  10
ENDBRANCH   4   9
BRANCH   4  18
ATOM     18  C   UNL     1       6.167   4.231  17.920  0.00  0.00    +0.000 C 
BRANCH  18  19
ATOM     19  N   UNL     1       6.314   4.502  16.486  0.00  0.00    +0.000 N 
ATOM     20  C   UNL     1       6.123   3.637  15.472  0.00  0.00    +0.000 A 
ATOM     21  C   UNL     1       6.364   4.308  14.293  0.00  0.00    +0.000 A 
ATOM     22  N   UNL     1       6.712   5.580  14.570  0.00  0.00    +0.000 NA
ATOM     23  C   UNL     1       6.672   5.668  15.915  0.00  0.00    +0.000 A 
ENDBRANCH  18  19
ENDBRANCH   4  18
TORSDOF 7
ENDMDL
MODEL 8
REMARK VINA RESULT:      -7.1      2.735      4.666
REMARK  Name = 
REMARK  8 active torsions:
REMARK  status: ('A' for Active; 'I' for Inactive)
REMARK    1  A    between atoms: C_1  and  S_2
REMARK    2  A    between atoms: S_2  and  C_3
REMARK    3  A    between atoms: C_3  and  C_4
REMARK    4  A    between atoms: C_7  and  C_8
REMARK    5  A    between atoms: C_7  and  C_17
REMARK    6  A    between atoms: C_8  and  C_9
REMARK    7  A    between atoms: C_9  and  C_10
REMARK    8  A    between atoms: C_17  and  N_18
REMARK                            x       y       z     vdW  Elec       q    Type
REMARK                         _______ _______ _______ _____ _____    ______ ____
ROOT
ATOM      1  C   UNL     1       3.009   3.341  17.363  0.00  0.00    +0.000 C 
ATOM      2  C   UNL     1       3.699   2.414  18.320  0.00  0.00    +0.000 C 
ATOM      3  O   UNL     1       4.333   3.269  19.215  0.00  0.00    +0.000 OA
ATOM      4  C   UNL     1       4.703   4.386  18.421  0.00  0.00    +0.000 C 
ATOM      5  O   UNL     1       3.869   4.439  17.269  0.00  0.00    +0.000 OA
ENDROOT
BRANCH   1   6
ATOM      6  C   UNL     1       1.615   3.767  17.873  0.00  0.00    +0.000 C 
BRANCH   6   8
ATOM      7  C   UNL     1       0.953   3.192  20.530  0.00  0.00    +0.000 C 
ATOM      8  S   UNL     1       0.787   2.460  18.862  0.00  0.00    +0.000 S 
ENDBRANCH   6   8
ENDBRANCH   1   6
BRANCH   4   9
ATOM      9  C   UNL     1       4.492   5.675  19.251  0.00  0.00    +0.000 C 
BRANCH   9  10
ATOM     10  C   UNL     1       3.076   5.763  19.855  0.00  0.00    +0.000 C 
BRANCH  10  11
ATOM     11  C   UNL     1       2.409   7.066  19.532  0.00  0.00    +0.000 A 
ATOM     12  C   UNL     1       2.455   7.588  18.228  0.00  0.00    +0.000 A 
ATOM     13  C   UNL     1       1.807   8.790  17.930  0.00  0.00    +0.000 A 
ATOM     14  C   UNL     1       1.113   9.479  18.931  0.00  0.00    +0.000 A 
ATOM     15 CL   UNL     1       0.302  10.987  18.555  0.00  0.00    +0.000 Cl
ATOM     16  C   UNL     1       1.063   8.963  20.230  0.00  0.00    +0.000 A 
ATOM     17  C   UNL     1       1.704   7.760  20.526  0.00  0.00    +0.000 A 
ENDBRANCH  10  11
ENDBRANCH   9  10
ENDBRANCH   4   9
BRANCH   4  18
ATOM     18  C   UNL     1       6.187   4.247  17.966  0.00  0.00    +0.000 C 
BRANCH  18  19
ATOM     19  N   UNL     1       6.343   4.516  16.532  0.00  0.00    +0.000 N 
ATOM     20  C   UNL     1       6.149   3.652  15.518  0.00  0.00    +0.000 A 
ATOM     21  C   UNL     1       6.401   4.321  14.340  0.00  0.00    +0.000 A 
ATOM     22  N   UNL     1       6.759   5.590  14.617  0.00  0.00    +0.000 NA
ATOM     23  C   UNL     1       6.714   5.679  15.962  0.00  0.00    +0.000 A 
ENDBRANCH  18  19
ENDBRANCH   4  18
TORSDOF 7
ENDMDL
MODEL 9
REMARK VINA RESULT:      -6.9      1.270      1.528
REMARK  Name = 
REMARK  8 active torsions:
REMARK  status: ('A' for Active; 'I' for Inactive)
REMARK    1  A    between atoms: C_1  and  S_2
REMARK    2  A    between atoms: S_2  and  C_3
REMARK    3  A    between atoms: C_3  and  C_4
REMARK    4  A    between atoms: C_7  and  C_8
REMARK    5  A    between atoms: C_7  and  C_17
REMARK    6  A    between atoms: C_8  and  C_9
REMARK    7  A    between atoms: C_9  and  C_10
REMARK    8  A    between atoms: C_17  and  N_18
REMARK                            x       y       z     vdW  Elec       q    Type
REMARK                         _______ _______ _______ _____ _____    ______ ____
ROOT
ATOM      1  C   UNL     1       6.411   4.329  17.406  0.00  0.00    +0.000 C 
ATOM      2  C   UNL     1       5.309   3.523  16.782  0.00  0.00    +0.000 C 
ATOM      3  O   UNL     1       4.170   3.924  17.472  0.00  0.00    +0.000 OA
ATOM      4  C   UNL     1       4.636   4.179  18.788  0.00  0.00    +0.000 C 
ATOM      5  O   UNL     1       6.034   4.443  18.747  0.00  0.00    +0.000 OA
ENDROOT
BRANCH   1   6
ATOM      6  C   UNL     1       6.557   5.718  16.748  0.00  0.00    +0.000 C 
BRANCH   6   8
ATOM      7  C   UNL     1       6.969   4.925  14.096  0.00  0.00    +0.000 C 
ATOM      8  S   UNL     1       5.736   5.821  15.109  0.00  0.00    +0.000 S 
ENDBRANCH   6   8
ENDBRANCH   1   6
BRANCH   4   9
ATOM      9  C   UNL     1       3.907   5.428  19.338  0.00  0.00    +0.000 C 
BRANCH   9  10
ATOM     10  C   UNL     1       3.154   6.204  18.239  0.00  0.00    +0.000 C 
BRANCH  10  11
ATOM     11  C   UNL     1       2.392   7.369  18.797  0.00  0.00    +0.000 A 
ATOM     12  C   UNL     1       2.021   8.442  17.968  0.00  0.00    +0.000 A 
ATOM     13  C   UNL     1       1.287   9.511  18.492  0.00  0.00    +0.000 A 
ATOM     14  C   UNL     1       0.923   9.516  19.843  0.00  0.00    +0.000 A 
ATOM     15 CL   UNL     1       0.004  10.858  20.496  0.00  0.00    +0.000 Cl
ATOM     16  C   UNL     1       1.289   8.450  20.670  0.00  0.00    +0.000 A 
ATOM     17  C   UNL     1       2.016   7.380  20.148  0.00  0.00    +0.000 A 
ENDBRANCH  10  11
ENDBRANCH   9  10
ENDBRANCH   4   9
BRANCH   4  18
ATOM     18  C   UNL     1       4.381   2.935  19.692  0.00  0.00    +0.000 C 
BRANCH  18  19
ATOM     19  N   UNL     1       2.991   2.875  20.155  0.00  0.00    +0.000 N 
ATOM     20  C   UNL     1       1.882   2.841  19.392  0.00  0.00    +0.000 A 
ATOM     21  C   UNL     1       0.792   2.783  20.234  0.00  0.00    +0.000 A 
ATOM     22  N   UNL     1       1.218   2.791  21.512  0.00  0.00    +0.000 NA
ATOM     23  C   UNL     1       2.562   2.847  21.431  0.00  0.00    +0.000 A 
ENDBRANCH  18  19
ENDBRANCH   4  18
TORSDOF 7
ENDMDL
