MODEL 1
REMARK VINA RESULT:      -7.4      0.000      0.000
REMARK  Name = 
REMARK  6 active torsions:
REMARK  status: ('A' for Active; 'I' for Inactive)
REMARK    1  A    between atoms: C_1  and  O_2
REMARK    2  A    between atoms: O_2  and  C_3
REMARK    3  A    between atoms: C_7  and  C_8
REMARK    4  A    between atoms: N_13  and  C_14
REMARK    5  A    between atoms: C_14  and  C_15
REMARK    6  A    between atoms: C_15  and  C_16
REMARK                            x       y       z     vdW  Elec       q    Type
REMARK                         _______ _______ _______ _____ _____    ______ ____
ROOT
ATOM      1  C   UNL     1       2.718   7.377  17.864  0.00  0.00    +0.000 C 
ATOM      2  C   UNL     1       2.074   8.102  18.794  0.00  0.00    +0.000 C 
ATOM      3  S   UNL     1       1.698   7.623  20.400  0.00  0.00    +0.000 S 
ATOM      4  C   UNL     1       0.842   9.117  20.751  0.00  0.00    +0.000 C 
ATOM      5  S   UNL     1       0.128   9.372  22.236  0.00  0.00    +0.000 S 
ATOM      6  N   UNL     1       0.869   9.950  19.649  0.00  0.00    +0.000 N 
ATOM      7  C   UNL     1       1.567   9.474  18.543  0.00  0.00    +0.000 C 
ATOM      8  O   UNL     1       1.749  10.069  17.490  0.00  0.00    +0.000 OA
ENDROOT
BRANCH   1  13
ATOM      9  C   UNL     1       5.084   4.536  18.557  0.00  0.00    +0.000 A 
ATOM     10  C   UNL     1       4.252   3.440  18.314  0.00  0.00    +0.000 A 
ATOM     11  C   UNL     1       2.906   3.627  17.996  0.00  0.00    +0.000 A 
ATOM     12  C   UNL     1       2.386   4.918  17.899  0.00  0.00    +0.000 A 
ATOM     13  C   UNL     1       3.214   6.021  18.121  0.00  0.00    +0.000 A 
ATOM     14  C   UNL     1       4.557   5.826  18.473  0.00  0.00    +0.000 A 
BRANCH   9  16
ATOM     15  C   UNL     1       7.360   4.673  17.898  0.00  0.00    +0.000 C 
ATOM     16  O   UNL     1       6.387   4.224  18.833  0.00  0.00    +0.000 OA
ENDBRANCH   9  16
ENDBRANCH   1  13
BRANCH   6  17
ATOM     17  C   UNL     1       0.294  11.311  19.604  0.00  0.00    +0.000 C 
BRANCH  17  18
ATOM     18  C   UNL     1      -1.107  11.322  19.000  0.00  0.00    +0.000 C 
BRANCH  18  19
ATOM     19  C   UNL     1      -2.167  11.931  19.906  0.00  0.00    +0.000 C 
ATOM     20  O   UNL     1      -1.923  12.218  21.073  0.00  0.00    +0.000 OA
ATOM     21  N   UNL     1      -3.405  12.165  19.304  0.00  0.00    +0.000 N 
ATOM     22  C   UNL     1      -4.447  12.893  20.026  0.00  0.00    +0.000 C 
ATOM     23  C   UNL     1      -5.696  12.028  20.190  0.00  0.00    +0.000 C 
ATOM     24  C   UNL     1      -6.166  11.466  18.847  0.00  0.00    +0.000 C 
ATOM     25  C   UNL     1      -5.026  10.766  18.109  0.00  0.00    +0.000 C 
ATOM     26  C   UNL     1      -3.809  11.679  17.983  0.00  0.00    +0.000 C 
ENDBRANCH  18  19
ENDBRANCH  17  18
ENDBRANCH   6  17
TORSDOF 5
ENDMDL
MODEL 2
REMARK VINA RESULT:      -7.3      1.084      1.895
REMARK  Name = 
REMARK  6 active torsions:
REMARK  status: ('A' for Active; 'I' for Inactive)
REMARK    1  A    between atoms: C_1  and  O_2
REMARK    2  A    between atoms: O_2  and  C_3
REMARK    3  A    between atoms: C_7  and  C_8
REMARK    4  A    between atoms: N_13  and  C_14
REMARK    5  A    between atoms: C_14  and  C_15
REMARK    6  A    between atoms: C_15  and  C_16
REMARK                            x       y       z     vdW  Elec       q    Type
REMARK                         _______ _______ _______ _____ _____    ______ ____
ROOT
ATOM      1  C   UNL     1       2.959   7.173  17.821  0.00  0.00    +0.000 C 
ATOM      2  C   UNL     1       2.280   7.894  18.729  0.00  0.00    +0.000 C 
ATOM      3  S   UNL     1       1.846   7.410  20.318  0.00  0.00    +0.000 S 
ATOM      4  C   UNL     1       0.973   8.900  20.642  0.00  0.00    +0.000 C 
ATOM      5  S   UNL     1       0.205   9.149  22.100  0.00  0.00    +0.000 S 
ATOM      6  N   UNL     1       1.039   9.736  19.543  0.00  0.00    +0.000 N 
ATOM      7  C   UNL     1       1.778   9.265  18.463  0.00  0.00    +0.000 C 
ATOM      8  O   UNL     1       1.997   9.864  17.419  0.00  0.00    +0.000 OA
ENDROOT
BRANCH   1  13
ATOM      9  C   UNL     1       3.018   3.432  18.214  0.00  0.00    +0.000 A 
ATOM     10  C   UNL     1       4.233   3.261  18.881  0.00  0.00    +0.000 A 
ATOM     11  C   UNL     1       5.063   4.353  19.139  0.00  0.00    +0.000 A 
ATOM     12  C   UNL     1       4.672   5.632  18.745  0.00  0.00    +0.000 A 
ATOM     13  C   UNL     1       3.450   5.818  18.093  0.00  0.00    +0.000 A 
ATOM     14  C   UNL     1       2.636   4.713  17.808  0.00  0.00    +0.000 A 
BRANCH   9  16
ATOM     15  C   UNL     1       1.052   2.216  18.753  0.00  0.00    +0.000 C 
ATOM     16  O   UNL     1       2.283   2.291  18.044  0.00  0.00    +0.000 OA
ENDBRANCH   9  16
ENDBRANCH   1  13
BRANCH   6  17
ATOM     17  C   UNL     1       0.462  11.095  19.481  0.00  0.00    +0.000 C 
BRANCH  17  18
ATOM     18  C   UNL     1      -0.970  11.087  18.952  0.00  0.00    +0.000 C 
BRANCH  18  19
ATOM     19  C   UNL     1      -1.970  11.783  19.864  0.00  0.00    +0.000 C 
ATOM     20  O   UNL     1      -1.691  12.063  21.024  0.00  0.00    +0.000 OA
ATOM     21  N   UNL     1      -3.194  12.102  19.273  0.00  0.00    +0.000 N 
ATOM     22  C   UNL     1      -4.171  12.913  19.999  0.00  0.00    +0.000 C 
ATOM     23  C   UNL     1      -5.478  12.145  20.188  0.00  0.00    +0.000 C 
ATOM     24  C   UNL     1      -6.005  11.605  18.857  0.00  0.00    +0.000 C 
ATOM     25  C   UNL     1      -4.929  10.815  18.114  0.00  0.00    +0.000 C 
ATOM     26  C   UNL     1      -3.650  11.634  17.963  0.00  0.00    +0.000 C 
ENDBRANCH  18  19
ENDBRANCH  17  18
ENDBRANCH   6  17
TORSDOF 5
ENDMDL
MODEL 3
REMARK VINA RESULT:      -7.1      2.776      4.193
REMARK  Name = 
REMARK  6 active torsions:
REMARK  status: ('A' for Active; 'I' for Inactive)
REMARK    1  A    between atoms: C_1  and  O_2
REMARK    2  A    between atoms: O_2  and  C_3
REMARK    3  A    between atoms: C_7  and  C_8
REMARK    4  A    between atoms: N_13  and  C_14
REMARK    5  A    between atoms: C_14  and  C_15
REMARK    6  A    between atoms: C_15  and  C_16
REMARK                            x       y       z     vdW  Elec       q    Type
REMARK                         _______ _______ _______ _____ _____    ______ ____
ROOT
ATOM      1  C   UNL     1       2.784   7.383  17.800  0.00  0.00    +0.000 C 
ATOM      2  C   UNL     1       2.150   8.109  18.735  0.00  0.00    +0.000 C 
ATOM      3  S   UNL     1       1.786   7.632  20.344  0.00  0.00    +0.000 S 
ATOM      4  C   UNL     1       0.937   9.128  20.702  0.00  0.00    +0.000 C 
ATOM      5  S   UNL     1       0.236   9.385  22.193  0.00  0.00    +0.000 S 
ATOM      6  N   UNL     1       0.959   9.961  19.600  0.00  0.00    +0.000 N 
ATOM      7  C   UNL     1       1.646   9.483  18.489  0.00  0.00    +0.000 C 
ATOM      8  O   UNL     1       1.821  10.078  17.434  0.00  0.00    +0.000 OA
ENDROOT
BRANCH   1  13
ATOM      9  C   UNL     1       5.150   4.529  18.443  0.00  0.00    +0.000 A 
ATOM     10  C   UNL     1       4.302   3.438  18.235  0.00  0.00    +0.000 A 
ATOM     11  C   UNL     1       2.949   3.633  17.956  0.00  0.00    +0.000 A 
ATOM     12  C   UNL     1       2.436   4.926  17.865  0.00  0.00    +0.000 A 
ATOM     13  C   UNL     1       3.278   6.025  18.053  0.00  0.00    +0.000 A 
ATOM     14  C   UNL     1       4.630   5.823  18.365  0.00  0.00    +0.000 A 
BRANCH   9  16
ATOM     15  C   UNL     1       7.405   4.643  17.714  0.00  0.00    +0.000 C 
ATOM     16  O   UNL     1       6.458   4.209  18.683  0.00  0.00    +0.000 OA
ENDBRANCH   9  16
ENDBRANCH   1  13
BRANCH   6  17
ATOM     17  C   UNL     1       0.387  11.323  19.560  0.00  0.00    +0.000 C 
BRANCH  17  18
ATOM     18  C   UNL     1       1.425  12.391  19.897  0.00  0.00    +0.000 C 
BRANCH  18  19
ATOM     19  C   UNL     1       0.898  13.816  19.805  0.00  0.00    +0.000 C 
ATOM     20  O   UNL     1      -0.283  14.075  20.004  0.00  0.00    +0.000 OA
ATOM     21  N   UNL     1       1.857  14.789  19.516  0.00  0.00    +0.000 N 
ATOM     22  C   UNL     1       1.502  16.206  19.562  0.00  0.00    +0.000 C 
ATOM     23  C   UNL     1       1.723  16.863  18.200  0.00  0.00    +0.000 C 
ATOM     24  C   UNL     1       3.138  16.607  17.680  0.00  0.00    +0.000 C 
ATOM     25  C   UNL     1       3.479  15.118  17.706  0.00  0.00    +0.000 C 
ATOM     26  C   UNL     1       3.232  14.521  19.090  0.00  0.00    +0.000 C 
ENDBRANCH  18  19
ENDBRANCH  17  18
ENDBRANCH   6  17
TORSDOF 5
ENDMDL
MODEL 4
REMARK VINA RESULT:      -7.0      3.016      4.614
REMARK  Name = 
REMARK  6 active torsions:
REMARK  status: ('A' for Active; 'I' for Inactive)
REMARK    1  A    between atoms: C_1  and  O_2
REMARK    2  A    between atoms: O_2  and  C_3
REMARK    3  A    between atoms: C_7  and  C_8
REMARK    4  A    between atoms: N_13  and  C_14
REMARK    5  A    between atoms: C_14  and  C_15
REMARK    6  A    between atoms: C_15  and  C_16
REMARK                            x       y       z     vdW  Elec       q    Type
REMARK                         _______ _______ _______ _____ _____    ______ ____
ROOT
ATOM      1  C   UNL     1       2.897   7.135  17.870  0.00  0.00    +0.000 C 
ATOM      2  C   UNL     1       2.236   7.891  18.762  0.00  0.00    +0.000 C 
ATOM      3  S   UNL     1       1.831   7.469  20.377  0.00  0.00    +0.000 S 
ATOM      4  C   UNL     1       0.968   8.973  20.661  0.00  0.00    +0.000 C 
ATOM      5  S   UNL     1       0.228   9.279  22.123  0.00  0.00    +0.000 S 
ATOM      6  N   UNL     1       1.016   9.767  19.531  0.00  0.00    +0.000 N 
ATOM      7  C   UNL     1       1.734   9.254  18.455  0.00  0.00    +0.000 C 
ATOM      8  O   UNL     1       1.935   9.812  17.385  0.00  0.00    +0.000 OA
ENDROOT
BRANCH   1  13
ATOM      9  C   UNL     1       2.940   3.419  18.453  0.00  0.00    +0.000 A 
ATOM     10  C   UNL     1       4.191   3.266  19.057  0.00  0.00    +0.000 A 
ATOM     11  C   UNL     1       5.045   4.359  19.208  0.00  0.00    +0.000 A 
ATOM     12  C   UNL     1       4.645   5.621  18.772  0.00  0.00    +0.000 A 
ATOM     13  C   UNL     1       3.389   5.789  18.183  0.00  0.00    +0.000 A 
ATOM     14  C   UNL     1       2.548   4.682  18.004  0.00  0.00    +0.000 A 
BRANCH   9  16
ATOM     15  C   UNL     1       0.824   2.397  18.781  0.00  0.00    +0.000 C 
ATOM     16  O   UNL     1       2.185   2.280  18.387  0.00  0.00    +0.000 OA
ENDBRANCH   9  16
ENDBRANCH   1  13
BRANCH   6  17
ATOM     17  C   UNL     1       0.442  11.125  19.428  0.00  0.00    +0.000 C 
BRANCH  17  18
ATOM     18  C   UNL     1       1.452  12.205  19.803  0.00  0.00    +0.000 C 
BRANCH  18  19
ATOM     19  C   UNL     1       0.913  13.624  19.687  0.00  0.00    +0.000 C 
ATOM     20  O   UNL     1      -0.286  13.862  19.780  0.00  0.00    +0.000 OA
ATOM     21  N   UNL     1       1.878  14.616  19.504  0.00  0.00    +0.000 N 
ATOM     22  C   UNL     1       1.496  16.027  19.541  0.00  0.00    +0.000 C 
ATOM     23  C   UNL     1       1.830  16.712  18.216  0.00  0.00    +0.000 C 
ATOM     24  C   UNL     1       3.292  16.488  17.825  0.00  0.00    +0.000 C 
ATOM     25  C   UNL     1       3.653  15.003  17.857  0.00  0.00    +0.000 C 
ATOM     26  C   UNL     1       3.290  14.378  19.202  0.00  0.00    +0.000 C 
ENDBRANCH  18  19
ENDBRANCH  17  18
ENDBRANCH   6  17
TORSDOF 5
ENDMDL
MODEL 5
REMARK VINA RESULT:      -6.8      2.954      3.660
REMARK  Name = 
REMARK  6 active torsions:
REMARK  status: ('A' for Active; 'I' for Inactive)
REMARK    1  A    between atoms: C_1  and  O_2
REMARK    2  A    between atoms: O_2  and  C_3
REMARK    3  A    between atoms: C_7  and  C_8
REMARK    4  A    between atoms: N_13  and  C_14
REMARK    5  A    between atoms: C_14  and  C_15
REMARK    6  A    between atoms: C_15  and  C_16
REMARK                            x       y       z     vdW  Elec       q    Type
REMARK                         _______ _______ _______ _____ _____    ______ ____
ROOT
ATOM      1  C   UNL     1       2.893   7.206  17.855  0.00  0.00    +0.000 C 
ATOM      2  C   UNL     1       2.225   7.931  18.768  0.00  0.00    +0.000 C 
ATOM      3  S   UNL     1       1.805   7.454  20.363  0.00  0.00    +0.000 S 
ATOM      4  C   UNL     1       0.942   8.949  20.691  0.00  0.00    +0.000 C 
ATOM      5  S   UNL     1       0.189   9.205  22.156  0.00  0.00    +0.000 S 
ATOM      6  N   UNL     1       1.002   9.782  19.590  0.00  0.00    +0.000 N 
ATOM      7  C   UNL     1       1.728   9.305  18.504  0.00  0.00    +0.000 C 
ATOM      8  O   UNL     1       1.940   9.900  17.456  0.00  0.00    +0.000 OA
ENDROOT
BRANCH   1  13
ATOM      9  C   UNL     1       2.925   3.470  18.299  0.00  0.00    +0.000 A 
ATOM     10  C   UNL     1       4.165   3.293  18.917  0.00  0.00    +0.000 A 
ATOM     11  C   UNL     1       5.018   4.379  19.124  0.00  0.00    +0.000 A 
ATOM     12  C   UNL     1       4.625   5.657  18.728  0.00  0.00    +0.000 A 
ATOM     13  C   UNL     1       3.379   5.848  18.126  0.00  0.00    +0.000 A 
ATOM     14  C   UNL     1       2.541   4.749  17.891  0.00  0.00    +0.000 A 
BRANCH   9  16
ATOM     15  C   UNL     1       0.870   2.372  18.752  0.00  0.00    +0.000 C 
ATOM     16  O   UNL     1       2.171   2.335  18.178  0.00  0.00    +0.000 OA
ENDBRANCH   9  16
ENDBRANCH   1  13
BRANCH   6  17
ATOM     17  C   UNL     1       0.431  11.144  19.530  0.00  0.00    +0.000 C 
BRANCH  17  18
ATOM     18  C   UNL     1       1.337  12.176  20.195  0.00  0.00    +0.000 C 
BRANCH  18  19
ATOM     19  C   UNL     1       0.601  13.153  21.101  0.00  0.00    +0.000 C 
ATOM     20  O   UNL     1       0.103  12.792  22.161  0.00  0.00    +0.000 OA
ATOM     21  N   UNL     1       0.570  14.475  20.652  0.00  0.00    +0.000 N 
ATOM     22  C   UNL     1       0.035  15.529  21.511  0.00  0.00    +0.000 C 
ATOM     23  C   UNL     1      -1.157  16.216  20.846  0.00  0.00    +0.000 C 
ATOM     24  C   UNL     1      -0.807  16.699  19.437  0.00  0.00    +0.000 C 
ATOM     25  C   UNL     1      -0.200  15.574  18.600  0.00  0.00    +0.000 C 
ATOM     26  C   UNL     1       0.980  14.927  19.321  0.00  0.00    +0.000 C 
ENDBRANCH  18  19
ENDBRANCH  17  18
ENDBRANCH   6  17
TORSDOF 5
ENDMDL
MODEL 6
REMARK VINA RESULT:      -6.8      2.779      3.967
REMARK  Name = 
REMARK  6 active torsions:
REMARK  status: ('A' for Active; 'I' for Inactive)
REMARK    1  A    between atoms: C_1  and  O_2
REMARK    2  A    between atoms: O_2  and  C_3
REMARK    3  A    between atoms: C_7  and  C_8
REMARK    4  A    between atoms: N_13  and  C_14
REMARK    5  A    between atoms: C_14  and  C_15
REMARK    6  A    between atoms: C_15  and  C_16
REMARK                            x       y       z     vdW  Elec       q    Type
REMARK                         _______ _______ _______ _____ _____    ______ ____
ROOT
ATOM      1  C   UNL     1       2.748   7.295  17.807  0.00  0.00    +0.000 C 
ATOM      2  C   UNL     1       2.130   8.032  18.744  0.00  0.00    +0.000 C 
ATOM      3  S   UNL     1       1.786   7.571  20.362  0.00  0.00    +0.000 S 
ATOM      4  C   UNL     1       0.947   9.074  20.718  0.00  0.00    +0.000 C 
ATOM      5  S   UNL     1       0.268   9.347  22.216  0.00  0.00    +0.000 S 
ATOM      6  N   UNL     1       0.956   9.896  19.608  0.00  0.00    +0.000 N 
ATOM      7  C   UNL     1       1.626   9.406  18.492  0.00  0.00    +0.000 C 
ATOM      8  O   UNL     1       1.789   9.990  17.429  0.00  0.00    +0.000 OA
ENDROOT
BRANCH   1  13
ATOM      9  C   UNL     1       5.109   4.446  18.487  0.00  0.00    +0.000 A 
ATOM     10  C   UNL     1       4.269   3.354  18.261  0.00  0.00    +0.000 A 
ATOM     11  C   UNL     1       2.920   3.545  17.957  0.00  0.00    +0.000 A 
ATOM     12  C   UNL     1       2.405   4.838  17.859  0.00  0.00    +0.000 A 
ATOM     13  C   UNL     1       3.241   5.938  18.066  0.00  0.00    +0.000 A 
ATOM     14  C   UNL     1       4.588   5.739  18.403  0.00  0.00    +0.000 A 
BRANCH   9  16
ATOM     15  C   UNL     1       7.391   4.690  17.881  0.00  0.00    +0.000 C 
ATOM     16  O   UNL     1       6.414   4.130  18.749  0.00  0.00    +0.000 OA
ENDBRANCH   9  16
ENDBRANCH   1  13
BRANCH   6  17
ATOM     17  C   UNL     1       0.389  11.260  19.563  0.00  0.00    +0.000 C 
BRANCH  17  18
ATOM     18  C   UNL     1       1.458  12.333  19.751  0.00  0.00    +0.000 C 
BRANCH  18  19
ATOM     19  C   UNL     1       1.168  13.303  20.888  0.00  0.00    +0.000 C 
ATOM     20  O   UNL     1       0.477  12.977  21.846  0.00  0.00    +0.000 OA
ATOM     21  N   UNL     1       1.769  14.558  20.769  0.00  0.00    +0.000 N 
ATOM     22  C   UNL     1       1.695  15.515  21.872  0.00  0.00    +0.000 C 
ATOM     23  C   UNL     1       0.996  16.799  21.428  0.00  0.00    +0.000 C 
ATOM     24  C   UNL     1       1.638  17.376  20.165  0.00  0.00    +0.000 C 
ATOM     25  C   UNL     1       1.742  16.321  19.065  0.00  0.00    +0.000 C 
ATOM     26  C   UNL     1       2.444  15.063  19.572  0.00  0.00    +0.000 C 
ENDBRANCH  18  19
ENDBRANCH  17  18
ENDBRANCH   6  17
TORSDOF 5
ENDMDL
MODEL 7
REMARK VINA RESULT:      -6.8      2.569      3.219
REMARK  Name = 
REMARK  6 active torsions:
REMARK  status: ('A' for Active; 'I' for Inactive)
REMARK    1  A    between atoms: C_1  and  O_2
REMARK    2  A    between atoms: O_2  and  C_3
REMARK    3  A    between atoms: C_7  and  C_8
REMARK    4  A    between atoms: N_13  and  C_14
REMARK    5  A    between atoms: C_14  and  C_15
REMARK    6  A    between atoms: C_15  and  C_16
REMARK                            x       y       z     vdW  Elec       q    Type
REMARK                         _______ _______ _______ _____ _____    ______ ____
ROOT
ATOM      1  C   UNL     1       3.528   5.640  19.057  0.00  0.00    +0.000 C 
ATOM      2  C   UNL     1       2.785   6.759  19.073  0.00  0.00    +0.000 C 
ATOM      3  S   UNL     1       2.813   8.035  17.924  0.00  0.00    +0.000 S 
ATOM      4  C   UNL     1       1.637   8.994  18.810  0.00  0.00    +0.000 C 
ATOM      5  S   UNL     1       1.156  10.492  18.259  0.00  0.00    +0.000 S 
ATOM      6  N   UNL     1       1.240   8.321  19.950  0.00  0.00    +0.000 N 
ATOM      7  C   UNL     1       1.801   7.063  20.142  0.00  0.00    +0.000 C 
ATOM      8  O   UNL     1       1.551   6.290  21.057  0.00  0.00    +0.000 OA
ENDROOT
BRANCH   1  13
ATOM      9  C   UNL     1       6.497   5.983  16.773  0.00  0.00    +0.000 A 
ATOM     10  C   UNL     1       6.198   5.014  15.812  0.00  0.00    +0.000 A 
ATOM     11  C   UNL     1       5.069   4.204  15.947  0.00  0.00    +0.000 A 
ATOM     12  C   UNL     1       4.219   4.371  17.039  0.00  0.00    +0.000 A 
ATOM     13  C   UNL     1       4.499   5.350  17.996  0.00  0.00    +0.000 A 
ATOM     14  C   UNL     1       5.651   6.138  17.873  0.00  0.00    +0.000 A 
BRANCH   9  16
ATOM     15  C   UNL     1       7.884   7.799  17.412  0.00  0.00    +0.000 C 
ATOM     16  O   UNL     1       7.614   6.729  16.515  0.00  0.00    +0.000 OA
ENDBRANCH   9  16
ENDBRANCH   1  13
BRANCH   6  17
ATOM     17  C   UNL     1       0.221   8.807  20.905  0.00  0.00    +0.000 C 
BRANCH  17  18
ATOM     18  C   UNL     1       0.658  10.089  21.608  0.00  0.00    +0.000 C 
BRANCH  18  19
ATOM     19  C   UNL     1      -0.366  10.634  22.593  0.00  0.00    +0.000 C 
ATOM     20  O   UNL     1      -0.558  10.098  23.678  0.00  0.00    +0.000 OA
ATOM     21  N   UNL     1      -1.032  11.791  22.183  0.00  0.00    +0.000 N 
ATOM     22  C   UNL     1      -1.917  12.496  23.108  0.00  0.00    +0.000 C 
ATOM     23  C   UNL     1      -3.340  12.557  22.555  0.00  0.00    +0.000 C 
ATOM     24  C   UNL     1      -3.363  13.129  21.137  0.00  0.00    +0.000 C 
ATOM     25  C   UNL     1      -2.380  12.395  20.226  0.00  0.00    +0.000 C 
ATOM     26  C   UNL     1      -0.981  12.365  20.837  0.00  0.00    +0.000 C 
ENDBRANCH  18  19
ENDBRANCH  17  18
ENDBRANCH   6  17
TORSDOF 5
ENDMDL
MODEL 8
REMARK VINA RESULT:      -6.7      3.079      4.917
REMARK  Name = 
REMARK  6 active torsions:
REMARK  status: ('A' for Active; 'I' for Inactive)
REMARK    1  A    between atoms: C_1  and  O_2
REMARK    2  A    between atoms: O_2  and  C_3
REMARK    3  A    between atoms: C_7  and  C_8
REMARK    4  A    between atoms: N_13  and  C_14
REMARK    5  A    between atoms: C_14  and  C_15
REMARK    6  A    between atoms: C_15  and  C_16
REMARK                            x       y       z     vdW  Elec       q    Type
REMARK                         _______ _______ _______ _____ _____    ______ ____
ROOT
ATOM      1  C   UNL     1       2.871   7.008  17.997  0.00  0.00    +0.000 C 
ATOM      2  C   UNL     1       2.221   7.829  18.838  0.00  0.00    +0.000 C 
ATOM      3  S   UNL     1       1.825   7.525  20.481  0.00  0.00    +0.000 S 
ATOM      4  C   UNL     1       0.973   9.051  20.663  0.00  0.00    +0.000 C 
ATOM      5  S   UNL     1       0.245   9.464  22.104  0.00  0.00    +0.000 S 
ATOM      6  N   UNL     1       1.017   9.762  19.479  0.00  0.00    +0.000 N 
ATOM      7  C   UNL     1       1.724   9.170  18.438  0.00  0.00    +0.000 C 
ATOM      8  O   UNL     1       1.921   9.650  17.330  0.00  0.00    +0.000 OA
ENDROOT
BRANCH   1  13
ATOM      9  C   UNL     1       2.872   3.433  19.168  0.00  0.00    +0.000 A 
ATOM     10  C   UNL     1       4.226   3.257  19.463  0.00  0.00    +0.000 A 
ATOM     11  C   UNL     1       5.146   4.277  19.214  0.00  0.00    +0.000 A 
ATOM     12  C   UNL     1       4.712   5.491  18.683  0.00  0.00    +0.000 A 
ATOM     13  C   UNL     1       3.357   5.684  18.401  0.00  0.00    +0.000 A 
ATOM     14  C   UNL     1       2.443   4.644  18.623  0.00  0.00    +0.000 A 
BRANCH   9  16
ATOM     15  C   UNL     1       0.845   2.268  18.764  0.00  0.00    +0.000 C 
ATOM     16  O   UNL     1       2.068   2.371  19.482  0.00  0.00    +0.000 OA
ENDBRANCH   9  16
ENDBRANCH   1  13
BRANCH   6  17
ATOM     17  C   UNL     1       0.450  11.113  19.284  0.00  0.00    +0.000 C 
BRANCH  17  18
ATOM     18  C   UNL     1       1.513  12.129  18.876  0.00  0.00    +0.000 C 
BRANCH  18  19
ATOM     19  C   UNL     1       2.051  12.960  20.031  0.00  0.00    +0.000 C 
ATOM     20  O   UNL     1       1.686  12.764  21.185  0.00  0.00    +0.000 OA
ATOM     21  N   UNL     1       3.000  13.923  19.683  0.00  0.00    +0.000 N 
ATOM     22  C   UNL     1       3.705  14.670  20.723  0.00  0.00    +0.000 C 
ATOM     23  C   UNL     1       3.444  16.169  20.584  0.00  0.00    +0.000 C 
ATOM     24  C   UNL     1       3.753  16.660  19.168  0.00  0.00    +0.000 C 
ATOM     25  C   UNL     1       3.038  15.811  18.118  0.00  0.00    +0.000 C 
ATOM     26  C   UNL     1       3.334  14.326  18.315  0.00  0.00    +0.000 C 
ENDBRANCH  18  19
ENDBRANCH  17  18
ENDBRANCH   6  17
TORSDOF 5
ENDMDL
MODEL 9
REMARK VINA RESULT:      -6.7      3.179      4.694
REMARK  Name = 
REMARK  6 active torsions:
REMARK  status: ('A' for Active; 'I' for Inactive)
REMARK    1  A    between atoms: C_1  and  O_2
REMARK    2  A    between atoms: O_2  and  C_3
REMARK    3  A    between atoms: C_7  and  C_8
REMARK    4  A    between atoms: N_13  and  C_14
REMARK    5  A    between atoms: C_14  and  C_15
REMARK    6  A    between atoms: C_15  and  C_16
REMARK                            x       y       z     vdW  Elec       q    Type
REMARK                         _______ _______ _______ _____ _____    ______ ____
ROOT
ATOM      1  C   UNL     1       2.948   7.043  17.874  0.00  0.00    +0.000 C 
ATOM      2  C   UNL     1       2.282   7.804  18.758  0.00  0.00    +0.000 C 
ATOM      3  S   UNL     1       1.871   7.392  20.373  0.00  0.00    +0.000 S 
ATOM      4  C   UNL     1       1.004   8.896  20.643  0.00  0.00    +0.000 C 
ATOM      5  S   UNL     1       0.257   9.211  22.100  0.00  0.00    +0.000 S 
ATOM      6  N   UNL     1       1.056   9.683  19.508  0.00  0.00    +0.000 N 
ATOM      7  C   UNL     1       1.779   9.164  18.439  0.00  0.00    +0.000 C 
ATOM      8  O   UNL     1       1.984   9.715  17.367  0.00  0.00    +0.000 OA
ENDROOT
BRANCH   1  13
ATOM      9  C   UNL     1       2.974   3.350  18.593  0.00  0.00    +0.000 A 
ATOM     10  C   UNL     1       4.266   3.195  19.101  0.00  0.00    +0.000 A 
ATOM     11  C   UNL     1       5.148   4.275  19.143  0.00  0.00    +0.000 A 
ATOM     12  C   UNL     1       4.736   5.528  18.692  0.00  0.00    +0.000 A 
ATOM     13  C   UNL     1       3.440   5.700  18.198  0.00  0.00    +0.000 A 
ATOM     14  C   UNL     1       2.569   4.603  18.128  0.00  0.00    +0.000 A 
BRANCH   9  16
ATOM     15  C   UNL     1       0.797   2.425  18.780  0.00  0.00    +0.000 C 
ATOM     16  O   UNL     1       2.197   2.225  18.629  0.00  0.00    +0.000 OA
ENDBRANCH   9  16
ENDBRANCH   1  13
BRANCH   6  17
ATOM     17  C   UNL     1       0.480  11.040  19.394  0.00  0.00    +0.000 C 
BRANCH  17  18
ATOM     18  C   UNL     1       1.337  12.088  20.098  0.00  0.00    +0.000 C 
BRANCH  18  19
ATOM     19  C   UNL     1       1.951  13.116  19.160  0.00  0.00    +0.000 C 
ATOM     20  O   UNL     1       2.593  12.778  18.172  0.00  0.00    +0.000 OA
ATOM     21  N   UNL     1       1.700  14.450  19.489  0.00  0.00    +0.000 N 
ATOM     22  C   UNL     1       2.100  15.519  18.576  0.00  0.00    +0.000 C 
ATOM     23  C   UNL     1       3.085  16.470  19.256  0.00  0.00    +0.000 C 
ATOM     24  C   UNL     1       2.536  16.982  20.589  0.00  0.00    +0.000 C 
ATOM     25  C   UNL     1       2.081  15.828  21.481  0.00  0.00    +0.000 C 
ATOM     26  C   UNL     1       1.105  14.914  20.744  0.00  0.00    +0.000 C 
ENDBRANCH  18  19
ENDBRANCH  17  18
ENDBRANCH   6  17
TORSDOF 5
ENDMDL
