MODEL 1
REMARK VINA RESULT:      -7.5      0.000      0.000
REMARK  Name = 
REMARK  7 active torsions:
REMARK  status: ('A' for Active; 'I' for Inactive)
REMARK    1  A    between atoms: C_1  and  C_2
REMARK    2  A    between atoms: N_10  and  S_11
REMARK    3  A    between atoms: S_11  and  C_14
REMARK    4  A    between atoms: C_17  and  C_18
REMARK    5  A    between atoms: C_18  and  C_19
REMARK    6  A    between atoms: C_18  and  C_20
REMARK    7  A    between atoms: C_18  and  C_21
REMARK                            x       y       z     vdW  Elec       q    Type
REMARK                         _______ _______ _______ _____ _____    ______ ____
ROOT
ATOM      1  S   UNL     1       0.887  11.533  19.766  0.00  0.00    +0.000 S 
ATOM      2  O   UNL     1       1.362  12.181  18.561  0.00  0.00    +0.000 OA
ATOM      3  O   UNL     1       1.362  11.971  21.060  0.00  0.00    +0.000 OA
ENDROOT
BRANCH   1  13
ATOM      4  C   UNL     1      -1.112  13.934  20.677  0.00  0.00    +0.000 C 
ATOM      5  C   UNL     1      -1.614  12.502  20.584  0.00  0.00    +0.000 C 
ATOM      6  C   UNL     1      -3.041  12.484  19.974  0.00  0.00    +0.000 C 
ATOM      7  C   UNL     1      -2.884  11.647  18.746  0.00  0.00    +0.000 A 
ATOM      8  C   UNL     1      -3.880  11.328  17.830  0.00  0.00    +0.000 A 
ATOM      9  C   UNL     1      -3.572  10.441  16.800  0.00  0.00    +0.000 A 
ATOM     10  C   UNL     1      -2.297   9.863  16.726  0.00  0.00    +0.000 A 
ATOM     11  C   UNL     1      -1.305  10.196  17.656  0.00  0.00    +0.000 A 
ATOM     12  C   UNL     1      -1.596  11.133  18.634  0.00  0.00    +0.000 A 
ATOM     13  N   UNL     1      -0.797  11.586  19.722  0.00  0.00    +0.000 N 
ENDBRANCH   1  13
BRANCH   1  14
ATOM     14  C   UNL     1       1.322   9.803  19.643  0.00  0.00    +0.000 A 
ATOM     15  C   UNL     1       1.054   8.948  20.712  0.00  0.00    +0.000 A 
ATOM     16  C   UNL     1       1.420   7.598  20.640  0.00  0.00    +0.000 A 
ATOM     17  C   UNL     1       2.056   7.064  19.505  0.00  0.00    +0.000 A 
ATOM     18  C   UNL     1       2.226   7.929  18.404  0.00  0.00    +0.000 A 
ATOM     19  C   UNL     1       1.858   9.281  18.466  0.00  0.00    +0.000 A 
BRANCH  17  20
ATOM     20  C   UNL     1       2.586   5.617  19.461  0.00  0.00    +0.000 C 
ATOM     21  C   UNL     1       4.131   5.532  19.426  0.00  0.00    +0.000 C 
ATOM     22  C   UNL     1       2.109   4.812  20.689  0.00  0.00    +0.000 C 
ATOM     23  C   UNL     1       2.075   4.913  18.183  0.00  0.00    +0.000 C 
ENDBRANCH  17  20
ENDBRANCH   1  14
TORSDOF 3
ENDMDL
MODEL 2
REMARK VINA RESULT:      -7.5      5.938      8.595
REMARK  Name = 
REMARK  7 active torsions:
REMARK  status: ('A' for Active; 'I' for Inactive)
REMARK    1  A    between atoms: C_1  and  C_2
REMARK    2  A    between atoms: N_10  and  S_11
REMARK    3  A    between atoms: S_11  and  C_14
REMARK    4  A    between atoms: C_17  and  C_18
REMARK    5  A    between atoms: C_18  and  C_19
REMARK    6  A    between atoms: C_18  and  C_20
REMARK    7  A    between atoms: C_18  and  C_21
REMARK                            x       y       z     vdW  Elec       q    Type
REMARK                         _______ _______ _______ _____ _____    ______ ____
ROOT
ATOM      1  S   UNL     1       6.075   5.353  18.096  0.00  0.00    +0.000 S 
ATOM      2  O   UNL     1       6.479   6.744  18.075  0.00  0.00    +0.000 OA
ATOM      3  O   UNL     1       6.831   4.389  18.864  0.00  0.00    +0.000 OA
ENDROOT
BRANCH   1  13
ATOM      4  C   UNL     1       3.652   7.348  17.235  0.00  0.00    +0.000 C 
ATOM      5  C   UNL     1       3.558   6.519  18.506  0.00  0.00    +0.000 C 
ATOM      6  C   UNL     1       2.116   5.967  18.667  0.00  0.00    +0.000 C 
ATOM      7  C   UNL     1       2.310   4.486  18.687  0.00  0.00    +0.000 A 
ATOM      8  C   UNL     1       1.314   3.523  18.804  0.00  0.00    +0.000 A 
ATOM      9  C   UNL     1       1.696   2.186  18.914  0.00  0.00    +0.000 A 
ATOM     10  C   UNL     1       3.054   1.842  18.944  0.00  0.00    +0.000 A 
ATOM     11  C   UNL     1       4.044   2.824  18.823  0.00  0.00    +0.000 A 
ATOM     12  C   UNL     1       3.658   4.142  18.641  0.00  0.00    +0.000 A 
ATOM     13  N   UNL     1       4.456   5.319  18.562  0.00  0.00    +0.000 N 
ENDBRANCH   1  13
BRANCH   1  14
ATOM     14  C   UNL     1       6.107   4.768  16.407  0.00  0.00    +0.000 A 
ATOM     15  C   UNL     1       7.238   4.990  15.622  0.00  0.00    +0.000 A 
ATOM     16  C   UNL     1       7.262   4.567  14.287  0.00  0.00    +0.000 A 
ATOM     17  C   UNL     1       6.166   3.909  13.701  0.00  0.00    +0.000 A 
ATOM     18  C   UNL     1       5.076   3.612  14.544  0.00  0.00    +0.000 A 
ATOM     19  C   UNL     1       5.046   4.029  15.884  0.00  0.00    +0.000 A 
BRANCH  17  20
ATOM     20  C   UNL     1       6.122   3.556  12.200  0.00  0.00    +0.000 C 
ATOM     21  C   UNL     1       6.611   2.121  11.895  0.00  0.00    +0.000 C 
ATOM     22  C   UNL     1       4.689   3.683  11.641  0.00  0.00    +0.000 C 
ATOM     23  C   UNL     1       7.043   4.517  11.413  0.00  0.00    +0.000 C 
ENDBRANCH  17  20
ENDBRANCH   1  14
TORSDOF 3
ENDMDL
MODEL 3
REMARK VINA RESULT:      -7.5      5.981      8.585
REMARK  Name = 
REMARK  7 active torsions:
REMARK  status: ('A' for Active; 'I' for Inactive)
REMARK    1  A    between atoms: C_1  and  C_2
REMARK    2  A    between atoms: N_10  and  S_11
REMARK    3  A    between atoms: S_11  and  C_14
REMARK    4  A    between atoms: C_17  and  C_18
REMARK    5  A    between atoms: C_18  and  C_19
REMARK    6  A    between atoms: C_18  and  C_20
REMARK    7  A    between atoms: C_18  and  C_21
REMARK                            x       y       z     vdW  Elec       q    Type
REMARK                         _______ _______ _______ _____ _____    ______ ____
ROOT
ATOM      1  S   UNL     1       6.115   5.268  18.036  0.00  0.00    +0.000 S 
ATOM      2  O   UNL     1       6.569   6.642  18.109  0.00  0.00    +0.000 OA
ATOM      3  O   UNL     1       6.858   4.222  18.703  0.00  0.00    +0.000 OA
ENDROOT
BRANCH   1  13
ATOM      4  C   UNL     1       3.730   7.379  17.371  0.00  0.00    +0.000 C 
ATOM      5  C   UNL     1       3.649   6.480  18.594  0.00  0.00    +0.000 C 
ATOM      6  C   UNL     1       2.196   5.961  18.770  0.00  0.00    +0.000 C 
ATOM      7  C   UNL     1       2.345   4.477  18.697  0.00  0.00    +0.000 A 
ATOM      8  C   UNL     1       1.324   3.538  18.791  0.00  0.00    +0.000 A 
ATOM      9  C   UNL     1       1.668   2.187  18.811  0.00  0.00    +0.000 A 
ATOM     10  C   UNL     1       3.014   1.803  18.776  0.00  0.00    +0.000 A 
ATOM     11  C   UNL     1       4.031   2.761  18.681  0.00  0.00    +0.000 A 
ATOM     12  C   UNL     1       3.680   4.098  18.588  0.00  0.00    +0.000 A 
ATOM     13  N   UNL     1       4.510   5.253  18.551  0.00  0.00    +0.000 N 
ENDBRANCH   1  13
BRANCH   1  14
ATOM     14  C   UNL     1       6.074   4.816  16.307  0.00  0.00    +0.000 A 
ATOM     15  C   UNL     1       4.892   4.325  15.751  0.00  0.00    +0.000 A 
ATOM     16  C   UNL     1       4.857   3.936  14.406  0.00  0.00    +0.000 A 
ATOM     17  C   UNL     1       5.991   4.030  13.580  0.00  0.00    +0.000 A 
ATOM     18  C   UNL     1       7.142   4.619  14.142  0.00  0.00    +0.000 A 
ATOM     19  C   UNL     1       7.185   5.016  15.488  0.00  0.00    +0.000 A 
BRANCH  17  20
ATOM     20  C   UNL     1       6.009   3.482  12.138  0.00  0.00    +0.000 C 
ATOM     21  C   UNL     1       6.451   2.002  12.052  0.00  0.00    +0.000 C 
ATOM     22  C   UNL     1       4.613   3.585  11.488  0.00  0.00    +0.000 C 
ATOM     23  C   UNL     1       7.010   4.295  11.285  0.00  0.00    +0.000 C 
ENDBRANCH  17  20
ENDBRANCH   1  14
TORSDOF 3
ENDMDL
MODEL 4
REMARK VINA RESULT:      -7.4      0.267      1.037
REMARK  Name = 
REMARK  7 active torsions:
REMARK  status: ('A' for Active; 'I' for Inactive)
REMARK    1  A    between atoms: C_1  and  C_2
REMARK    2  A    between atoms: N_10  and  S_11
REMARK    3  A    between atoms: S_11  and  C_14
REMARK    4  A    between atoms: C_17  and  C_18
REMARK    5  A    between atoms: C_18  and  C_19
REMARK    6  A    between atoms: C_18  and  C_20
REMARK    7  A    between atoms: C_18  and  C_21
REMARK                            x       y       z     vdW  Elec       q    Type
REMARK                         _______ _______ _______ _____ _____    ______ ____
ROOT
ATOM      1  S   UNL     1       0.800  11.461  19.784  0.00  0.00    +0.000 S 
ATOM      2  O   UNL     1       1.302  12.100  18.585  0.00  0.00    +0.000 OA
ATOM      3  O   UNL     1       1.212  11.936  21.086  0.00  0.00    +0.000 OA
ENDROOT
BRANCH   1  13
ATOM      4  C   UNL     1      -1.312  13.752  20.721  0.00  0.00    +0.000 C 
ATOM      5  C   UNL     1      -1.761  12.311  20.544  0.00  0.00    +0.000 C 
ATOM      6  C   UNL     1      -3.163  12.276  19.876  0.00  0.00    +0.000 C 
ATOM      7  C   UNL     1      -2.931  11.502  18.620  0.00  0.00    +0.000 A 
ATOM      8  C   UNL     1      -3.879  11.195  17.651  0.00  0.00    +0.000 A 
ATOM      9  C   UNL     1      -3.502  10.366  16.595  0.00  0.00    +0.000 A 
ATOM     10  C   UNL     1      -2.207   9.833  16.547  0.00  0.00    +0.000 A 
ATOM     11  C   UNL     1      -1.263  10.154  17.530  0.00  0.00    +0.000 A 
ATOM     12  C   UNL     1      -1.622  11.035  18.536  0.00  0.00    +0.000 A 
ATOM     13  N   UNL     1      -0.882  11.462  19.675  0.00  0.00    +0.000 N 
ENDBRANCH   1  13
BRANCH   1  14
ATOM     14  C   UNL     1       1.289   9.743  19.710  0.00  0.00    +0.000 A 
ATOM     15  C   UNL     1       1.887   9.246  18.551  0.00  0.00    +0.000 A 
ATOM     16  C   UNL     1       2.244   7.894  18.469  0.00  0.00    +0.000 A 
ATOM     17  C   UNL     1       2.021   7.005  19.536  0.00  0.00    +0.000 A 
ATOM     18  C   UNL     1       1.506   7.555  20.727  0.00  0.00    +0.000 A 
ATOM     19  C   UNL     1       1.150   8.909  20.820  0.00  0.00    +0.000 A 
BRANCH  17  20
ATOM     20  C   UNL     1       2.282   5.490  19.415  0.00  0.00    +0.000 C 
ATOM     21  C   UNL     1       3.764   5.106  19.639  0.00  0.00    +0.000 C 
ATOM     22  C   UNL     1       1.441   4.697  20.437  0.00  0.00    +0.000 C 
ATOM     23  C   UNL     1       1.910   5.009  17.993  0.00  0.00    +0.000 C 
ENDBRANCH  17  20
ENDBRANCH   1  14
TORSDOF 3
ENDMDL
MODEL 5
REMARK VINA RESULT:      -7.3      5.918      8.598
REMARK  Name = 
REMARK  7 active torsions:
REMARK  status: ('A' for Active; 'I' for Inactive)
REMARK    1  A    between atoms: C_1  and  C_2
REMARK    2  A    between atoms: N_10  and  S_11
REMARK    3  A    between atoms: S_11  and  C_14
REMARK    4  A    between atoms: C_17  and  C_18
REMARK    5  A    between atoms: C_18  and  C_19
REMARK    6  A    between atoms: C_18  and  C_20
REMARK    7  A    between atoms: C_18  and  C_21
REMARK                            x       y       z     vdW  Elec       q    Type
REMARK                         _______ _______ _______ _____ _____    ______ ____
ROOT
ATOM      1  S   UNL     1       6.383   5.450  18.031  0.00  0.00    +0.000 S 
ATOM      2  O   UNL     1       6.961   6.778  17.980  0.00  0.00    +0.000 OA
ATOM      3  O   UNL     1       7.013   4.414  18.818  0.00  0.00    +0.000 OA
ENDROOT
BRANCH   1  13
ATOM      4  C   UNL     1       4.041   7.250  16.663  0.00  0.00    +0.000 C 
ATOM      5  C   UNL     1       3.935   6.815  18.116  0.00  0.00    +0.000 C 
ATOM      6  C   UNL     1       2.471   6.406  18.436  0.00  0.00    +0.000 C 
ATOM      7  C   UNL     1       2.594   4.981  18.868  0.00  0.00    +0.000 A 
ATOM      8  C   UNL     1       1.555   4.144  19.257  0.00  0.00    +0.000 A 
ATOM      9  C   UNL     1       1.874   2.873  19.735  0.00  0.00    +0.000 A 
ATOM     10  C   UNL     1       3.214   2.480  19.849  0.00  0.00    +0.000 A 
ATOM     11  C   UNL     1       4.248   3.336  19.451  0.00  0.00    +0.000 A 
ATOM     12  C   UNL     1       3.922   4.569  18.910  0.00  0.00    +0.000 A 
ATOM     13  N   UNL     1       4.774   5.633  18.499  0.00  0.00    +0.000 N 
ENDBRANCH   1  13
BRANCH   1  14
ATOM     14  C   UNL     1       6.333   4.832  16.354  0.00  0.00    +0.000 A 
ATOM     15  C   UNL     1       7.323   5.214  15.449  0.00  0.00    +0.000 A 
ATOM     16  C   UNL     1       7.276   4.763  14.123  0.00  0.00    +0.000 A 
ATOM     17  C   UNL     1       6.248   3.918  13.667  0.00  0.00    +0.000 A 
ATOM     18  C   UNL     1       5.317   3.471  14.626  0.00  0.00    +0.000 A 
ATOM     19  C   UNL     1       5.360   3.915  15.957  0.00  0.00    +0.000 A 
BRANCH  17  20
ATOM     20  C   UNL     1       6.106   3.522  12.183  0.00  0.00    +0.000 C 
ATOM     21  C   UNL     1       6.936   4.413  11.230  0.00  0.00    +0.000 C 
ATOM     22  C   UNL     1       6.550   2.062  11.953  0.00  0.00    +0.000 C 
ATOM     23  C   UNL     1       4.629   3.661  11.747  0.00  0.00    +0.000 C 
ENDBRANCH  17  20
ENDBRANCH   1  14
TORSDOF 3
ENDMDL
MODEL 6
REMARK VINA RESULT:      -7.2      3.345      7.748
REMARK  Name = 
REMARK  7 active torsions:
REMARK  status: ('A' for Active; 'I' for Inactive)
REMARK    1  A    between atoms: C_1  and  C_2
REMARK    2  A    between atoms: N_10  and  S_11
REMARK    3  A    between atoms: S_11  and  C_14
REMARK    4  A    between atoms: C_17  and  C_18
REMARK    5  A    between atoms: C_18  and  C_19
REMARK    6  A    between atoms: C_18  and  C_20
REMARK    7  A    between atoms: C_18  and  C_21
REMARK                            x       y       z     vdW  Elec       q    Type
REMARK                         _______ _______ _______ _____ _____    ______ ____
ROOT
ATOM      1  S   UNL     1       3.953   6.278  18.217  0.00  0.00    +0.000 S 
ATOM      2  O   UNL     1       4.868   6.194  19.336  0.00  0.00    +0.000 OA
ATOM      3  O   UNL     1       4.446   6.609  16.899  0.00  0.00    +0.000 OA
ENDROOT
BRANCH   1  13
ATOM      4  C   UNL     1       4.547   3.624  16.430  0.00  0.00    +0.000 C 
ATOM      5  C   UNL     1       3.161   3.879  17.000  0.00  0.00    +0.000 C 
ATOM      6  C   UNL     1       2.551   2.547  17.515  0.00  0.00    +0.000 C 
ATOM      7  C   UNL     1       2.306   2.813  18.964  0.00  0.00    +0.000 A 
ATOM      8  C   UNL     1       1.771   1.923  19.889  0.00  0.00    +0.000 A 
ATOM      9  C   UNL     1       1.512   2.386  21.179  0.00  0.00    +0.000 A 
ATOM     10  C   UNL     1       1.754   3.726  21.507  0.00  0.00    +0.000 A 
ATOM     11  C   UNL     1       2.294   4.609  20.564  0.00  0.00    +0.000 A 
ATOM     12  C   UNL     1       2.616   4.126  19.307  0.00  0.00    +0.000 A 
ATOM     13  N   UNL     1       3.106   4.821  18.165  0.00  0.00    +0.000 N 
ENDBRANCH   1  13
BRANCH   1  14
ATOM     14  C   UNL     1       2.741   7.530  18.617  0.00  0.00    +0.000 A 
ATOM     15  C   UNL     1       2.300   8.405  17.623  0.00  0.00    +0.000 A 
ATOM     16  C   UNL     1       1.377   9.411  17.932  0.00  0.00    +0.000 A 
ATOM     17  C   UNL     1       0.866   9.571  19.233  0.00  0.00    +0.000 A 
ATOM     18  C   UNL     1       1.255   8.614  20.192  0.00  0.00    +0.000 A 
ATOM     19  C   UNL     1       2.176   7.600  19.890  0.00  0.00    +0.000 A 
BRANCH  17  20
ATOM     20  C   UNL     1      -0.045  10.753  19.621  0.00  0.00    +0.000 C 
ATOM     21  C   UNL     1      -0.405  10.779  21.126  0.00  0.00    +0.000 C 
ATOM     22  C   UNL     1       0.621  12.103  19.284  0.00  0.00    +0.000 C 
ATOM     23  C   UNL     1      -1.381  10.657  18.848  0.00  0.00    +0.000 C 
ENDBRANCH  17  20
ENDBRANCH   1  14
TORSDOF 3
ENDMDL
MODEL 7
REMARK VINA RESULT:      -7.2      3.377      7.707
REMARK  Name = 
REMARK  7 active torsions:
REMARK  status: ('A' for Active; 'I' for Inactive)
REMARK    1  A    between atoms: C_1  and  C_2
REMARK    2  A    between atoms: N_10  and  S_11
REMARK    3  A    between atoms: S_11  and  C_14
REMARK    4  A    between atoms: C_17  and  C_18
REMARK    5  A    between atoms: C_18  and  C_19
REMARK    6  A    between atoms: C_18  and  C_20
REMARK    7  A    between atoms: C_18  and  C_21
REMARK                            x       y       z     vdW  Elec       q    Type
REMARK                         _______ _______ _______ _____ _____    ______ ____
ROOT
ATOM      1  S   UNL     1       3.973   6.167  18.195  0.00  0.00    +0.000 S 
ATOM      2  O   UNL     1       4.895   6.102  19.310  0.00  0.00    +0.000 OA
ATOM      3  O   UNL     1       4.465   6.415  16.859  0.00  0.00    +0.000 OA
ENDROOT
BRANCH   1  13
ATOM      4  C   UNL     1       4.353   3.464  16.423  0.00  0.00    +0.000 C 
ATOM      5  C   UNL     1       3.016   3.782  17.073  0.00  0.00    +0.000 C 
ATOM      6  C   UNL     1       2.388   2.483  17.648  0.00  0.00    +0.000 C 
ATOM      7  C   UNL     1       2.245   2.781  19.105  0.00  0.00    +0.000 A 
ATOM      8  C   UNL     1       1.735   1.928  20.076  0.00  0.00    +0.000 A 
ATOM      9  C   UNL     1       1.575   2.420  21.371  0.00  0.00    +0.000 A 
ATOM     10  C   UNL     1       1.887   3.755  21.660  0.00  0.00    +0.000 A 
ATOM     11  C   UNL     1       2.401   4.601  20.670  0.00  0.00    +0.000 A 
ATOM     12  C   UNL     1       2.626   4.086  19.404  0.00  0.00    +0.000 A 
ATOM     13  N   UNL     1       3.069   4.744  18.222  0.00  0.00    +0.000 N 
ENDBRANCH   1  13
BRANCH   1  14
ATOM     14  C   UNL     1       2.815   7.484  18.544  0.00  0.00    +0.000 A 
ATOM     15  C   UNL     1       2.241   7.579  19.812  0.00  0.00    +0.000 A 
ATOM     16  C   UNL     1       1.307   8.586  20.087  0.00  0.00    +0.000 A 
ATOM     17  C   UNL     1       0.924   9.525  19.112  0.00  0.00    +0.000 A 
ATOM     18  C   UNL     1       1.592   9.464  17.872  0.00  0.00    +0.000 A 
ATOM     19  C   UNL     1       2.532   8.461  17.590  0.00  0.00    +0.000 A 
BRANCH  17  20
ATOM     20  C   UNL     1      -0.198  10.554  19.355  0.00  0.00    +0.000 C 
ATOM     21  C   UNL     1      -1.462  10.293  18.501  0.00  0.00    +0.000 C 
ATOM     22  C   UNL     1      -0.636  10.561  20.835  0.00  0.00    +0.000 C 
ATOM     23  C   UNL     1       0.304  11.969  18.984  0.00  0.00    +0.000 C 
ENDBRANCH  17  20
ENDBRANCH   1  14
TORSDOF 3
ENDMDL
MODEL 8
REMARK VINA RESULT:      -7.2      4.707      8.452
REMARK  Name = 
REMARK  7 active torsions:
REMARK  status: ('A' for Active; 'I' for Inactive)
REMARK    1  A    between atoms: C_1  and  C_2
REMARK    2  A    between atoms: N_10  and  S_11
REMARK    3  A    between atoms: S_11  and  C_14
REMARK    4  A    between atoms: C_17  and  C_18
REMARK    5  A    between atoms: C_18  and  C_19
REMARK    6  A    between atoms: C_18  and  C_20
REMARK    7  A    between atoms: C_18  and  C_21
REMARK                            x       y       z     vdW  Elec       q    Type
REMARK                         _______ _______ _______ _____ _____    ______ ____
ROOT
ATOM      1  S   UNL     1       3.963   4.325  18.279  0.00  0.00    +0.000 S 
ATOM      2  O   UNL     1       3.112   3.699  17.288  0.00  0.00    +0.000 OA
ATOM      3  O   UNL     1       4.540   3.535  19.344  0.00  0.00    +0.000 OA
ENDROOT
BRANCH   1  13
ATOM      4  C   UNL     1       6.819   5.434  19.374  0.00  0.00    +0.000 C 
ATOM      5  C   UNL     1       6.200   6.007  18.110  0.00  0.00    +0.000 C 
ATOM      6  C   UNL     1       7.305   6.245  17.045  0.00  0.00    +0.000 C 
ATOM      7  C   UNL     1       6.871   5.394  15.896  0.00  0.00    +0.000 A 
ATOM      8  C   UNL     1       7.531   5.245  14.683  0.00  0.00    +0.000 A 
ATOM      9  C   UNL     1       6.917   4.490  13.683  0.00  0.00    +0.000 A 
ATOM     10  C   UNL     1       5.649   3.936  13.900  0.00  0.00    +0.000 A 
ATOM     11  C   UNL     1       4.998   4.095  15.129  0.00  0.00    +0.000 A 
ATOM     12  C   UNL     1       5.645   4.783  16.142  0.00  0.00    +0.000 A 
ATOM     13  N   UNL     1       5.179   5.137  17.440  0.00  0.00    +0.000 N 
ENDBRANCH   1  13
BRANCH   1  14
ATOM     14  C   UNL     1       2.994   5.596  19.080  0.00  0.00    +0.000 A 
ATOM     15  C   UNL     1       2.870   6.849  18.479  0.00  0.00    +0.000 A 
ATOM     16  C   UNL     1       2.142   7.864  19.114  0.00  0.00    +0.000 A 
ATOM     17  C   UNL     1       1.517   7.658  20.356  0.00  0.00    +0.000 A 
ATOM     18  C   UNL     1       1.578   6.355  20.893  0.00  0.00    +0.000 A 
ATOM     19  C   UNL     1       2.301   5.332  20.261  0.00  0.00    +0.000 A 
BRANCH  17  20
ATOM     20  C   UNL     1       0.827   8.799  21.132  0.00  0.00    +0.000 C 
ATOM     21  C   UNL     1      -0.594   8.432  21.623  0.00  0.00    +0.000 C 
ATOM     22  C   UNL     1       1.652   9.208  22.370  0.00  0.00    +0.000 C 
ATOM     23  C   UNL     1       0.674  10.033  20.213  0.00  0.00    +0.000 C 
ENDBRANCH  17  20
ENDBRANCH   1  14
TORSDOF 3
ENDMDL
MODEL 9
REMARK VINA RESULT:      -7.0      4.709      8.402
REMARK  Name = 
REMARK  7 active torsions:
REMARK  status: ('A' for Active; 'I' for Inactive)
REMARK    1  A    between atoms: C_1  and  C_2
REMARK    2  A    between atoms: N_10  and  S_11
REMARK    3  A    between atoms: S_11  and  C_14
REMARK    4  A    between atoms: C_17  and  C_18
REMARK    5  A    between atoms: C_18  and  C_19
REMARK    6  A    between atoms: C_18  and  C_20
REMARK    7  A    between atoms: C_18  and  C_21
REMARK                            x       y       z     vdW  Elec       q    Type
REMARK                         _______ _______ _______ _____ _____    ______ ____
ROOT
ATOM      1  S   UNL     1       3.776   4.399  18.040  0.00  0.00    +0.000 S 
ATOM      2  O   UNL     1       2.860   3.931  17.021  0.00  0.00    +0.000 OA
ATOM      3  O   UNL     1       4.276   3.484  19.042  0.00  0.00    +0.000 OA
ENDROOT
BRANCH   1  13
ATOM      4  C   UNL     1       6.632   5.395  19.240  0.00  0.00    +0.000 C 
ATOM      5  C   UNL     1       6.095   5.973  17.940  0.00  0.00    +0.000 C 
ATOM      6  C   UNL     1       7.254   6.140  16.920  0.00  0.00    +0.000 C 
ATOM      7  C   UNL     1       6.830   5.289  15.768  0.00  0.00    +0.000 A 
ATOM      8  C   UNL     1       7.534   5.087  14.587  0.00  0.00    +0.000 A 
ATOM      9  C   UNL     1       6.928   4.344  13.574  0.00  0.00    +0.000 A 
ATOM     10  C   UNL     1       5.627   3.852  13.745  0.00  0.00    +0.000 A 
ATOM     11  C   UNL     1       4.932   4.063  14.942  0.00  0.00    +0.000 A 
ATOM     12  C   UNL     1       5.567   4.740  15.970  0.00  0.00    +0.000 A 
ATOM     13  N   UNL     1       5.063   5.138  17.241  0.00  0.00    +0.000 N 
ENDBRANCH   1  13
BRANCH   1  14
ATOM     14  C   UNL     1       2.947   5.705  18.937  0.00  0.00    +0.000 A 
ATOM     15  C   UNL     1       2.487   5.466  20.232  0.00  0.00    +0.000 A 
ATOM     16  C   UNL     1       1.806   6.471  20.932  0.00  0.00    +0.000 A 
ATOM     17  C   UNL     1       1.570   7.736  20.365  0.00  0.00    +0.000 A 
ATOM     18  C   UNL     1       2.131   7.980  19.095  0.00  0.00    +0.000 A 
ATOM     19  C   UNL     1       2.818   6.981  18.388  0.00  0.00    +0.000 A 
BRANCH  17  20
ATOM     20  C   UNL     1       0.708   8.806  21.066  0.00  0.00    +0.000 C 
ATOM     21  C   UNL     1       1.363   9.376  22.346  0.00  0.00    +0.000 C 
ATOM     22  C   UNL     1       0.424   9.995  20.124  0.00  0.00    +0.000 C 
ATOM     23  C   UNL     1      -0.642   8.186  21.496  0.00  0.00    +0.000 C 
ENDBRANCH  17  20
ENDBRANCH   1  14
TORSDOF 3
ENDMDL
