MODEL 1
REMARK VINA RESULT:      -8.1      0.000      0.000
REMARK  Name = 
REMARK  6 active torsions:
REMARK  status: ('A' for Active; 'I' for Inactive)
REMARK    1  A    between atoms: C_1  and  O_2
REMARK    2  A    between atoms: O_2  and  C_3
REMARK    3  A    between atoms: C_6  and  C_7
REMARK    4  A    between atoms: N_11  and  C_12
REMARK    5  A    between atoms: C_23  and  O_24
REMARK    6  A    between atoms: O_24  and  C_25
REMARK                            x       y       z     vdW  Elec       q    Type
REMARK                         _______ _______ _______ _____ _____    ______ ____
ROOT
ATOM      1  C   UNL     1       2.787   7.407  18.394  0.00  0.00    +0.000 A 
ATOM      2  C   UNL     1       2.118   7.515  19.590  0.00  0.00    +0.000 A 
ATOM      3  N   UNL     1       1.377   8.658  19.609  0.00  0.00    +0.000 NA
ATOM      4  C   UNL     1       1.604   9.215  18.441  0.00  0.00    +0.000 A 
ATOM      5  N   UNL     1       1.067  10.313  17.873  0.00  0.00    +0.000 N 
ATOM      6  O   UNL     1       2.486   8.521  17.656  0.00  0.00    +0.000 OA
ATOM      7  H   UNL     1       1.384  10.531  16.942  0.00  0.00    +0.000 HD
ENDROOT
BRANCH   5   8
ATOM      8  C   UNL     1      -0.171  10.885  18.236  0.00  0.00    +0.000 A 
ATOM      9  C   UNL     1      -0.281  11.950  19.146  0.00  0.00    +0.000 A 
ATOM     10  C   UNL     1      -1.508  12.477  19.558  0.00  0.00    +0.000 A 
ATOM     11  C   UNL     1      -2.649  11.902  19.006  0.00  0.00    +0.000 A 
ATOM     12  N   UNL     1      -3.979  12.172  19.188  0.00  0.00    +0.000 N 
ATOM     13  N   UNL     1      -4.799  11.384  18.478  0.00  0.00    +0.000 NA
ATOM     14  C   UNL     1      -3.959  10.586  17.811  0.00  0.00    +0.000 A 
ATOM     15  C   UNL     1      -2.604  10.863  18.090  0.00  0.00    +0.000 A 
ATOM     16  C   UNL     1      -1.354  10.349  17.688  0.00  0.00    +0.000 A 
ATOM     17  H   UNL     1      -4.384  12.884  19.788  0.00  0.00    +0.000 HD
ENDBRANCH   5   8
BRANCH   1  21
ATOM     18  C   UNL     1       5.432   4.619  16.541  0.00  0.00    +0.000 A 
ATOM     19  C   UNL     1       4.167   4.205  16.991  0.00  0.00    +0.000 A 
ATOM     20  C   UNL     1       3.289   5.105  17.599  0.00  0.00    +0.000 A 
ATOM     21  C   UNL     1       3.683   6.421  17.821  0.00  0.00    +0.000 A 
ATOM     22  C   UNL     1       4.987   6.796  17.473  0.00  0.00    +0.000 A 
ATOM     23  C   UNL     1       5.870   5.915  16.835  0.00  0.00    +0.000 A 
BRANCH  18  25
ATOM     24  C   UNL     1       6.207   3.903  14.426  0.00  0.00    +0.000 C 
ATOM     25  O   UNL     1       6.242   3.762  15.847  0.00  0.00    +0.000 OA
ENDBRANCH  18  25
BRANCH  23  26
ATOM     26  O   UNL     1       7.069   6.516  16.573  0.00  0.00    +0.000 OA
ATOM     27  C   UNL     1       7.554   7.516  17.450  0.00  0.00    +0.000 C 
ENDBRANCH  23  26
ENDBRANCH   1  21
TORSDOF 4
ENDMDL
MODEL 2
REMARK VINA RESULT:      -8.1      0.496      1.449
REMARK  Name = 
REMARK  6 active torsions:
REMARK  status: ('A' for Active; 'I' for Inactive)
REMARK    1  A    between atoms: C_1  and  O_2
REMARK    2  A    between atoms: O_2  and  C_3
REMARK    3  A    between atoms: C_6  and  C_7
REMARK    4  A    between atoms: N_11  and  C_12
REMARK    5  A    between atoms: C_23  and  O_24
REMARK    6  A    between atoms: O_24  and  C_25
REMARK                            x       y       z     vdW  Elec       q    Type
REMARK                         _______ _______ _______ _____ _____    ______ ____
ROOT
ATOM      1  C   UNL     1       2.857   7.345  18.345  0.00  0.00    +0.000 A 
ATOM      2  C   UNL     1       2.230   7.444  19.564  0.00  0.00    +0.000 A 
ATOM      3  N   UNL     1       1.428   8.545  19.588  0.00  0.00    +0.000 NA
ATOM      4  C   UNL     1       1.577   9.085  18.399  0.00  0.00    +0.000 A 
ATOM      5  N   UNL     1       0.958  10.138  17.830  0.00  0.00    +0.000 N 
ATOM      6  O   UNL     1       2.466   8.423  17.596  0.00  0.00    +0.000 OA
ATOM      7  H   UNL     1       1.227  10.352  16.882  0.00  0.00    +0.000 HD
ENDROOT
BRANCH   5   8
ATOM      8  C   UNL     1      -0.295  10.650  18.230  0.00  0.00    +0.000 A 
ATOM      9  C   UNL     1      -1.508  10.220  17.667  0.00  0.00    +0.000 A 
ATOM     10  C   UNL     1      -2.746  10.769  18.014  0.00  0.00    +0.000 A 
ATOM     11  C   UNL     1      -2.733  11.774  18.976  0.00  0.00    +0.000 A 
ATOM     12  N   UNL     1      -3.746  12.510  19.533  0.00  0.00    +0.000 N 
ATOM     13  N   UNL     1      -3.334  13.411  20.435  0.00  0.00    +0.000 NA
ATOM     14  C   UNL     1      -2.008  13.239  20.462  0.00  0.00    +0.000 A 
ATOM     15  C   UNL     1      -1.571  12.228  19.580  0.00  0.00    +0.000 A 
ATOM     16  C   UNL     1      -0.334  11.657  19.215  0.00  0.00    +0.000 A 
ATOM     17  H   UNL     1      -4.738  12.439  19.331  0.00  0.00    +0.000 HD
ENDBRANCH   5   8
BRANCH   1  21
ATOM     18  C   UNL     1       5.590   4.670  16.454  0.00  0.00    +0.000 A 
ATOM     19  C   UNL     1       4.335   4.212  16.888  0.00  0.00    +0.000 A 
ATOM     20  C   UNL     1       3.429   5.074  17.508  0.00  0.00    +0.000 A 
ATOM     21  C   UNL     1       3.783   6.396  17.759  0.00  0.00    +0.000 A 
ATOM     22  C   UNL     1       5.079   6.815  17.426  0.00  0.00    +0.000 A 
ATOM     23  C   UNL     1       5.990   5.972  16.776  0.00  0.00    +0.000 A 
BRANCH  18  25
ATOM     24  C   UNL     1       6.303   3.923  14.327  0.00  0.00    +0.000 C 
ATOM     25  O   UNL     1       6.429   3.850  15.749  0.00  0.00    +0.000 OA
ENDBRANCH  18  25
BRANCH  23  26
ATOM     26  O   UNL     1       7.173   6.612  16.533  0.00  0.00    +0.000 OA
ATOM     27  C   UNL     1       7.625   7.606  17.434  0.00  0.00    +0.000 C 
ENDBRANCH  23  26
ENDBRANCH   1  21
TORSDOF 4
ENDMDL
MODEL 3
REMARK VINA RESULT:      -7.9      6.047      8.888
REMARK  Name = 
REMARK  6 active torsions:
REMARK  status: ('A' for Active; 'I' for Inactive)
REMARK    1  A    between atoms: C_1  and  O_2
REMARK    2  A    between atoms: O_2  and  C_3
REMARK    3  A    between atoms: C_6  and  C_7
REMARK    4  A    between atoms: N_11  and  C_12
REMARK    5  A    between atoms: C_23  and  O_24
REMARK    6  A    between atoms: O_24  and  C_25
REMARK                            x       y       z     vdW  Elec       q    Type
REMARK                         _______ _______ _______ _____ _____    ______ ____
ROOT
ATOM      1  C   UNL     1       6.504   6.335  18.093  0.00  0.00    +0.000 A 
ATOM      2  C   UNL     1       7.657   6.087  18.799  0.00  0.00    +0.000 A 
ATOM      3  N   UNL     1       8.491   7.163  18.725  0.00  0.00    +0.000 NA
ATOM      4  C   UNL     1       7.838   8.033  17.988  0.00  0.00    +0.000 A 
ATOM      5  N   UNL     1       8.137   9.306  17.661  0.00  0.00    +0.000 N 
ATOM      6  O   UNL     1       6.627   7.581  17.536  0.00  0.00    +0.000 OA
ATOM      7  H   UNL     1       7.457   9.791  17.097  0.00  0.00    +0.000 HD
ENDROOT
BRANCH   5   8
ATOM      8  C   UNL     1       9.024  10.136  18.380  0.00  0.00    +0.000 A 
ATOM      9  C   UNL     1       8.999  10.245  19.781  0.00  0.00    +0.000 A 
ATOM     10  C   UNL     1       9.832  11.113  20.492  0.00  0.00    +0.000 A 
ATOM     11  C   UNL     1      10.723  11.875  19.742  0.00  0.00    +0.000 A 
ATOM     12  N   UNL     1      11.659  12.804  20.114  0.00  0.00    +0.000 N 
ATOM     13  N   UNL     1      12.331  13.343  19.087  0.00  0.00    +0.000 NA
ATOM     14  C   UNL     1      11.809  12.730  18.019  0.00  0.00    +0.000 A 
ATOM     15  C   UNL     1      10.807  11.797  18.360  0.00  0.00    +0.000 A 
ATOM     16  C   UNL     1       9.958  10.912  17.665  0.00  0.00    +0.000 A 
ATOM     17  H   UNL     1      11.880  13.108  21.057  0.00  0.00    +0.000 HD
ENDBRANCH   5   8
BRANCH   1  21
ATOM     18  C   UNL     1       2.938   4.058  17.546  0.00  0.00    +0.000 A 
ATOM     19  C   UNL     1       4.057   3.832  16.727  0.00  0.00    +0.000 A 
ATOM     20  C   UNL     1       5.231   4.567  16.893  0.00  0.00    +0.000 A 
ATOM     21  C   UNL     1       5.290   5.584  17.842  0.00  0.00    +0.000 A 
ATOM     22  C   UNL     1       4.133   5.879  18.576  0.00  0.00    +0.000 A 
ATOM     23  C   UNL     1       2.956   5.132  18.443  0.00  0.00    +0.000 A 
BRANCH  18  25
ATOM     24  C   UNL     1       1.732   2.232  18.440  0.00  0.00    +0.000 C 
ATOM     25  O   UNL     1       1.830   3.261  17.453  0.00  0.00    +0.000 OA
ENDBRANCH  18  25
BRANCH  23  26
ATOM     26  O   UNL     1       1.978   5.593  19.280  0.00  0.00    +0.000 OA
ATOM     27  C   UNL     1       1.959   5.167  20.630  0.00  0.00    +0.000 C 
ENDBRANCH  23  26
ENDBRANCH   1  21
TORSDOF 4
ENDMDL
MODEL 4
REMARK VINA RESULT:      -7.7      1.060      2.028
REMARK  Name = 
REMARK  6 active torsions:
REMARK  status: ('A' for Active; 'I' for Inactive)
REMARK    1  A    between atoms: C_1  and  O_2
REMARK    2  A    between atoms: O_2  and  C_3
REMARK    3  A    between atoms: C_6  and  C_7
REMARK    4  A    between atoms: N_11  and  C_12
REMARK    5  A    between atoms: C_23  and  O_24
REMARK    6  A    between atoms: O_24  and  C_25
REMARK                            x       y       z     vdW  Elec       q    Type
REMARK                         _______ _______ _______ _____ _____    ______ ____
ROOT
ATOM      1  C   UNL     1       2.523   7.637  18.417  0.00  0.00    +0.000 A 
ATOM      2  C   UNL     1       1.967   7.732  19.669  0.00  0.00    +0.000 A 
ATOM      3  N   UNL     1       1.281   8.904  19.789  0.00  0.00    +0.000 NA
ATOM      4  C   UNL     1       1.429   9.490  18.622  0.00  0.00    +0.000 A 
ATOM      5  N   UNL     1       0.894  10.628  18.137  0.00  0.00    +0.000 N 
ATOM      6  O   UNL     1       2.208   8.787  17.742  0.00  0.00    +0.000 OA
ATOM      7  H   UNL     1       1.137  10.864  17.188  0.00  0.00    +0.000 HD
ENDROOT
BRANCH   5   8
ATOM      8  C   UNL     1      -0.282  11.238  18.626  0.00  0.00    +0.000 A 
ATOM      9  C   UNL     1      -0.293  12.073  19.756  0.00  0.00    +0.000 A 
ATOM     10  C   UNL     1      -1.464  12.628  20.282  0.00  0.00    +0.000 A 
ATOM     11  C   UNL     1      -2.648  12.326  19.618  0.00  0.00    +0.000 A 
ATOM     12  N   UNL     1      -3.945  12.695  19.861  0.00  0.00    +0.000 N 
ATOM     13  N   UNL     1      -4.830  12.187  18.993  0.00  0.00    +0.000 NA
ATOM     14  C   UNL     1      -4.070  11.472  18.157  0.00  0.00    +0.000 A 
ATOM     15  C   UNL     1      -2.698  11.524  18.487  0.00  0.00    +0.000 A 
ATOM     16  C   UNL     1      -1.504  10.978  17.974  0.00  0.00    +0.000 A 
ATOM     17  H   UNL     1      -4.282  13.293  20.609  0.00  0.00    +0.000 HD
ENDBRANCH   5   8
BRANCH   1  21
ATOM     18  C   UNL     1       4.915   4.609  16.596  0.00  0.00    +0.000 A 
ATOM     19  C   UNL     1       5.206   5.967  16.383  0.00  0.00    +0.000 A 
ATOM     20  C   UNL     1       4.435   6.970  16.972  0.00  0.00    +0.000 A 
ATOM     21  C   UNL     1       3.320   6.636  17.737  0.00  0.00    +0.000 A 
ATOM     22  C   UNL     1       2.970   5.283  17.850  0.00  0.00    +0.000 A 
ATOM     23  C   UNL     1       3.750   4.263  17.291  0.00  0.00    +0.000 A 
BRANCH  18  25
ATOM     24  C   UNL     1       6.261   3.869  14.800  0.00  0.00    +0.000 C 
ATOM     25  O   UNL     1       5.739   3.632  16.109  0.00  0.00    +0.000 OA
ENDBRANCH  18  25
BRANCH  23  26
ATOM     26  O   UNL     1       3.222   3.031  17.557  0.00  0.00    +0.000 OA
ATOM     27  C   UNL     1       3.581   2.362  18.753  0.00  0.00    +0.000 C 
ENDBRANCH  23  26
ENDBRANCH   1  21
TORSDOF 4
ENDMDL
MODEL 5
REMARK VINA RESULT:      -7.7      6.649      9.229
REMARK  Name = 
REMARK  6 active torsions:
REMARK  status: ('A' for Active; 'I' for Inactive)
REMARK    1  A    between atoms: C_1  and  O_2
REMARK    2  A    between atoms: O_2  and  C_3
REMARK    3  A    between atoms: C_6  and  C_7
REMARK    4  A    between atoms: N_11  and  C_12
REMARK    5  A    between atoms: C_23  and  O_24
REMARK    6  A    between atoms: O_24  and  C_25
REMARK                            x       y       z     vdW  Elec       q    Type
REMARK                         _______ _______ _______ _____ _____    ______ ____
ROOT
ATOM      1  C   UNL     1       8.467   9.406  18.259  0.00  0.00    +0.000 A 
ATOM      2  C   UNL     1       7.590   9.260  17.211  0.00  0.00    +0.000 A 
ATOM      3  N   UNL     1       7.193   7.960  17.111  0.00  0.00    +0.000 NA
ATOM      4  C   UNL     1       7.824   7.349  18.088  0.00  0.00    +0.000 A 
ATOM      5  N   UNL     1       7.744   6.077  18.524  0.00  0.00    +0.000 N 
ATOM      6  O   UNL     1       8.651   8.166  18.812  0.00  0.00    +0.000 OA
ATOM      7  H   UNL     1       8.316   5.843  19.320  0.00  0.00    +0.000 HD
ENDROOT
BRANCH   5   8
ATOM      8  C   UNL     1       6.650   5.213  18.295  0.00  0.00    +0.000 A 
ATOM      9  C   UNL     1       6.446   4.552  17.073  0.00  0.00    +0.000 A 
ATOM     10  C   UNL     1       5.331   3.747  16.820  0.00  0.00    +0.000 A 
ATOM     11  C   UNL     1       4.414   3.610  17.857  0.00  0.00    +0.000 A 
ATOM     12  N   UNL     1       3.239   2.911  17.943  0.00  0.00    +0.000 N 
ATOM     13  N   UNL     1       2.616   3.032  19.123  0.00  0.00    +0.000 NA
ATOM     14  C   UNL     1       3.428   3.833  19.821  0.00  0.00    +0.000 A 
ATOM     15  C   UNL     1       4.571   4.223  19.091  0.00  0.00    +0.000 A 
ATOM     16  C   UNL     1       5.705   5.027  19.324  0.00  0.00    +0.000 A 
ATOM     17  H   UNL     1       2.815   2.334  17.223  0.00  0.00    +0.000 HD
ENDBRANCH   5   8
BRANCH   1  21
ATOM     18  C   UNL     1      10.722  12.667  19.835  0.00  0.00    +0.000 A 
ATOM     19  C   UNL     1      10.203  11.683  20.693  0.00  0.00    +0.000 A 
ATOM     20  C   UNL     1       9.464  10.609  20.194  0.00  0.00    +0.000 A 
ATOM     21  C   UNL     1       9.179  10.530  18.833  0.00  0.00    +0.000 A 
ATOM     22  C   UNL     1       9.603  11.575  18.001  0.00  0.00    +0.000 A 
ATOM     23  C   UNL     1      10.371  12.644  18.480  0.00  0.00    +0.000 A 
BRANCH  18  25
ATOM     24  C   UNL     1      10.869  14.826  20.785  0.00  0.00    +0.000 C 
ATOM     25  O   UNL     1      11.538  13.655  20.315  0.00  0.00    +0.000 OA
ENDBRANCH  18  25
BRANCH  23  26
ATOM     26  O   UNL     1      10.684  13.519  17.478  0.00  0.00    +0.000 OA
ATOM     27  C   UNL     1      11.906  13.369  16.779  0.00  0.00    +0.000 C 
ENDBRANCH  23  26
ENDBRANCH   1  21
TORSDOF 4
ENDMDL
MODEL 6
REMARK VINA RESULT:      -7.6      1.270      2.253
REMARK  Name = 
REMARK  6 active torsions:
REMARK  status: ('A' for Active; 'I' for Inactive)
REMARK    1  A    between atoms: C_1  and  O_2
REMARK    2  A    between atoms: O_2  and  C_3
REMARK    3  A    between atoms: C_6  and  C_7
REMARK    4  A    between atoms: N_11  and  C_12
REMARK    5  A    between atoms: C_23  and  O_24
REMARK    6  A    between atoms: O_24  and  C_25
REMARK                            x       y       z     vdW  Elec       q    Type
REMARK                         _______ _______ _______ _____ _____    ______ ____
ROOT
ATOM      1  C   UNL     1       2.648   7.694  18.545  0.00  0.00    +0.000 A 
ATOM      2  C   UNL     1       1.984   7.793  19.744  0.00  0.00    +0.000 A 
ATOM      3  N   UNL     1       1.104   8.833  19.706  0.00  0.00    +0.000 NA
ATOM      4  C   UNL     1       1.244   9.336  18.501  0.00  0.00    +0.000 A 
ATOM      5  N   UNL     1       0.565  10.318  17.875  0.00  0.00    +0.000 N 
ATOM      6  O   UNL     1       2.198   8.710  17.744  0.00  0.00    +0.000 OA
ATOM      7  H   UNL     1       0.841  10.514  16.926  0.00  0.00    +0.000 HD
ENDROOT
BRANCH   5   8
ATOM      8  C   UNL     1      -0.732  10.752  18.227  0.00  0.00    +0.000 A 
ATOM      9  C   UNL     1      -1.891  10.289  17.581  0.00  0.00    +0.000 A 
ATOM     10  C   UNL     1      -3.171  10.763  17.882  0.00  0.00    +0.000 A 
ATOM     11  C   UNL     1      -3.259  11.725  18.882  0.00  0.00    +0.000 A 
ATOM     12  N   UNL     1      -4.335  12.387  19.413  0.00  0.00    +0.000 N 
ATOM     13  N   UNL     1      -4.017  13.266  20.373  0.00  0.00    +0.000 NA
ATOM     14  C   UNL     1      -2.688  13.157  20.465  0.00  0.00    +0.000 A 
ATOM     15  C   UNL     1      -2.154  12.207  19.568  0.00  0.00    +0.000 A 
ATOM     16  C   UNL     1      -0.873  11.712  19.249  0.00  0.00    +0.000 A 
ATOM     17  H   UNL     1      -5.311  12.277  19.154  0.00  0.00    +0.000 HD
ENDBRANCH   5   8
BRANCH   1  21
ATOM     18  C   UNL     1       5.727   5.090  17.152  0.00  0.00    +0.000 A 
ATOM     19  C   UNL     1       5.275   6.148  16.347  0.00  0.00    +0.000 A 
ATOM     20  C   UNL     1       4.269   7.010  16.788  0.00  0.00    +0.000 A 
ATOM     21  C   UNL     1       3.654   6.794  18.018  0.00  0.00    +0.000 A 
ATOM     22  C   UNL     1       4.032   5.669  18.764  0.00  0.00    +0.000 A 
ATOM     23  C   UNL     1       5.060   4.812  18.351  0.00  0.00    +0.000 A 
BRANCH  18  25
ATOM     24  C   UNL     1       7.028   4.274  15.355  0.00  0.00    +0.000 C 
ATOM     25  O   UNL     1       6.788   4.318  16.763  0.00  0.00    +0.000 OA
ENDBRANCH  18  25
BRANCH  23  26
ATOM     26  O   UNL     1       5.263   3.807  19.255  0.00  0.00    +0.000 OA
ATOM     27  C   UNL     1       4.156   3.062  19.728  0.00  0.00    +0.000 C 
ENDBRANCH  23  26
ENDBRANCH   1  21
TORSDOF 4
ENDMDL
MODEL 7
REMARK VINA RESULT:      -7.6      3.697      9.358
REMARK  Name = 
REMARK  6 active torsions:
REMARK  status: ('A' for Active; 'I' for Inactive)
REMARK    1  A    between atoms: C_1  and  O_2
REMARK    2  A    between atoms: O_2  and  C_3
REMARK    3  A    between atoms: C_6  and  C_7
REMARK    4  A    between atoms: N_11  and  C_12
REMARK    5  A    between atoms: C_23  and  O_24
REMARK    6  A    between atoms: O_24  and  C_25
REMARK                            x       y       z     vdW  Elec       q    Type
REMARK                         _______ _______ _______ _____ _____    ______ ____
ROOT
ATOM      1  C   UNL     1       1.416   8.110  20.287  0.00  0.00    +0.000 A 
ATOM      2  C   UNL     1       1.762   6.795  20.483  0.00  0.00    +0.000 A 
ATOM      3  N   UNL     1       2.534   6.355  19.449  0.00  0.00    +0.000 NA
ATOM      4  C   UNL     1       2.645   7.398  18.657  0.00  0.00    +0.000 A 
ATOM      5  N   UNL     1       3.367   7.574  17.533  0.00  0.00    +0.000 N 
ATOM      6  O   UNL     1       1.956   8.500  19.090  0.00  0.00    +0.000 OA
ATOM      7  H   UNL     1       3.311   8.485  17.108  0.00  0.00    +0.000 HD
ENDROOT
BRANCH   5   8
ATOM      8  C   UNL     1       4.500   6.811  17.176  0.00  0.00    +0.000 A 
ATOM      9  C   UNL     1       4.785   6.445  15.850  0.00  0.00    +0.000 A 
ATOM     10  C   UNL     1       5.870   5.637  15.499  0.00  0.00    +0.000 A 
ATOM     11  C   UNL     1       6.689   5.208  16.539  0.00  0.00    +0.000 A 
ATOM     12  N   UNL     1       7.811   4.423  16.546  0.00  0.00    +0.000 N 
ATOM     13  N   UNL     1       8.328   4.218  17.765  0.00  0.00    +0.000 NA
ATOM     14  C   UNL     1       7.509   4.905  18.568  0.00  0.00    +0.000 A 
ATOM     15  C   UNL     1       6.470   5.552  17.865  0.00  0.00    +0.000 A 
ATOM     16  C   UNL     1       5.370   6.371  18.194  0.00  0.00    +0.000 A 
ATOM     17  H   UNL     1       8.268   3.999  15.744  0.00  0.00    +0.000 HD
ENDBRANCH   5   8
BRANCH   1  21
ATOM     18  C   UNL     1      -0.712  11.094  22.471  0.00  0.00    +0.000 A 
ATOM     19  C   UNL     1      -0.303   9.908  23.104  0.00  0.00    +0.000 A 
ATOM     20  C   UNL     1       0.395   8.923  22.404  0.00  0.00    +0.000 A 
ATOM     21  C   UNL     1       0.645   9.077  21.043  0.00  0.00    +0.000 A 
ATOM     22  C   UNL     1       0.134  10.209  20.395  0.00  0.00    +0.000 A 
ATOM     23  C   UNL     1      -0.542  11.222  21.088  0.00  0.00    +0.000 A 
BRANCH  18  25
ATOM     24  C   UNL     1      -2.723  12.059  23.252  0.00  0.00    +0.000 C 
ATOM     25  O   UNL     1      -1.296  12.104  23.186  0.00  0.00    +0.000 OA
ENDBRANCH  18  25
BRANCH  23  26
ATOM     26  O   UNL     1      -0.919  12.233  20.247  0.00  0.00    +0.000 OA
ATOM     27  C   UNL     1      -1.522  11.917  19.006  0.00  0.00    +0.000 C 
ENDBRANCH  23  26
ENDBRANCH   1  21
TORSDOF 4
ENDMDL
MODEL 8
REMARK VINA RESULT:      -7.5      3.677      9.245
REMARK  Name = 
REMARK  6 active torsions:
REMARK  status: ('A' for Active; 'I' for Inactive)
REMARK    1  A    between atoms: C_1  and  O_2
REMARK    2  A    between atoms: O_2  and  C_3
REMARK    3  A    between atoms: C_6  and  C_7
REMARK    4  A    between atoms: N_11  and  C_12
REMARK    5  A    between atoms: C_23  and  O_24
REMARK    6  A    between atoms: O_24  and  C_25
REMARK                            x       y       z     vdW  Elec       q    Type
REMARK                         _______ _______ _______ _____ _____    ______ ____
ROOT
ATOM      1  C   UNL     1       0.678   9.580  18.940  0.00  0.00    +0.000 A 
ATOM      2  C   UNL     1       1.482   9.276  17.867  0.00  0.00    +0.000 A 
ATOM      3  N   UNL     1       2.320   8.251  18.187  0.00  0.00    +0.000 NA
ATOM      4  C   UNL     1       2.012   7.952  19.429  0.00  0.00    +0.000 A 
ATOM      5  N   UNL     1       2.453   6.960  20.229  0.00  0.00    +0.000 N 
ATOM      6  O   UNL     1       1.038   8.749  19.968  0.00  0.00    +0.000 OA
ATOM      7  H   UNL     1       2.045   6.917  21.149  0.00  0.00    +0.000 HD
ENDROOT
BRANCH   5   8
ATOM      8  C   UNL     1       3.041   5.760  19.774  0.00  0.00    +0.000 A 
ATOM      9  C   UNL     1       4.395   5.664  19.414  0.00  0.00    +0.000 A 
ATOM     10  C   UNL     1       4.967   4.495  18.904  0.00  0.00    +0.000 A 
ATOM     11  C   UNL     1       4.125   3.395  18.775  0.00  0.00    +0.000 A 
ATOM     12  N   UNL     1       4.355   2.124  18.319  0.00  0.00    +0.000 N 
ATOM     13  N   UNL     1       3.273   1.333  18.337  0.00  0.00    +0.000 NA
ATOM     14  C   UNL     1       2.317   2.126  18.830  0.00  0.00    +0.000 A 
ATOM     15  C   UNL     1       2.785   3.423  19.132  0.00  0.00    +0.000 A 
ATOM     16  C   UNL     1       2.231   4.613  19.647  0.00  0.00    +0.000 A 
ATOM     17  H   UNL     1       5.234   1.743  17.983  0.00  0.00    +0.000 HD
ENDBRANCH   5   8
BRANCH   1  21
ATOM     18  C   UNL     1      -2.523  12.282  19.752  0.00  0.00    +0.000 A 
ATOM     19  C   UNL     1      -2.324  11.788  18.452  0.00  0.00    +0.000 A 
ATOM     20  C   UNL     1      -1.283  10.902  18.169  0.00  0.00    +0.000 A 
ATOM     21  C   UNL     1      -0.383  10.541  19.169  0.00  0.00    +0.000 A 
ATOM     22  C   UNL     1      -0.520  11.128  20.434  0.00  0.00    +0.000 A 
ATOM     23  C   UNL     1      -1.577  11.994  20.742  0.00  0.00    +0.000 A 
BRANCH  18  25
ATOM     24  C   UNL     1      -4.874  12.509  19.675  0.00  0.00    +0.000 C 
ATOM     25  O   UNL     1      -3.609  13.060  20.046  0.00  0.00    +0.000 OA
ENDBRANCH  18  25
BRANCH  23  26
ATOM     26  O   UNL     1      -1.512  12.414  22.042  0.00  0.00    +0.000 OA
ATOM     27  C   UNL     1      -1.313  11.463  23.072  0.00  0.00    +0.000 C 
ENDBRANCH  23  26
ENDBRANCH   1  21
TORSDOF 4
ENDMDL
MODEL 9
REMARK VINA RESULT:      -7.4      6.525      9.252
REMARK  Name = 
REMARK  6 active torsions:
REMARK  status: ('A' for Active; 'I' for Inactive)
REMARK    1  A    between atoms: C_1  and  O_2
REMARK    2  A    between atoms: O_2  and  C_3
REMARK    3  A    between atoms: C_6  and  C_7
REMARK    4  A    between atoms: N_11  and  C_12
REMARK    5  A    between atoms: C_23  and  O_24
REMARK    6  A    between atoms: O_24  and  C_25
REMARK                            x       y       z     vdW  Elec       q    Type
REMARK                         _______ _______ _______ _____ _____    ______ ____
ROOT
ATOM      1  C   UNL     1       8.607   9.427  18.378  0.00  0.00    +0.000 A 
ATOM      2  C   UNL     1       7.700   9.345  17.350  0.00  0.00    +0.000 A 
ATOM      3  N   UNL     1       7.260   8.062  17.214  0.00  0.00    +0.000 NA
ATOM      4  C   UNL     1       7.897   7.398  18.152  0.00  0.00    +0.000 A 
ATOM      5  N   UNL     1       7.788   6.114  18.546  0.00  0.00    +0.000 N 
ATOM      6  O   UNL     1       8.767   8.163  18.883  0.00  0.00    +0.000 OA
ATOM      7  H   UNL     1       8.372   5.835  19.318  0.00  0.00    +0.000 HD
ENDROOT
BRANCH   5   8
ATOM      8  C   UNL     1       6.663   5.292  18.316  0.00  0.00    +0.000 A 
ATOM      9  C   UNL     1       6.447   4.619  17.102  0.00  0.00    +0.000 A 
ATOM     10  C   UNL     1       5.304   3.856  16.846  0.00  0.00    +0.000 A 
ATOM     11  C   UNL     1       4.368   3.776  17.872  0.00  0.00    +0.000 A 
ATOM     12  N   UNL     1       3.164   3.128  17.953  0.00  0.00    +0.000 N 
ATOM     13  N   UNL     1       2.530   3.295  19.123  0.00  0.00    +0.000 NA
ATOM     14  C   UNL     1       3.365   4.074  19.819  0.00  0.00    +0.000 A 
ATOM     15  C   UNL     1       4.534   4.402  19.098  0.00  0.00    +0.000 A 
ATOM     16  C   UNL     1       5.697   5.164  19.334  0.00  0.00    +0.000 A 
ATOM     17  H   UNL     1       2.725   2.556  17.237  0.00  0.00    +0.000 HD
ENDBRANCH   5   8
BRANCH   1  21
ATOM     18  C   UNL     1      10.675  12.708  20.156  0.00  0.00    +0.000 A 
ATOM     19  C   UNL     1      10.992  12.293  18.852  0.00  0.00    +0.000 A 
ATOM     20  C   UNL     1      10.324  11.222  18.255  0.00  0.00    +0.000 A 
ATOM     21  C   UNL     1       9.369  10.508  18.973  0.00  0.00    +0.000 A 
ATOM     22  C   UNL     1       9.141  10.856  20.311  0.00  0.00    +0.000 A 
ATOM     23  C   UNL     1       9.780  11.946  20.916  0.00  0.00    +0.000 A 
BRANCH  18  25
ATOM     24  C   UNL     1      10.744  15.070  20.211  0.00  0.00    +0.000 C 
ATOM     25  O   UNL     1      11.253  13.825  20.694  0.00  0.00    +0.000 OA
ENDBRANCH  18  25
BRANCH  23  26
ATOM     26  O   UNL     1       9.376  12.102  22.212  0.00  0.00    +0.000 OA
ATOM     27  C   UNL     1       8.274  12.943  22.502  0.00  0.00    +0.000 C 
ENDBRANCH  23  26
ENDBRANCH   1  21
TORSDOF 4
ENDMDL
