MODEL 1
REMARK VINA RESULT:      -8.2      0.000      0.000
REMARK  Name = 
REMARK  6 active torsions:
REMARK  status: ('A' for Active; 'I' for Inactive)
REMARK    1  A    between atoms: C_2  and  C_3
REMARK    2  A    between atoms: C_2  and  C_6
REMARK    3  A    between atoms: C_3  and  O_5
REMARK    4  A    between atoms: C_9  and  C_10
REMARK    5  A    between atoms: C_14  and  C_15
REMARK    6  A    between atoms: C_14  and  O_16
REMARK                            x       y       z     vdW  Elec       q    Type
REMARK                         _______ _______ _______ _____ _____    ______ ____
ROOT
ATOM      1  C   UNL     1       4.854   4.880  15.695  0.00  0.00    +0.000 C 
ATOM      2  C   UNL     1       5.103   6.214  16.432  0.00  0.00    +0.000 C 
ATOM      3  C   UNL     1       3.956   6.569  17.384  0.00  0.00    +0.000 C 
ATOM      4  C   UNL     1       3.641   5.438  18.405  0.00  0.00    +0.000 C 
ATOM      5  C   UNL     1       4.840   5.289  19.369  0.00  0.00    +0.000 C 
ATOM      6  C   UNL     1       2.389   5.843  19.215  0.00  0.00    +0.000 C 
ATOM      7  C   UNL     1       1.891   4.720  20.120  0.00  0.00    +0.000 C 
ATOM      8  C   UNL     1       1.558   3.469  19.314  0.00  0.00    +0.000 C 
ATOM      9  C   UNL     1       2.707   2.965  18.415  0.00  0.00    +0.000 C 
ATOM     10  C   UNL     1       3.685   2.111  19.235  0.00  0.00    +0.000 C 
ATOM     11  C   UNL     1       3.325   4.144  17.598  0.00  0.00    +0.000 C 
ATOM     12  C   UNL     1       4.516   3.751  16.695  0.00  0.00    +0.000 C 
ENDROOT
BRANCH   1  14
ATOM     13  C   UNL     1       5.763   3.779  13.599  0.00  0.00    +0.000 C 
ATOM     14  C   UNL     1       5.975   4.438  14.759  0.00  0.00    +0.000 C 
BRANCH  14  15
ATOM     15  C   UNL     1       7.343   4.850  15.221  0.00  0.00    +0.000 C 
ATOM     16  O   UNL     1       7.825   4.459  16.276  0.00  0.00    +0.000 OA
BRANCH  15  17
ATOM     17  O   UNL     1       8.028   5.652  14.385  0.00  0.00    +0.000 OA
ATOM     18  H   UNL     1       7.663   6.543  14.263  0.00  0.00    +0.000 HD
ENDBRANCH  15  17
ENDBRANCH  14  15
ENDBRANCH   1  14
BRANCH   9  19
ATOM     19  O   UNL     1       2.081   2.040  17.500  0.00  0.00    +0.000 OA
ATOM     20  H   UNL     1       1.176   2.332  17.299  0.00  0.00    +0.000 HD
ENDBRANCH   9  19
TORSDOF 4
ENDMDL
MODEL 2
REMARK VINA RESULT:      -7.9      1.526      2.157
REMARK  Name = 
REMARK  6 active torsions:
REMARK  status: ('A' for Active; 'I' for Inactive)
REMARK    1  A    between atoms: C_2  and  C_3
REMARK    2  A    between atoms: C_2  and  C_6
REMARK    3  A    between atoms: C_3  and  O_5
REMARK    4  A    between atoms: C_9  and  C_10
REMARK    5  A    between atoms: C_14  and  C_15
REMARK    6  A    between atoms: C_14  and  O_16
REMARK                            x       y       z     vdW  Elec       q    Type
REMARK                         _______ _______ _______ _____ _____    ______ ____
ROOT
ATOM      1  C   UNL     1       5.053   5.421  17.196  0.00  0.00    +0.000 C 
ATOM      2  C   UNL     1       4.054   6.516  17.631  0.00  0.00    +0.000 C 
ATOM      3  C   UNL     1       2.642   5.959  17.840  0.00  0.00    +0.000 C 
ATOM      4  C   UNL     1       2.602   4.763  18.835  0.00  0.00    +0.000 C 
ATOM      5  C   UNL     1       2.969   5.277  20.246  0.00  0.00    +0.000 C 
ATOM      6  C   UNL     1       1.164   4.196  18.862  0.00  0.00    +0.000 C 
ATOM      7  C   UNL     1       1.061   2.907  19.673  0.00  0.00    +0.000 C 
ATOM      8  C   UNL     1       1.992   1.832  19.121  0.00  0.00    +0.000 C 
ATOM      9  C   UNL     1       3.467   2.269  18.993  0.00  0.00    +0.000 C 
ATOM     10  C   UNL     1       4.182   2.119  20.343  0.00  0.00    +0.000 C 
ATOM     11  C   UNL     1       3.569   3.666  18.300  0.00  0.00    +0.000 C 
ATOM     12  C   UNL     1       5.007   4.216  18.163  0.00  0.00    +0.000 C 
ENDROOT
BRANCH   1  14
ATOM     13  C   UNL     1       6.939   7.102  17.414  0.00  0.00    +0.000 C 
ATOM     14  C   UNL     1       6.491   5.894  17.009  0.00  0.00    +0.000 C 
BRANCH  14  15
ATOM     15  C   UNL     1       7.385   4.866  16.376  0.00  0.00    +0.000 C 
ATOM     16  O   UNL     1       7.461   4.721  15.163  0.00  0.00    +0.000 OA
BRANCH  15  17
ATOM     17  O   UNL     1       8.130   4.133  17.224  0.00  0.00    +0.000 OA
ATOM     18  H   UNL     1       7.641   3.677  17.927  0.00  0.00    +0.000 HD
ENDBRANCH  15  17
ENDBRANCH  14  15
ENDBRANCH   1  14
BRANCH   9  19
ATOM     19  O   UNL     1       4.073   1.278  18.137  0.00  0.00    +0.000 OA
ATOM     20  H   UNL     1       4.379   0.523  18.667  0.00  0.00    +0.000 HD
ENDBRANCH   9  19
TORSDOF 4
ENDMDL
MODEL 3
REMARK VINA RESULT:      -7.8      2.053      2.693
REMARK  Name = 
REMARK  6 active torsions:
REMARK  status: ('A' for Active; 'I' for Inactive)
REMARK    1  A    between atoms: C_2  and  C_3
REMARK    2  A    between atoms: C_2  and  C_6
REMARK    3  A    between atoms: C_3  and  O_5
REMARK    4  A    between atoms: C_9  and  C_10
REMARK    5  A    between atoms: C_14  and  C_15
REMARK    6  A    between atoms: C_14  and  O_16
REMARK                            x       y       z     vdW  Elec       q    Type
REMARK                         _______ _______ _______ _____ _____    ______ ____
ROOT
ATOM      1  C   UNL     1       5.490   5.455  17.933  0.00  0.00    +0.000 C 
ATOM      2  C   UNL     1       4.361   6.508  17.887  0.00  0.00    +0.000 C 
ATOM      3  C   UNL     1       2.990   5.872  17.634  0.00  0.00    +0.000 C 
ATOM      4  C   UNL     1       2.643   4.749  18.654  0.00  0.00    +0.000 C 
ATOM      5  C   UNL     1       2.462   5.385  20.051  0.00  0.00    +0.000 C 
ATOM      6  C   UNL     1       1.313   4.089  18.223  0.00  0.00    +0.000 C 
ATOM      7  C   UNL     1       0.977   2.856  19.057  0.00  0.00    +0.000 C 
ATOM      8  C   UNL     1       2.084   1.810  18.967  0.00  0.00    +0.000 C 
ATOM      9  C   UNL     1       3.490   2.337  19.329  0.00  0.00    +0.000 C 
ATOM     10  C   UNL     1       3.681   2.331  20.853  0.00  0.00    +0.000 C 
ATOM     11  C   UNL     1       3.779   3.685  18.595  0.00  0.00    +0.000 C 
ATOM     12  C   UNL     1       5.148   4.320  18.925  0.00  0.00    +0.000 C 
ENDROOT
BRANCH   1  14
ATOM     13  C   UNL     1       7.577   5.730  19.347  0.00  0.00    +0.000 C 
ATOM     14  C   UNL     1       6.882   6.010  18.224  0.00  0.00    +0.000 C 
BRANCH  14  15
ATOM     15  C   UNL     1       7.434   6.862  17.117  0.00  0.00    +0.000 C 
ATOM     16  O   UNL     1       7.761   8.029  17.288  0.00  0.00    +0.000 OA
BRANCH  15  17
ATOM     17  O   UNL     1       7.582   6.254  15.926  0.00  0.00    +0.000 OA
ATOM     18  H   UNL     1       8.497   6.140  15.623  0.00  0.00    +0.000 HD
ENDBRANCH  15  17
ENDBRANCH  14  15
ENDBRANCH   1  14
BRANCH   9  19
ATOM     19  O   UNL     1       4.399   1.331  18.835  0.00  0.00    +0.000 OA
ATOM     20  H   UNL     1       3.902   0.612  18.411  0.00  0.00    +0.000 HD
ENDBRANCH   9  19
TORSDOF 4
ENDMDL
MODEL 4
REMARK VINA RESULT:      -7.8      0.762      1.031
REMARK  Name = 
REMARK  6 active torsions:
REMARK  status: ('A' for Active; 'I' for Inactive)
REMARK    1  A    between atoms: C_2  and  C_3
REMARK    2  A    between atoms: C_2  and  C_6
REMARK    3  A    between atoms: C_3  and  O_5
REMARK    4  A    between atoms: C_9  and  C_10
REMARK    5  A    between atoms: C_14  and  C_15
REMARK    6  A    between atoms: C_14  and  O_16
REMARK                            x       y       z     vdW  Elec       q    Type
REMARK                         _______ _______ _______ _____ _____    ______ ____
ROOT
ATOM      1  C   UNL     1       4.757   4.676  16.170  0.00  0.00    +0.000 C 
ATOM      2  C   UNL     1       4.620   6.094  16.766  0.00  0.00    +0.000 C 
ATOM      3  C   UNL     1       3.335   6.255  17.583  0.00  0.00    +0.000 C 
ATOM      4  C   UNL     1       3.186   5.181  18.700  0.00  0.00    +0.000 C 
ATOM      5  C   UNL     1       4.286   5.412  19.761  0.00  0.00    +0.000 C 
ATOM      6  C   UNL     1       1.800   5.353  19.363  0.00  0.00    +0.000 C 
ATOM      7  C   UNL     1       1.484   4.233  20.351  0.00  0.00    +0.000 C 
ATOM      8  C   UNL     1       1.527   2.869  19.671  0.00  0.00    +0.000 C 
ATOM      9  C   UNL     1       2.844   2.570  18.923  0.00  0.00    +0.000 C 
ATOM     10  C   UNL     1       3.904   2.053  19.905  0.00  0.00    +0.000 C 
ATOM     11  C   UNL     1       3.255   3.780  18.025  0.00  0.00    +0.000 C 
ATOM     12  C   UNL     1       4.587   3.598  17.264  0.00  0.00    +0.000 C 
ENDROOT
BRANCH   1  14
ATOM     13  C   UNL     1       6.059   3.822  14.168  0.00  0.00    +0.000 C 
ATOM     14  C   UNL     1       6.036   4.427  15.376  0.00  0.00    +0.000 C 
BRANCH  14  15
ATOM     15  C   UNL     1       7.271   4.965  16.039  0.00  0.00    +0.000 C 
ATOM     16  O   UNL     1       7.687   6.097  15.832  0.00  0.00    +0.000 OA
BRANCH  15  17
ATOM     17  O   UNL     1       7.878   4.137  16.910  0.00  0.00    +0.000 OA
ATOM     18  H   UNL     1       8.403   3.423  16.515  0.00  0.00    +0.000 HD
ENDBRANCH  15  17
ENDBRANCH  14  15
ENDBRANCH   1  14
BRANCH   9  19
ATOM     19  O   UNL     1       2.539   1.442  18.076  0.00  0.00    +0.000 OA
ATOM     20  H   UNL     1       2.164   0.718  18.606  0.00  0.00    +0.000 HD
ENDBRANCH   9  19
TORSDOF 4
ENDMDL
MODEL 5
REMARK VINA RESULT:      -7.7      2.356      5.600
REMARK  Name = 
REMARK  6 active torsions:
REMARK  status: ('A' for Active; 'I' for Inactive)
REMARK    1  A    between atoms: C_2  and  C_3
REMARK    2  A    between atoms: C_2  and  C_6
REMARK    3  A    between atoms: C_3  and  O_5
REMARK    4  A    between atoms: C_9  and  C_10
REMARK    5  A    between atoms: C_14  and  C_15
REMARK    6  A    between atoms: C_14  and  O_16
REMARK                            x       y       z     vdW  Elec       q    Type
REMARK                         _______ _______ _______ _____ _____    ______ ____
ROOT
ATOM      1  C   UNL     1       3.452   4.240  19.261  0.00  0.00    +0.000 C 
ATOM      2  C   UNL     1       2.763   4.986  18.097  0.00  0.00    +0.000 C 
ATOM      3  C   UNL     1       3.458   6.310  17.768  0.00  0.00    +0.000 C 
ATOM      4  C   UNL     1       4.979   6.143  17.480  0.00  0.00    +0.000 C 
ATOM      5  C   UNL     1       5.151   5.343  16.169  0.00  0.00    +0.000 C 
ATOM      6  C   UNL     1       5.600   7.547  17.300  0.00  0.00    +0.000 C 
ATOM      7  C   UNL     1       7.122   7.502  17.191  0.00  0.00    +0.000 C 
ATOM      8  C   UNL     1       7.744   6.855  18.424  0.00  0.00    +0.000 C 
ATOM      9  C   UNL     1       7.187   5.454  18.759  0.00  0.00    +0.000 C 
ATOM     10  C   UNL     1       7.892   4.387  17.909  0.00  0.00    +0.000 C 
ATOM     11  C   UNL     1       5.625   5.458  18.720  0.00  0.00    +0.000 C 
ATOM     12  C   UNL     1       4.968   4.088  19.000  0.00  0.00    +0.000 C 
ENDROOT
BRANCH   1  14
ATOM     13  C   UNL     1       2.974   1.783  18.856  0.00  0.00    +0.000 C 
ATOM     14  C   UNL     1       2.840   2.889  19.619  0.00  0.00    +0.000 C 
BRANCH  14  15
ATOM     15  C   UNL     1       2.112   2.887  20.933  0.00  0.00    +0.000 C 
ATOM     16  O   UNL     1       2.682   2.695  21.998  0.00  0.00    +0.000 OA
BRANCH  15  17
ATOM     17  O   UNL     1       0.792   3.146  20.873  0.00  0.00    +0.000 OA
ATOM     18  H   UNL     1       0.286   2.607  20.246  0.00  0.00    +0.000 HD
ENDBRANCH  15  17
ENDBRANCH  14  15
ENDBRANCH   1  14
BRANCH   9  19
ATOM     19  O   UNL     1       7.620   5.199  20.112  0.00  0.00    +0.000 OA
ATOM     20  H   UNL     1       7.500   5.996  20.656  0.00  0.00    +0.000 HD
ENDBRANCH   9  19
TORSDOF 4
ENDMDL
MODEL 6
REMARK VINA RESULT:      -7.7      2.049      2.563
REMARK  Name = 
REMARK  6 active torsions:
REMARK  status: ('A' for Active; 'I' for Inactive)
REMARK    1  A    between atoms: C_2  and  C_3
REMARK    2  A    between atoms: C_2  and  C_6
REMARK    3  A    between atoms: C_3  and  O_5
REMARK    4  A    between atoms: C_9  and  C_10
REMARK    5  A    between atoms: C_14  and  C_15
REMARK    6  A    between atoms: C_14  and  O_16
REMARK                            x       y       z     vdW  Elec       q    Type
REMARK                         _______ _______ _______ _____ _____    ______ ____
ROOT
ATOM      1  C   UNL     1       5.563   5.622  17.571  0.00  0.00    +0.000 C 
ATOM      2  C   UNL     1       4.494   6.732  17.675  0.00  0.00    +0.000 C 
ATOM      3  C   UNL     1       3.076   6.186  17.479  0.00  0.00    +0.000 C 
ATOM      4  C   UNL     1       2.737   5.014  18.445  0.00  0.00    +0.000 C 
ATOM      5  C   UNL     1       2.686   5.560  19.890  0.00  0.00    +0.000 C 
ATOM      6  C   UNL     1       1.346   4.454  18.068  0.00  0.00    +0.000 C 
ATOM      7  C   UNL     1       0.999   3.185  18.841  0.00  0.00    +0.000 C 
ATOM      8  C   UNL     1       2.037   2.093  18.605  0.00  0.00    +0.000 C 
ATOM      9  C   UNL     1       3.491   2.521  18.899  0.00  0.00    +0.000 C 
ATOM     10  C   UNL     1       3.784   2.400  20.402  0.00  0.00    +0.000 C 
ATOM     11  C   UNL     1       3.805   3.901  18.236  0.00  0.00    +0.000 C 
ATOM     12  C   UNL     1       5.227   4.440  18.508  0.00  0.00    +0.000 C 
ENDROOT
BRANCH   1  14
ATOM     13  C   UNL     1       7.445   7.321  17.486  0.00  0.00    +0.000 C 
ATOM     14  C   UNL     1       7.000   6.084  17.798  0.00  0.00    +0.000 C 
BRANCH  14  15
ATOM     15  C   UNL     1       7.869   5.048  18.451  0.00  0.00    +0.000 C 
ATOM     16  O   UNL     1       8.178   5.101  19.634  0.00  0.00    +0.000 OA
BRANCH  15  17
ATOM     17  O   UNL     1       8.263   4.030  17.663  0.00  0.00    +0.000 OA
ATOM     18  H   UNL     1       8.569   3.234  18.125  0.00  0.00    +0.000 HD
ENDBRANCH  15  17
ENDBRANCH  14  15
ENDBRANCH   1  14
BRANCH   9  19
ATOM     19  O   UNL     1       4.307   1.507  18.277  0.00  0.00    +0.000 OA
ATOM     20  H   UNL     1       5.244   1.655  18.490  0.00  0.00    +0.000 HD
ENDBRANCH   9  19
TORSDOF 4
ENDMDL
MODEL 7
REMARK VINA RESULT:      -7.6      2.217      5.421
REMARK  Name = 
REMARK  6 active torsions:
REMARK  status: ('A' for Active; 'I' for Inactive)
REMARK    1  A    between atoms: C_2  and  C_3
REMARK    2  A    between atoms: C_2  and  C_6
REMARK    3  A    between atoms: C_3  and  O_5
REMARK    4  A    between atoms: C_9  and  C_10
REMARK    5  A    between atoms: C_14  and  C_15
REMARK    6  A    between atoms: C_14  and  O_16
REMARK                            x       y       z     vdW  Elec       q    Type
REMARK                         _______ _______ _______ _____ _____    ______ ____
ROOT
ATOM      1  C   UNL     1       3.513   4.298  19.482  0.00  0.00    +0.000 C 
ATOM      2  C   UNL     1       2.793   4.907  18.259  0.00  0.00    +0.000 C 
ATOM      3  C   UNL     1       3.454   6.207  17.790  0.00  0.00    +0.000 C 
ATOM      4  C   UNL     1       4.974   6.046  17.499  0.00  0.00    +0.000 C 
ATOM      5  C   UNL     1       5.150   5.122  16.273  0.00  0.00    +0.000 C 
ATOM      6  C   UNL     1       5.560   7.438  17.171  0.00  0.00    +0.000 C 
ATOM      7  C   UNL     1       7.081   7.416  17.046  0.00  0.00    +0.000 C 
ATOM      8  C   UNL     1       7.733   6.910  18.329  0.00  0.00    +0.000 C 
ATOM      9  C   UNL     1       7.213   5.538  18.810  0.00  0.00    +0.000 C 
ATOM     10  C   UNL     1       7.933   4.407  18.062  0.00  0.00    +0.000 C 
ATOM     11  C   UNL     1       5.651   5.503  18.792  0.00  0.00    +0.000 C 
ATOM     12  C   UNL     1       5.029   4.154  19.217  0.00  0.00    +0.000 C 
ENDROOT
BRANCH   1  14
ATOM     13  C   UNL     1       2.637   2.734  21.277  0.00  0.00    +0.000 C 
ATOM     14  C   UNL     1       2.937   2.976  19.982  0.00  0.00    +0.000 C 
BRANCH  14  15
ATOM     15  C   UNL     1       2.683   1.978  18.889  0.00  0.00    +0.000 C 
ATOM     16  O   UNL     1       3.589   1.378  18.325  0.00  0.00    +0.000 OA
BRANCH  15  17
ATOM     17  O   UNL     1       1.391   1.754  18.586  0.00  0.00    +0.000 OA
ATOM     18  H   UNL     1       1.143   0.824  18.461  0.00  0.00    +0.000 HD
ENDBRANCH  15  17
ENDBRANCH  14  15
ENDBRANCH   1  14
BRANCH   9  19
ATOM     19  O   UNL     1       7.666   5.430  20.176  0.00  0.00    +0.000 OA
ATOM     20  H   UNL     1       8.609   5.192  20.196  0.00  0.00    +0.000 HD
ENDBRANCH   9  19
TORSDOF 4
ENDMDL
MODEL 8
REMARK VINA RESULT:      -7.6      2.538      3.551
REMARK  Name = 
REMARK  6 active torsions:
REMARK  status: ('A' for Active; 'I' for Inactive)
REMARK    1  A    between atoms: C_2  and  C_3
REMARK    2  A    between atoms: C_2  and  C_6
REMARK    3  A    between atoms: C_3  and  O_5
REMARK    4  A    between atoms: C_9  and  C_10
REMARK    5  A    between atoms: C_14  and  C_15
REMARK    6  A    between atoms: C_14  and  O_16
REMARK                            x       y       z     vdW  Elec       q    Type
REMARK                         _______ _______ _______ _____ _____    ______ ____
ROOT
ATOM      1  C   UNL     1       5.412   4.760  18.429  0.00  0.00    +0.000 C 
ATOM      2  C   UNL     1       4.928   4.052  17.145  0.00  0.00    +0.000 C 
ATOM      3  C   UNL     1       3.900   2.956  17.443  0.00  0.00    +0.000 C 
ATOM      4  C   UNL     1       2.685   3.471  18.268  0.00  0.00    +0.000 C 
ATOM      5  C   UNL     1       1.876   4.459  17.397  0.00  0.00    +0.000 C 
ATOM      6  C   UNL     1       1.789   2.264  18.628  0.00  0.00    +0.000 C 
ATOM      7  C   UNL     1       0.665   2.638  19.590  0.00  0.00    +0.000 C 
ATOM      8  C   UNL     1       1.218   3.228  20.883  0.00  0.00    +0.000 C 
ATOM      9  C   UNL     1       2.173   4.425  20.680  0.00  0.00    +0.000 C 
ATOM     10  C   UNL     1       1.367   5.719  20.497  0.00  0.00    +0.000 C 
ATOM     11  C   UNL     1       3.235   4.103  19.581  0.00  0.00    +0.000 C 
ATOM     12  C   UNL     1       4.215   5.257  19.271  0.00  0.00    +0.000 C 
ENDROOT
BRANCH   1  14
ATOM     13  C   UNL     1       6.300   6.800  17.211  0.00  0.00    +0.000 C 
ATOM     14  C   UNL     1       6.409   5.894  18.207  0.00  0.00    +0.000 C 
BRANCH  14  15
ATOM     15  C   UNL     1       7.502   5.945  19.235  0.00  0.00    +0.000 C 
ATOM     16  O   UNL     1       7.557   5.161  20.174  0.00  0.00    +0.000 OA
BRANCH  15  17
ATOM     17  O   UNL     1       8.445   6.886  19.044  0.00  0.00    +0.000 OA
ATOM     18  H   UNL     1       8.178   7.645  18.503  0.00  0.00    +0.000 HD
ENDBRANCH  15  17
ENDBRANCH  14  15
ENDBRANCH   1  14
BRANCH   9  19
ATOM     19  O   UNL     1       2.844   4.580  21.948  0.00  0.00    +0.000 OA
ATOM     20  H   UNL     1       2.192   4.713  22.657  0.00  0.00    +0.000 HD
ENDBRANCH   9  19
TORSDOF 4
ENDMDL
MODEL 9
REMARK VINA RESULT:      -7.4      1.945      3.059
REMARK  Name = 
REMARK  6 active torsions:
REMARK  status: ('A' for Active; 'I' for Inactive)
REMARK    1  A    between atoms: C_2  and  C_3
REMARK    2  A    between atoms: C_2  and  C_6
REMARK    3  A    between atoms: C_3  and  O_5
REMARK    4  A    between atoms: C_9  and  C_10
REMARK    5  A    between atoms: C_14  and  C_15
REMARK    6  A    between atoms: C_14  and  O_16
REMARK                            x       y       z     vdW  Elec       q    Type
REMARK                         _______ _______ _______ _____ _____    ______ ____
ROOT
ATOM      1  C   UNL     1       5.544   4.303  18.120  0.00  0.00    +0.000 C 
ATOM      2  C   UNL     1       4.709   4.550  16.844  0.00  0.00    +0.000 C 
ATOM      3  C   UNL     1       3.466   3.657  16.787  0.00  0.00    +0.000 C 
ATOM      4  C   UNL     1       2.570   3.780  18.053  0.00  0.00    +0.000 C 
ATOM      5  C   UNL     1       1.959   5.199  18.094  0.00  0.00    +0.000 C 
ATOM      6  C   UNL     1       1.430   2.741  17.950  0.00  0.00    +0.000 C 
ATOM      7  C   UNL     1       0.599   2.658  19.227  0.00  0.00    +0.000 C 
ATOM      8  C   UNL     1       1.468   2.300  20.428  0.00  0.00    +0.000 C 
ATOM      9  C   UNL     1       2.683   3.231  20.637  0.00  0.00    +0.000 C 
ATOM     10  C   UNL     1       2.255   4.498  21.391  0.00  0.00    +0.000 C 
ATOM     11  C   UNL     1       3.451   3.444  19.293  0.00  0.00    +0.000 C 
ATOM     12  C   UNL     1       4.662   4.398  19.385  0.00  0.00    +0.000 C 
ENDROOT
BRANCH   1  14
ATOM     13  C   UNL     1       7.274   5.584  19.461  0.00  0.00    +0.000 C 
ATOM     14  C   UNL     1       6.779   5.188  18.268  0.00  0.00    +0.000 C 
BRANCH  14  15
ATOM     15  C   UNL     1       7.428   5.540  16.960  0.00  0.00    +0.000 C 
ATOM     16  O   UNL     1       7.556   6.697  16.582  0.00  0.00    +0.000 OA
BRANCH  15  17
ATOM     17  O   UNL     1       7.896   4.504  16.240  0.00  0.00    +0.000 OA
ATOM     18  H   UNL     1       8.687   4.685  15.708  0.00  0.00    +0.000 HD
ENDBRANCH  15  17
ENDBRANCH  14  15
ENDBRANCH   1  14
BRANCH   9  19
ATOM     19  O   UNL     1       3.538   2.520  21.556  0.00  0.00    +0.000 OA
ATOM     20  H   UNL     1       3.861   1.700  21.145  0.00  0.00    +0.000 HD
ENDBRANCH   9  19
TORSDOF 4
ENDMDL
