MODEL 1
REMARK VINA RESULT:      -6.9      0.000      0.000
REMARK  Name = 
REMARK  7 active torsions:
REMARK  status: ('A' for Active; 'I' for Inactive)
REMARK    1  A    between atoms: C_1  and  O_2
REMARK    2  A    between atoms: O_2  and  C_3
REMARK    3  A    between atoms: C_3  and  C_5
REMARK    4  A    between atoms: C_10  and  C_11
REMARK    5  A    between atoms: C_11  and  O_13
REMARK    6  A    between atoms: C_14  and  C_15
REMARK    7  A    between atoms: C_14  and  C_16
REMARK                            x       y       z     vdW  Elec       q    Type
REMARK                         _______ _______ _______ _____ _____    ______ ____
ROOT
ATOM      1  C   UNL     1       7.354   4.698  16.860  0.00  0.00    +0.000 C 
ATOM      2  C   UNL     1       6.368   5.162  17.626  0.00  0.00    +0.000 C 
ATOM      3  C   UNL     1       6.166   5.313  19.057  0.00  0.00    +0.000 C 
ATOM      4  O   UNL     1       6.762   4.960  20.049  0.00  0.00    +0.000 OA
ATOM      5  N   UNL     1       4.921   5.841  18.877  0.00  0.00    +0.000 N 
ATOM      6  C   UNL     1       3.761   5.262  19.576  0.00  0.00    +0.000 C 
ATOM      7  C   UNL     1       3.346   3.987  18.801  0.00  0.00    +0.000 C 
ATOM      8  C   UNL     1       1.884   3.553  18.952  0.00  0.00    +0.000 C 
ATOM      9  C   UNL     1       4.216   2.767  19.176  0.00  0.00    +0.000 C 
ATOM     10  S   UNL     1       3.683   4.386  17.032  0.00  0.00    +0.000 S 
ATOM     11  C   UNL     1       4.960   5.652  17.416  0.00  0.00    +0.000 C 
ENDROOT
BRANCH   1  12
ATOM     12  C   UNL     1       7.121   4.727  15.410  0.00  0.00    +0.000 C 
ATOM     13  O   UNL     1       7.534   5.597  14.660  0.00  0.00    +0.000 OA
BRANCH  12  15
ATOM     14  C   UNL     1       5.838   3.740  13.747  0.00  0.00    +0.000 C 
ATOM     15  O   UNL     1       6.386   3.646  15.064  0.00  0.00    +0.000 OA
ENDBRANCH  12  15
ENDBRANCH   1  12
BRANCH   6  16
ATOM     16  C   UNL     1       2.685   6.360  19.668  0.00  0.00    +0.000 C 
ATOM     17  O   UNL     1       2.359   7.098  18.752  0.00  0.00    +0.000 OA
BRANCH  16  18
ATOM     18  O   UNL     1       2.043   6.402  20.866  0.00  0.00    +0.000 OA
ATOM     19  H   UNL     1       2.452   7.072  21.453  0.00  0.00    +0.000 HD
ENDBRANCH  16  18
ENDBRANCH   6  16
TORSDOF 4
ENDMDL
MODEL 2
REMARK VINA RESULT:      -6.7      2.401      3.429
REMARK  Name = 
REMARK  7 active torsions:
REMARK  status: ('A' for Active; 'I' for Inactive)
REMARK    1  A    between atoms: C_1  and  O_2
REMARK    2  A    between atoms: O_2  and  C_3
REMARK    3  A    between atoms: C_3  and  C_5
REMARK    4  A    between atoms: C_10  and  C_11
REMARK    5  A    between atoms: C_11  and  O_13
REMARK    6  A    between atoms: C_14  and  C_15
REMARK    7  A    between atoms: C_14  and  C_16
REMARK                            x       y       z     vdW  Elec       q    Type
REMARK                         _______ _______ _______ _____ _____    ______ ____
ROOT
ATOM      1  C   UNL     1       5.490   4.291  16.125  0.00  0.00    +0.000 C 
ATOM      2  C   UNL     1       4.743   3.819  17.121  0.00  0.00    +0.000 C 
ATOM      3  C   UNL     1       3.457   3.147  17.210  0.00  0.00    +0.000 C 
ATOM      4  O   UNL     1       2.566   2.897  16.431  0.00  0.00    +0.000 OA
ATOM      5  N   UNL     1       3.532   3.074  18.570  0.00  0.00    +0.000 N 
ATOM      6  C   UNL     1       2.430   3.584  19.403  0.00  0.00    +0.000 C 
ATOM      7  C   UNL     1       2.577   5.125  19.466  0.00  0.00    +0.000 C 
ATOM      8  C   UNL     1       1.955   5.811  20.686  0.00  0.00    +0.000 C 
ATOM      9  C   UNL     1       1.991   5.818  18.216  0.00  0.00    +0.000 C 
ATOM     10  S   UNL     1       4.398   5.420  19.463  0.00  0.00    +0.000 S 
ATOM     11  C   UNL     1       4.795   3.831  18.626  0.00  0.00    +0.000 C 
ENDROOT
BRANCH   1  12
ATOM     12  C   UNL     1       6.760   4.923  16.505  0.00  0.00    +0.000 C 
ATOM     13  O   UNL     1       7.770   4.313  16.815  0.00  0.00    +0.000 OA
BRANCH  12  15
ATOM     14  C   UNL     1       7.354   6.951  17.467  0.00  0.00    +0.000 C 
ATOM     15  O   UNL     1       6.612   6.267  16.454  0.00  0.00    +0.000 OA
ENDBRANCH  12  15
ENDBRANCH   1  12
BRANCH   6  16
ATOM     16  C   UNL     1       2.502   2.857  20.758  0.00  0.00    +0.000 C 
ATOM     17  O   UNL     1       3.536   2.543  21.329  0.00  0.00    +0.000 OA
BRANCH  16  18
ATOM     18  O   UNL     1       1.289   2.648  21.336  0.00  0.00    +0.000 OA
ATOM     19  H   UNL     1       1.173   3.232  22.114  0.00  0.00    +0.000 HD
ENDBRANCH  16  18
ENDBRANCH   6  16
TORSDOF 4
ENDMDL
MODEL 3
REMARK VINA RESULT:      -6.4      2.169      5.116
REMARK  Name = 
REMARK  7 active torsions:
REMARK  status: ('A' for Active; 'I' for Inactive)
REMARK    1  A    between atoms: C_1  and  O_2
REMARK    2  A    between atoms: O_2  and  C_3
REMARK    3  A    between atoms: C_3  and  C_5
REMARK    4  A    between atoms: C_10  and  C_11
REMARK    5  A    between atoms: C_11  and  O_13
REMARK    6  A    between atoms: C_14  and  C_15
REMARK    7  A    between atoms: C_14  and  C_16
REMARK                            x       y       z     vdW  Elec       q    Type
REMARK                         _______ _______ _______ _____ _____    ______ ____
ROOT
ATOM      1  C   UNL     1       1.847   4.912  17.932  0.00  0.00    +0.000 C 
ATOM      2  C   UNL     1       3.096   5.329  18.129  0.00  0.00    +0.000 C 
ATOM      3  C   UNL     1       3.778   6.608  18.025  0.00  0.00    +0.000 C 
ATOM      4  O   UNL     1       3.484   7.704  17.606  0.00  0.00    +0.000 OA
ATOM      5  N   UNL     1       4.970   6.060  18.398  0.00  0.00    +0.000 N 
ATOM      6  C   UNL     1       6.169   6.250  17.564  0.00  0.00    +0.000 C 
ATOM      7  C   UNL     1       6.068   5.255  16.381  0.00  0.00    +0.000 C 
ATOM      8  C   UNL     1       7.394   4.843  15.732  0.00  0.00    +0.000 C 
ATOM      9  C   UNL     1       5.161   5.784  15.249  0.00  0.00    +0.000 C 
ATOM     10  S   UNL     1       5.251   3.763  17.095  0.00  0.00    +0.000 S 
ATOM     11  C   UNL     1       4.423   4.693  18.449  0.00  0.00    +0.000 C 
ENDROOT
BRANCH   1  12
ATOM     12  C   UNL     1       1.594   3.482  18.155  0.00  0.00    +0.000 C 
ATOM     13  O   UNL     1       1.911   2.595  17.380  0.00  0.00    +0.000 OA
BRANCH  12  15
ATOM     14  C   UNL     1       1.695   2.517  20.264  0.00  0.00    +0.000 C 
ATOM     15  O   UNL     1       0.964   3.330  19.343  0.00  0.00    +0.000 OA
ENDBRANCH  12  15
ENDBRANCH   1  12
BRANCH   6  16
ATOM     16  C   UNL     1       7.397   6.072  18.475  0.00  0.00    +0.000 C 
ATOM     17  O   UNL     1       7.699   5.036  19.047  0.00  0.00    +0.000 OA
BRANCH  16  18
ATOM     18  O   UNL     1       8.198   7.169  18.540  0.00  0.00    +0.000 OA
ATOM     19  H   UNL     1       8.774   7.129  19.332  0.00  0.00    +0.000 HD
ENDBRANCH  16  18
ENDBRANCH   6  16
TORSDOF 4
ENDMDL
MODEL 4
REMARK VINA RESULT:      -6.3      2.352      3.476
REMARK  Name = 
REMARK  7 active torsions:
REMARK  status: ('A' for Active; 'I' for Inactive)
REMARK    1  A    between atoms: C_1  and  O_2
REMARK    2  A    between atoms: O_2  and  C_3
REMARK    3  A    between atoms: C_3  and  C_5
REMARK    4  A    between atoms: C_10  and  C_11
REMARK    5  A    between atoms: C_11  and  O_13
REMARK    6  A    between atoms: C_14  and  C_15
REMARK    7  A    between atoms: C_14  and  C_16
REMARK                            x       y       z     vdW  Elec       q    Type
REMARK                         _______ _______ _______ _____ _____    ______ ____
ROOT
ATOM      1  C   UNL     1       5.530   6.197  17.884  0.00  0.00    +0.000 C 
ATOM      2  C   UNL     1       4.443   5.427  17.878  0.00  0.00    +0.000 C 
ATOM      3  C   UNL     1       3.011   5.675  17.841  0.00  0.00    +0.000 C 
ATOM      4  O   UNL     1       2.309   6.656  17.927  0.00  0.00    +0.000 OA
ATOM      5  N   UNL     1       2.728   4.341  17.873  0.00  0.00    +0.000 N 
ATOM      6  C   UNL     1       1.806   3.802  18.887  0.00  0.00    +0.000 C 
ATOM      7  C   UNL     1       2.601   3.677  20.211  0.00  0.00    +0.000 C 
ATOM      8  C   UNL     1       2.083   2.639  21.212  0.00  0.00    +0.000 C 
ATOM      9  C   UNL     1       2.690   5.021  20.966  0.00  0.00    +0.000 C 
ATOM     10  S   UNL     1       4.310   3.219  19.688  0.00  0.00    +0.000 S 
ATOM     11  C   UNL     1       4.144   3.957  18.011  0.00  0.00    +0.000 C 
ENDROOT
BRANCH   1  12
ATOM     12  C   UNL     1       6.821   5.499  17.937  0.00  0.00    +0.000 C 
ATOM     13  O   UNL     1       7.248   4.907  18.915  0.00  0.00    +0.000 OA
BRANCH  12  15
ATOM     14  C   UNL     1       7.111   4.578  15.826  0.00  0.00    +0.000 C 
ATOM     15  O   UNL     1       7.438   5.628  16.740  0.00  0.00    +0.000 OA
ENDBRANCH  12  15
ENDBRANCH   1  12
BRANCH   6  16
ATOM     16  C   UNL     1       1.233   2.484  18.333  0.00  0.00    +0.000 C 
ATOM     17  O   UNL     1       0.100   2.075  18.536  0.00  0.00    +0.000 OA
BRANCH  16  18
ATOM     18  O   UNL     1       2.084   1.818  17.508  0.00  0.00    +0.000 OA
ATOM     19  H   UNL     1       2.075   0.858  17.706  0.00  0.00    +0.000 HD
ENDBRANCH  16  18
ENDBRANCH   6  16
TORSDOF 4
ENDMDL
MODEL 5
REMARK VINA RESULT:      -6.3      0.956      1.134
REMARK  Name = 
REMARK  7 active torsions:
REMARK  status: ('A' for Active; 'I' for Inactive)
REMARK    1  A    between atoms: C_1  and  O_2
REMARK    2  A    between atoms: O_2  and  C_3
REMARK    3  A    between atoms: C_3  and  C_5
REMARK    4  A    between atoms: C_10  and  C_11
REMARK    5  A    between atoms: C_11  and  O_13
REMARK    6  A    between atoms: C_14  and  C_15
REMARK    7  A    between atoms: C_14  and  C_16
REMARK                            x       y       z     vdW  Elec       q    Type
REMARK                         _______ _______ _______ _____ _____    ______ ____
ROOT
ATOM      1  C   UNL     1       6.575   4.976  16.733  0.00  0.00    +0.000 C 
ATOM      2  C   UNL     1       5.653   5.189  17.669  0.00  0.00    +0.000 C 
ATOM      3  C   UNL     1       5.661   5.250  19.122  0.00  0.00    +0.000 C 
ATOM      4  O   UNL     1       6.472   5.006  19.985  0.00  0.00    +0.000 OA
ATOM      5  N   UNL     1       4.320   5.498  19.169  0.00  0.00    +0.000 N 
ATOM      6  C   UNL     1       3.439   4.659  20.000  0.00  0.00    +0.000 C 
ATOM      7  C   UNL     1       3.181   3.347  19.216  0.00  0.00    +0.000 C 
ATOM      8  C   UNL     1       1.889   2.600  19.562  0.00  0.00    +0.000 C 
ATOM      9  C   UNL     1       4.338   2.337  19.374  0.00  0.00    +0.000 C 
ATOM     10  S   UNL     1       3.131   3.863  17.446  0.00  0.00    +0.000 S 
ATOM     11  C   UNL     1       4.158   5.366  17.711  0.00  0.00    +0.000 C 
ENDROOT
BRANCH   1  12
ATOM     12  C   UNL     1       6.107   4.996  15.341  0.00  0.00    +0.000 C 
ATOM     13  O   UNL     1       5.663   5.982  14.775  0.00  0.00    +0.000 OA
BRANCH  12  15
ATOM     14  C   UNL     1       6.148   3.744  13.387  0.00  0.00    +0.000 C 
ATOM     15  O   UNL     1       6.252   3.759  14.813  0.00  0.00    +0.000 OA
ENDBRANCH  12  15
ENDBRANCH   1  12
BRANCH   6  16
ATOM     16  C   UNL     1       2.185   5.491  20.326  0.00  0.00    +0.000 C 
ATOM     17  O   UNL     1       1.107   5.028  20.663  0.00  0.00    +0.000 OA
BRANCH  16  18
ATOM     18  O   UNL     1       2.391   6.835  20.287  0.00  0.00    +0.000 OA
ATOM     19  H   UNL     1       2.508   7.138  19.362  0.00  0.00    +0.000 HD
ENDBRANCH  16  18
ENDBRANCH   6  16
TORSDOF 4
ENDMDL
MODEL 6
REMARK VINA RESULT:      -6.3      2.546      3.906
REMARK  Name = 
REMARK  7 active torsions:
REMARK  status: ('A' for Active; 'I' for Inactive)
REMARK    1  A    between atoms: C_1  and  O_2
REMARK    2  A    between atoms: O_2  and  C_3
REMARK    3  A    between atoms: C_3  and  C_5
REMARK    4  A    between atoms: C_10  and  C_11
REMARK    5  A    between atoms: C_11  and  O_13
REMARK    6  A    between atoms: C_14  and  C_15
REMARK    7  A    between atoms: C_14  and  C_16
REMARK                            x       y       z     vdW  Elec       q    Type
REMARK                         _______ _______ _______ _____ _____    ______ ____
ROOT
ATOM      1  C   UNL     1       7.261   6.099  17.417  0.00  0.00    +0.000 C 
ATOM      2  C   UNL     1       6.319   5.159  17.400  0.00  0.00    +0.000 C 
ATOM      3  C   UNL     1       5.397   4.649  16.398  0.00  0.00    +0.000 C 
ATOM      4  O   UNL     1       5.079   4.980  15.279  0.00  0.00    +0.000 OA
ATOM      5  N   UNL     1       4.860   3.753  17.275  0.00  0.00    +0.000 N 
ATOM      6  C   UNL     1       3.404   3.707  17.491  0.00  0.00    +0.000 C 
ATOM      7  C   UNL     1       3.044   4.874  18.444  0.00  0.00    +0.000 C 
ATOM      8  C   UNL     1       1.762   4.702  19.265  0.00  0.00    +0.000 C 
ATOM      9  C   UNL     1       2.919   6.220  17.698  0.00  0.00    +0.000 C 
ATOM     10  S   UNL     1       4.486   5.004  19.587  0.00  0.00    +0.000 S 
ATOM     11  C   UNL     1       5.670   4.243  18.404  0.00  0.00    +0.000 C 
ENDROOT
BRANCH   1  12
ATOM     12  C   UNL     1       7.967   6.291  18.691  0.00  0.00    +0.000 C 
ATOM     13  O   UNL     1       8.154   5.412  19.517  0.00  0.00    +0.000 OA
BRANCH  12  15
ATOM     14  C   UNL     1       7.885   8.391  17.705  0.00  0.00    +0.000 C 
ATOM     15  O   UNL     1       8.361   7.582  18.783  0.00  0.00    +0.000 OA
ENDBRANCH  12  15
ENDBRANCH   1  12
BRANCH   6  16
ATOM     16  C   UNL     1       3.059   2.299  18.010  0.00  0.00    +0.000 C 
ATOM     17  O   UNL     1       3.715   1.677  18.831  0.00  0.00    +0.000 OA
BRANCH  16  18
ATOM     18  O   UNL     1       1.885   1.808  17.530  0.00  0.00    +0.000 OA
ATOM     19  H   UNL     1       1.718   2.140  16.624  0.00  0.00    +0.000 HD
ENDBRANCH  16  18
ENDBRANCH   6  16
TORSDOF 4
ENDMDL
MODEL 7
REMARK VINA RESULT:      -6.2      2.460      3.454
REMARK  Name = 
REMARK  7 active torsions:
REMARK  status: ('A' for Active; 'I' for Inactive)
REMARK    1  A    between atoms: C_1  and  O_2
REMARK    2  A    between atoms: O_2  and  C_3
REMARK    3  A    between atoms: C_3  and  C_5
REMARK    4  A    between atoms: C_10  and  C_11
REMARK    5  A    between atoms: C_11  and  O_13
REMARK    6  A    between atoms: C_14  and  C_15
REMARK    7  A    between atoms: C_14  and  C_16
REMARK                            x       y       z     vdW  Elec       q    Type
REMARK                         _______ _______ _______ _____ _____    ______ ____
ROOT
ATOM      1  C   UNL     1       5.016   4.081  16.140  0.00  0.00    +0.000 C 
ATOM      2  C   UNL     1       4.465   3.630  17.266  0.00  0.00    +0.000 C 
ATOM      3  C   UNL     1       3.360   2.741  17.581  0.00  0.00    +0.000 C 
ATOM      4  O   UNL     1       2.483   2.204  16.944  0.00  0.00    +0.000 OA
ATOM      5  N   UNL     1       3.554   2.894  18.923  0.00  0.00    +0.000 N 
ATOM      6  C   UNL     1       2.437   3.300  19.793  0.00  0.00    +0.000 C 
ATOM      7  C   UNL     1       2.263   4.831  19.632  0.00  0.00    +0.000 C 
ATOM      8  C   UNL     1       1.608   5.562  20.809  0.00  0.00    +0.000 C 
ATOM      9  C   UNL     1       1.449   5.196  18.371  0.00  0.00    +0.000 C 
ATOM     10  S   UNL     1       3.975   5.473  19.393  0.00  0.00    +0.000 S 
ATOM     11  C   UNL     1       4.630   3.884  18.740  0.00  0.00    +0.000 C 
ENDROOT
BRANCH   1  12
ATOM     12  C   UNL     1       6.152   5.000  16.293  0.00  0.00    +0.000 C 
ATOM     13  O   UNL     1       6.083   6.211  16.164  0.00  0.00    +0.000 OA
BRANCH  12  15
ATOM     14  C   UNL     1       7.844   4.654  17.844  0.00  0.00    +0.000 C 
ATOM     15  O   UNL     1       7.258   4.282  16.595  0.00  0.00    +0.000 OA
ENDBRANCH  12  15
ENDBRANCH   1  12
BRANCH   6  16
ATOM     16  C   UNL     1       2.765   2.819  21.219  0.00  0.00    +0.000 C 
ATOM     17  O   UNL     1       2.019   2.920  22.180  0.00  0.00    +0.000 OA
BRANCH  16  18
ATOM     18  O   UNL     1       3.961   2.179  21.321  0.00  0.00    +0.000 OA
ATOM     19  H   UNL     1       4.019   1.691  22.169  0.00  0.00    +0.000 HD
ENDBRANCH  16  18
ENDBRANCH   6  16
TORSDOF 4
ENDMDL
MODEL 8
REMARK VINA RESULT:      -6.2      2.370      3.302
REMARK  Name = 
REMARK  7 active torsions:
REMARK  status: ('A' for Active; 'I' for Inactive)
REMARK    1  A    between atoms: C_1  and  O_2
REMARK    2  A    between atoms: O_2  and  C_3
REMARK    3  A    between atoms: C_3  and  C_5
REMARK    4  A    between atoms: C_10  and  C_11
REMARK    5  A    between atoms: C_11  and  O_13
REMARK    6  A    between atoms: C_14  and  C_15
REMARK    7  A    between atoms: C_14  and  C_16
REMARK                            x       y       z     vdW  Elec       q    Type
REMARK                         _______ _______ _______ _____ _____    ______ ____
ROOT
ATOM      1  C   UNL     1       5.031   4.642  15.781  0.00  0.00    +0.000 C 
ATOM      2  C   UNL     1       4.648   4.005  16.886  0.00  0.00    +0.000 C 
ATOM      3  C   UNL     1       3.609   3.039  17.204  0.00  0.00    +0.000 C 
ATOM      4  O   UNL     1       2.661   2.575  16.614  0.00  0.00    +0.000 OA
ATOM      5  N   UNL     1       3.985   2.993  18.515  0.00  0.00    +0.000 N 
ATOM      6  C   UNL     1       2.993   3.220  19.580  0.00  0.00    +0.000 C 
ATOM      7  C   UNL     1       2.775   4.751  19.684  0.00  0.00    +0.000 C 
ATOM      8  C   UNL     1       2.278   5.269  21.038  0.00  0.00    +0.000 C 
ATOM      9  C   UNL     1       1.790   5.274  18.617  0.00  0.00    +0.000 C 
ATOM     10  S   UNL     1       4.429   5.483  19.322  0.00  0.00    +0.000 S 
ATOM     11  C   UNL     1       5.010   4.037  18.347  0.00  0.00    +0.000 C 
ENDROOT
BRANCH   1  12
ATOM     12  C   UNL     1       6.163   5.568  15.923  0.00  0.00    +0.000 C 
ATOM     13  O   UNL     1       6.091   6.676  16.428  0.00  0.00    +0.000 OA
BRANCH  12  15
ATOM     14  C   UNL     1       7.171   4.748  13.999  0.00  0.00    +0.000 C 
ATOM     15  O   UNL     1       7.270   4.987  15.405  0.00  0.00    +0.000 OA
ENDBRANCH  12  15
ENDBRANCH   1  12
BRANCH   6  16
ATOM     16  C   UNL     1       3.522   2.539  20.856  0.00  0.00    +0.000 C 
ATOM     17  O   UNL     1       2.888   2.404  21.891  0.00  0.00    +0.000 OA
BRANCH  16  18
ATOM     18  O   UNL     1       4.767   2.009  20.720  0.00  0.00    +0.000 OA
ATOM     19  H   UNL     1       5.400   2.692  20.414  0.00  0.00    +0.000 HD
ENDBRANCH  16  18
ENDBRANCH   6  16
TORSDOF 4
ENDMDL
MODEL 9
REMARK VINA RESULT:      -6.1      2.446      3.809
REMARK  Name = 
REMARK  7 active torsions:
REMARK  status: ('A' for Active; 'I' for Inactive)
REMARK    1  A    between atoms: C_1  and  O_2
REMARK    2  A    between atoms: O_2  and  C_3
REMARK    3  A    between atoms: C_3  and  C_5
REMARK    4  A    between atoms: C_10  and  C_11
REMARK    5  A    between atoms: C_11  and  O_13
REMARK    6  A    between atoms: C_14  and  C_15
REMARK    7  A    between atoms: C_14  and  C_16
REMARK                            x       y       z     vdW  Elec       q    Type
REMARK                         _______ _______ _______ _____ _____    ______ ____
ROOT
ATOM      1  C   UNL     1       5.490   6.076  17.866  0.00  0.00    +0.000 C 
ATOM      2  C   UNL     1       4.399   5.313  17.886  0.00  0.00    +0.000 C 
ATOM      3  C   UNL     1       2.969   5.568  17.827  0.00  0.00    +0.000 C 
ATOM      4  O   UNL     1       2.272   6.556  17.867  0.00  0.00    +0.000 OA
ATOM      5  N   UNL     1       2.677   4.238  17.915  0.00  0.00    +0.000 N 
ATOM      6  C   UNL     1       1.745   3.748  18.944  0.00  0.00    +0.000 C 
ATOM      7  C   UNL     1       2.530   3.676  20.278  0.00  0.00    +0.000 C 
ATOM      8  C   UNL     1       1.998   2.685  21.319  0.00  0.00    +0.000 C 
ATOM      9  C   UNL     1       2.622   5.050  20.975  0.00  0.00    +0.000 C 
ATOM     10  S   UNL     1       4.239   3.185  19.787  0.00  0.00    +0.000 S 
ATOM     11  C   UNL     1       4.090   3.852  18.079  0.00  0.00    +0.000 C 
ENDROOT
BRANCH   1  12
ATOM     12  C   UNL     1       6.777   5.374  17.959  0.00  0.00    +0.000 C 
ATOM     13  O   UNL     1       7.492   5.111  17.005  0.00  0.00    +0.000 OA
BRANCH  12  15
ATOM     14  C   UNL     1       8.169   5.751  19.778  0.00  0.00    +0.000 C 
ATOM     15  O   UNL     1       7.021   5.077  19.256  0.00  0.00    +0.000 OA
ENDBRANCH  12  15
ENDBRANCH   1  12
BRANCH   6  16
ATOM     16  C   UNL     1       1.167   2.411  18.443  0.00  0.00    +0.000 C 
ATOM     17  O   UNL     1       0.079   1.957  18.761  0.00  0.00    +0.000 OA
BRANCH  16  18
ATOM     18  O   UNL     1       1.950   1.782  17.527  0.00  0.00    +0.000 OA
ATOM     19  H   UNL     1       1.524   0.956  17.218  0.00  0.00    +0.000 HD
ENDBRANCH  16  18
ENDBRANCH   6  16
TORSDOF 4
ENDMDL
