MODEL 1
REMARK VINA RESULT:      -9.0      0.000      0.000
REMARK  Name = 
REMARK  11 active torsions:
REMARK  status: ('A' for Active; 'I' for Inactive)
REMARK    1  A    between atoms: C_1  and  C_2
REMARK    2  A    between atoms: C_2  and  C_3
REMARK    3  A    between atoms: C_2  and  C_4
REMARK    4  A    between atoms: C_2  and  C_5
REMARK    5  A    between atoms: C_7  and  N_8
REMARK    6  A    between atoms: C_17  and  C_18
REMARK    7  A    between atoms: N_20  and  C_21
REMARK    8  A    between atoms: C_24  and  O_25
REMARK    9  A    between atoms: O_25  and  S_26
REMARK   10  A    between atoms: S_26  and  C_27
REMARK   11  A    between atoms: C_32  and  O_33
REMARK                            x       y       z     vdW  Elec       q    Type
REMARK                         _______ _______ _______ _____ _____    ______ ____
ROOT
ATOM      1  C   UNL     1       2.743   4.010  18.906  0.00  0.00    +0.000 A 
ATOM      2  C   UNL     1       3.790   4.035  17.959  0.00  0.00    +0.000 A 
ATOM      3  C   UNL     1       4.317   5.218  17.438  0.00  0.00    +0.000 A 
ATOM      4  C   UNL     1       3.784   6.435  17.846  0.00  0.00    +0.000 A 
ATOM      5  C   UNL     1       2.715   6.466  18.763  0.00  0.00    +0.000 A 
ATOM      6  C   UNL     1       2.245   5.263  19.317  0.00  0.00    +0.000 A 
ENDROOT
BRANCH   3   7
ATOM      7  N   UNL     1       5.395   5.136  16.523  0.00  0.00    +0.000 N 
ATOM      8  C   UNL     1       5.398   4.086  15.518  0.00  0.00    +0.000 C 
ATOM      9  C   UNL     1       5.931   4.632  14.205  0.00  0.00    +0.000 C 
ATOM     10  C   UNL     1       7.265   5.285  14.435  0.00  0.00    +0.000 C 
ATOM     11  O   UNL     1       8.097   5.419  13.542  0.00  0.00    +0.000 OA
ATOM     12  N   UNL     1       7.453   5.833  15.674  0.00  0.00    +0.000 N 
ATOM     13  C   UNL     1       6.492   5.985  16.642  0.00  0.00    +0.000 C 
ATOM     14  O   UNL     1       6.644   6.833  17.518  0.00  0.00    +0.000 OA
ATOM     15  H   UNL     1       8.272   6.415  15.781  0.00  0.00    +0.000 HD
ENDBRANCH   3   7
BRANCH   1  17
ATOM     16  C   UNL     1       0.807   2.332  19.051  0.00  0.00    +0.000 C 
ATOM     17  C   UNL     1       2.274   2.644  19.460  0.00  0.00    +0.000 C 
ATOM     18  C   UNL     1       2.294   2.555  21.003  0.00  0.00    +0.000 C 
ATOM     19  C   UNL     1       3.179   1.536  18.893  0.00  0.00    +0.000 C 
ENDBRANCH   1  17
BRANCH   5  20
ATOM     20  C   UNL     1       2.179   7.805  19.121  0.00  0.00    +0.000 C 
ATOM     21  O   UNL     1       1.989   8.011  20.317  0.00  0.00    +0.000 OA
ATOM     22  N   UNL     1       1.920   8.711  18.092  0.00  0.00    +0.000 N 
ATOM     23  H   UNL     1       2.224   8.489  17.145  0.00  0.00    +0.000 HD
BRANCH  22  24
ATOM     24  C   UNL     1       1.365   9.986  18.303  0.00  0.00    +0.000 A 
ATOM     25  C   UNL     1       2.196  11.106  18.279  0.00  0.00    +0.000 A 
ATOM     26  C   UNL     1       1.695  12.383  18.489  0.00  0.00    +0.000 A 
ATOM     27  C   UNL     1       0.356  12.557  18.826  0.00  0.00    +0.000 A 
ATOM     28  C   UNL     1      -0.497  11.445  18.813  0.00  0.00    +0.000 A 
ATOM     29  C   UNL     1      -0.003  10.161  18.510  0.00  0.00    +0.000 A 
BRANCH  27  30
ATOM     30  O   UNL     1      -0.178  13.747  19.258  0.00  0.00    +0.000 OA
BRANCH  30  31
ATOM     31  S   UNL     1      -0.103  14.222  20.828  0.00  0.00    +0.000 S 
ATOM     32  C   UNL     1      -1.811  13.952  21.298  0.00  0.00    +0.000 C 
ATOM     33  O   UNL     1       0.720  13.275  21.589  0.00  0.00    +0.000 OA
ATOM     34  O   UNL     1       0.148  15.630  20.874  0.00  0.00    +0.000 OA
ENDBRANCH  30  31
ENDBRANCH  27  30
ENDBRANCH  22  24
ENDBRANCH   5  20
BRANCH   6  35
ATOM     35  O   UNL     1       1.322   5.319  20.332  0.00  0.00    +0.000 OA
ATOM     36  H   UNL     1       1.580   4.614  20.957  0.00  0.00    +0.000 HD
ENDBRANCH   6  35
TORSDOF 7
ENDMDL
MODEL 2
REMARK VINA RESULT:      -8.9      0.640      1.064
REMARK  Name = 
REMARK  11 active torsions:
REMARK  status: ('A' for Active; 'I' for Inactive)
REMARK    1  A    between atoms: C_1  and  C_2
REMARK    2  A    between atoms: C_2  and  C_3
REMARK    3  A    between atoms: C_2  and  C_4
REMARK    4  A    between atoms: C_2  and  C_5
REMARK    5  A    between atoms: C_7  and  N_8
REMARK    6  A    between atoms: C_17  and  C_18
REMARK    7  A    between atoms: N_20  and  C_21
REMARK    8  A    between atoms: C_24  and  O_25
REMARK    9  A    between atoms: O_25  and  S_26
REMARK   10  A    between atoms: S_26  and  C_27
REMARK   11  A    between atoms: C_32  and  O_33
REMARK                            x       y       z     vdW  Elec       q    Type
REMARK                         _______ _______ _______ _____ _____    ______ ____
ROOT
ATOM      1  C   UNL     1       2.715   4.012  18.882  0.00  0.00    +0.000 A 
ATOM      2  C   UNL     1       3.770   4.044  17.944  0.00  0.00    +0.000 A 
ATOM      3  C   UNL     1       4.308   5.232  17.445  0.00  0.00    +0.000 A 
ATOM      4  C   UNL     1       3.780   6.446  17.867  0.00  0.00    +0.000 A 
ATOM      5  C   UNL     1       2.703   6.470  18.776  0.00  0.00    +0.000 A 
ATOM      6  C   UNL     1       2.221   5.262  19.308  0.00  0.00    +0.000 A 
ENDROOT
BRANCH   3   7
ATOM      7  N   UNL     1       5.394   5.157  16.538  0.00  0.00    +0.000 N 
ATOM      8  C   UNL     1       5.433   4.081  15.562  0.00  0.00    +0.000 C 
ATOM      9  C   UNL     1       5.957   4.605  14.238  0.00  0.00    +0.000 C 
ATOM     10  C   UNL     1       7.269   5.305  14.456  0.00  0.00    +0.000 C 
ATOM     11  O   UNL     1       8.102   5.439  13.563  0.00  0.00    +0.000 OA
ATOM     12  N   UNL     1       7.434   5.893  15.680  0.00  0.00    +0.000 N 
ATOM     13  C   UNL     1       6.464   6.043  16.639  0.00  0.00    +0.000 C 
ATOM     14  O   UNL     1       6.586   6.918  17.491  0.00  0.00    +0.000 OA
ATOM     15  H   UNL     1       8.235   6.501  15.774  0.00  0.00    +0.000 HD
ENDBRANCH   3   7
BRANCH   1  17
ATOM     16  C   UNL     1       2.262   2.582  20.964  0.00  0.00    +0.000 C 
ATOM     17  C   UNL     1       2.233   2.641  19.411  0.00  0.00    +0.000 C 
ATOM     18  C   UNL     1       3.099   1.450  18.942  0.00  0.00    +0.000 C 
ATOM     19  C   UNL     1       0.784   2.406  18.947  0.00  0.00    +0.000 C 
ENDBRANCH   1  17
BRANCH   5  20
ATOM     20  C   UNL     1       2.172   7.807  19.149  0.00  0.00    +0.000 C 
ATOM     21  O   UNL     1       1.952   7.988  20.345  0.00  0.00    +0.000 OA
ATOM     22  N   UNL     1       1.951   8.738  18.135  0.00  0.00    +0.000 N 
ATOM     23  H   UNL     1       2.278   8.534  17.192  0.00  0.00    +0.000 HD
BRANCH  22  24
ATOM     24  C   UNL     1       1.405  10.015  18.360  0.00  0.00    +0.000 A 
ATOM     25  C   UNL     1       2.226  11.137  18.263  0.00  0.00    +0.000 A 
ATOM     26  C   UNL     1       1.734  12.416  18.483  0.00  0.00    +0.000 A 
ATOM     27  C   UNL     1       0.419  12.590  18.904  0.00  0.00    +0.000 A 
ATOM     28  C   UNL     1      -0.427  11.475  18.966  0.00  0.00    +0.000 A 
ATOM     29  C   UNL     1       0.052  10.188  18.653  0.00  0.00    +0.000 A 
BRANCH  27  30
ATOM     30  O   UNL     1      -0.092  13.786  19.349  0.00  0.00    +0.000 OA
BRANCH  30  31
ATOM     31  S   UNL     1      -0.317  14.101  20.945  0.00  0.00    +0.000 S 
ATOM     32  C   UNL     1      -0.074  15.877  20.929  0.00  0.00    +0.000 C 
ATOM     33  O   UNL     1      -1.718  13.851  21.303  0.00  0.00    +0.000 OA
ATOM     34  O   UNL     1       0.757  13.517  21.688  0.00  0.00    +0.000 OA
ENDBRANCH  30  31
ENDBRANCH  27  30
ENDBRANCH  22  24
ENDBRANCH   5  20
BRANCH   6  35
ATOM     35  O   UNL     1       1.290   5.308  20.316  0.00  0.00    +0.000 OA
ATOM     36  H   UNL     1       0.423   5.224  19.874  0.00  0.00    +0.000 HD
ENDBRANCH   6  35
TORSDOF 7
ENDMDL
MODEL 3
REMARK VINA RESULT:      -8.8      0.583      1.020
REMARK  Name = 
REMARK  11 active torsions:
REMARK  status: ('A' for Active; 'I' for Inactive)
REMARK    1  A    between atoms: C_1  and  C_2
REMARK    2  A    between atoms: C_2  and  C_3
REMARK    3  A    between atoms: C_2  and  C_4
REMARK    4  A    between atoms: C_2  and  C_5
REMARK    5  A    between atoms: C_7  and  N_8
REMARK    6  A    between atoms: C_17  and  C_18
REMARK    7  A    between atoms: N_20  and  C_21
REMARK    8  A    between atoms: C_24  and  O_25
REMARK    9  A    between atoms: O_25  and  S_26
REMARK   10  A    between atoms: S_26  and  C_27
REMARK   11  A    between atoms: C_32  and  O_33
REMARK                            x       y       z     vdW  Elec       q    Type
REMARK                         _______ _______ _______ _____ _____    ______ ____
ROOT
ATOM      1  C   UNL     1       2.721   4.065  18.935  0.00  0.00    +0.000 A 
ATOM      2  C   UNL     1       3.769   4.086  17.989  0.00  0.00    +0.000 A 
ATOM      3  C   UNL     1       4.296   5.268  17.465  0.00  0.00    +0.000 A 
ATOM      4  C   UNL     1       3.762   6.486  17.867  0.00  0.00    +0.000 A 
ATOM      5  C   UNL     1       2.691   6.520  18.783  0.00  0.00    +0.000 A 
ATOM      6  C   UNL     1       2.221   5.319  19.341  0.00  0.00    +0.000 A 
ENDROOT
BRANCH   3   7
ATOM      7  N   UNL     1       5.376   5.184  16.552  0.00  0.00    +0.000 N 
ATOM      8  C   UNL     1       5.386   4.123  15.557  0.00  0.00    +0.000 C 
ATOM      9  C   UNL     1       5.917   4.658  14.239  0.00  0.00    +0.000 C 
ATOM     10  C   UNL     1       7.246   5.323  14.464  0.00  0.00    +0.000 C 
ATOM     11  O   UNL     1       8.078   5.453  13.570  0.00  0.00    +0.000 OA
ATOM     12  N   UNL     1       7.430   5.885  15.697  0.00  0.00    +0.000 N 
ATOM     13  C   UNL     1       6.467   6.041  16.663  0.00  0.00    +0.000 C 
ATOM     14  O   UNL     1       6.613   6.899  17.530  0.00  0.00    +0.000 OA
ATOM     15  H   UNL     1       8.245   6.473  15.798  0.00  0.00    +0.000 HD
ENDBRANCH   3   7
BRANCH   1  17
ATOM     16  C   UNL     1       0.783   2.391  19.093  0.00  0.00    +0.000 C 
ATOM     17  C   UNL     1       2.252   2.700  19.494  0.00  0.00    +0.000 C 
ATOM     18  C   UNL     1       2.281   2.613  21.036  0.00  0.00    +0.000 C 
ATOM     19  C   UNL     1       3.152   1.589  18.923  0.00  0.00    +0.000 C 
ENDBRANCH   1  17
BRANCH   5  20
ATOM     20  C   UNL     1       2.154   7.860  19.135  0.00  0.00    +0.000 C 
ATOM     21  O   UNL     1       1.899   8.047  20.322  0.00  0.00    +0.000 OA
ATOM     22  N   UNL     1       1.965   8.788  18.110  0.00  0.00    +0.000 N 
ATOM     23  H   UNL     1       2.320   8.578  17.178  0.00  0.00    +0.000 HD
BRANCH  22  24
ATOM     24  C   UNL     1       1.417  10.067  18.314  0.00  0.00    +0.000 A 
ATOM     25  C   UNL     1       0.055  10.191  18.589  0.00  0.00    +0.000 A 
ATOM     26  C   UNL     1      -0.532  11.432  18.789  0.00  0.00    +0.000 A 
ATOM     27  C   UNL     1       0.220  12.592  18.621  0.00  0.00    +0.000 A 
ATOM     28  C   UNL     1       1.597  12.479  18.385  0.00  0.00    +0.000 A 
ATOM     29  C   UNL     1       2.208  11.215  18.272  0.00  0.00    +0.000 A 
BRANCH  27  30
ATOM     30  O   UNL     1      -0.316  13.856  18.587  0.00  0.00    +0.000 OA
BRANCH  30  31
ATOM     31  S   UNL     1       0.046  14.992  19.717  0.00  0.00    +0.000 S 
ATOM     32  C   UNL     1      -1.610  15.389  20.273  0.00  0.00    +0.000 C 
ATOM     33  O   UNL     1       0.750  14.361  20.839  0.00  0.00    +0.000 OA
ATOM     34  O   UNL     1       0.577  16.146  19.059  0.00  0.00    +0.000 OA
ENDBRANCH  30  31
ENDBRANCH  27  30
ENDBRANCH  22  24
ENDBRANCH   5  20
BRANCH   6  35
ATOM     35  O   UNL     1       1.297   5.378  20.354  0.00  0.00    +0.000 OA
ATOM     36  H   UNL     1       0.545   5.886  19.992  0.00  0.00    +0.000 HD
ENDBRANCH   6  35
TORSDOF 7
ENDMDL
MODEL 4
REMARK VINA RESULT:      -8.8      0.769      1.498
REMARK  Name = 
REMARK  11 active torsions:
REMARK  status: ('A' for Active; 'I' for Inactive)
REMARK    1  A    between atoms: C_1  and  C_2
REMARK    2  A    between atoms: C_2  and  C_3
REMARK    3  A    between atoms: C_2  and  C_4
REMARK    4  A    between atoms: C_2  and  C_5
REMARK    5  A    between atoms: C_7  and  N_8
REMARK    6  A    between atoms: C_17  and  C_18
REMARK    7  A    between atoms: N_20  and  C_21
REMARK    8  A    between atoms: C_24  and  O_25
REMARK    9  A    between atoms: O_25  and  S_26
REMARK   10  A    between atoms: S_26  and  C_27
REMARK   11  A    between atoms: C_32  and  O_33
REMARK                            x       y       z     vdW  Elec       q    Type
REMARK                         _______ _______ _______ _____ _____    ______ ____
ROOT
ATOM      1  C   UNL     1       2.719   4.046  18.860  0.00  0.00    +0.000 A 
ATOM      2  C   UNL     1       3.773   4.072  17.921  0.00  0.00    +0.000 A 
ATOM      3  C   UNL     1       4.308   5.257  17.413  0.00  0.00    +0.000 A 
ATOM      4  C   UNL     1       3.779   6.473  17.826  0.00  0.00    +0.000 A 
ATOM      5  C   UNL     1       2.704   6.503  18.736  0.00  0.00    +0.000 A 
ATOM      6  C   UNL     1       2.223   5.298  19.277  0.00  0.00    +0.000 A 
ENDROOT
BRANCH   3   7
ATOM      7  N   UNL     1       5.393   5.177  16.505  0.00  0.00    +0.000 N 
ATOM      8  C   UNL     1       5.435   4.090  15.540  0.00  0.00    +0.000 C 
ATOM      9  C   UNL     1       5.955   4.603  14.209  0.00  0.00    +0.000 C 
ATOM     10  C   UNL     1       7.265   5.309  14.418  0.00  0.00    +0.000 C 
ATOM     11  O   UNL     1       8.096   5.437  13.522  0.00  0.00    +0.000 OA
ATOM     12  N   UNL     1       7.430   5.911  15.636  0.00  0.00    +0.000 N 
ATOM     13  C   UNL     1       6.460   6.067  16.595  0.00  0.00    +0.000 C 
ATOM     14  O   UNL     1       6.580   6.952  17.438  0.00  0.00    +0.000 OA
ATOM     15  H   UNL     1       8.229   6.523  15.722  0.00  0.00    +0.000 HD
ENDBRANCH   3   7
BRANCH   1  17
ATOM     16  C   UNL     1       2.289   2.624  20.953  0.00  0.00    +0.000 C 
ATOM     17  C   UNL     1       2.239   2.678  19.400  0.00  0.00    +0.000 C 
ATOM     18  C   UNL     1       3.095   1.483  18.924  0.00  0.00    +0.000 C 
ATOM     19  C   UNL     1       0.783   2.446  18.957  0.00  0.00    +0.000 C 
ENDBRANCH   1  17
BRANCH   5  20
ATOM     20  C   UNL     1       2.171   7.842  19.100  0.00  0.00    +0.000 C 
ATOM     21  O   UNL     1       1.918   8.019  20.289  0.00  0.00    +0.000 OA
ATOM     22  N   UNL     1       1.987   8.780  18.084  0.00  0.00    +0.000 N 
ATOM     23  H   UNL     1       2.341   8.577  17.150  0.00  0.00    +0.000 HD
BRANCH  22  24
ATOM     24  C   UNL     1       1.443  10.059  18.299  0.00  0.00    +0.000 A 
ATOM     25  C   UNL     1       0.081  10.187  18.570  0.00  0.00    +0.000 A 
ATOM     26  C   UNL     1      -0.500  11.429  18.781  0.00  0.00    +0.000 A 
ATOM     27  C   UNL     1       0.258  12.586  18.629  0.00  0.00    +0.000 A 
ATOM     28  C   UNL     1       1.635  12.469  18.398  0.00  0.00    +0.000 A 
ATOM     29  C   UNL     1       2.240  11.204  18.274  0.00  0.00    +0.000 A 
BRANCH  27  30
ATOM     30  O   UNL     1      -0.273  13.854  18.607  0.00  0.00    +0.000 OA
BRANCH  30  31
ATOM     31  S   UNL     1      -0.295  14.817  19.937  0.00  0.00    +0.000 S 
ATOM     32  C   UNL     1       0.942  16.018  19.448  0.00  0.00    +0.000 C 
ATOM     33  O   UNL     1      -1.583  15.516  20.015  0.00  0.00    +0.000 OA
ATOM     34  O   UNL     1       0.223  14.082  21.049  0.00  0.00    +0.000 OA
ENDBRANCH  30  31
ENDBRANCH  27  30
ENDBRANCH  22  24
ENDBRANCH   5  20
BRANCH   6  35
ATOM     35  O   UNL     1       1.294   5.350  20.286  0.00  0.00    +0.000 OA
ATOM     36  H   UNL     1       1.770   5.708  21.060  0.00  0.00    +0.000 HD
ENDBRANCH   6  35
TORSDOF 7
ENDMDL
MODEL 5
REMARK VINA RESULT:      -8.6      1.691      1.886
REMARK  Name = 
REMARK  11 active torsions:
REMARK  status: ('A' for Active; 'I' for Inactive)
REMARK    1  A    between atoms: C_1  and  C_2
REMARK    2  A    between atoms: C_2  and  C_3
REMARK    3  A    between atoms: C_2  and  C_4
REMARK    4  A    between atoms: C_2  and  C_5
REMARK    5  A    between atoms: C_7  and  N_8
REMARK    6  A    between atoms: C_17  and  C_18
REMARK    7  A    between atoms: N_20  and  C_21
REMARK    8  A    between atoms: C_24  and  O_25
REMARK    9  A    between atoms: O_25  and  S_26
REMARK   10  A    between atoms: S_26  and  C_27
REMARK   11  A    between atoms: C_32  and  O_33
REMARK                            x       y       z     vdW  Elec       q    Type
REMARK                         _______ _______ _______ _____ _____    ______ ____
ROOT
ATOM      1  C   UNL     1       2.843   4.632  19.402  0.00  0.00    +0.000 A 
ATOM      2  C   UNL     1       3.857   4.512  18.426  0.00  0.00    +0.000 A 
ATOM      3  C   UNL     1       4.272   5.579  17.627  0.00  0.00    +0.000 A 
ATOM      4  C   UNL     1       3.656   6.816  17.772  0.00  0.00    +0.000 A 
ATOM      5  C   UNL     1       2.615   6.981  18.707  0.00  0.00    +0.000 A 
ATOM      6  C   UNL     1       2.258   5.907  19.541  0.00  0.00    +0.000 A 
ENDROOT
BRANCH   3   7
ATOM      7  N   UNL     1       5.327   5.365  16.705  0.00  0.00    +0.000 N 
ATOM      8  C   UNL     1       5.233   4.267  15.758  0.00  0.00    +0.000 C 
ATOM      9  C   UNL     1       5.786   4.699  14.412  0.00  0.00    +0.000 C 
ATOM     10  C   UNL     1       7.169   5.259  14.591  0.00  0.00    +0.000 C 
ATOM     11  O   UNL     1       7.995   5.281  13.682  0.00  0.00    +0.000 OA
ATOM     12  N   UNL     1       7.418   5.856  15.796  0.00  0.00    +0.000 N 
ATOM     13  C   UNL     1       6.487   6.133  16.766  0.00  0.00    +0.000 C 
ATOM     14  O   UNL     1       6.717   7.011  17.593  0.00  0.00    +0.000 OA
ATOM     15  H   UNL     1       8.281   6.378  15.862  0.00  0.00    +0.000 HD
ENDBRANCH   3   7
BRANCH   1  17
ATOM     16  C   UNL     1       1.161   2.743  19.836  0.00  0.00    +0.000 C 
ATOM     17  C   UNL     1       2.500   3.400  20.273  0.00  0.00    +0.000 C 
ATOM     18  C   UNL     1       2.325   3.724  21.773  0.00  0.00    +0.000 C 
ATOM     19  C   UNL     1       3.620   2.354  20.124  0.00  0.00    +0.000 C 
ENDBRANCH   1  17
BRANCH   5  20
ATOM     20  C   UNL     1       1.985   8.325  18.776  0.00  0.00    +0.000 C 
ATOM     21  O   UNL     1       2.332   9.131  17.917  0.00  0.00    +0.000 OA
ATOM     22  N   UNL     1       1.073   8.576  19.801  0.00  0.00    +0.000 N 
ATOM     23  H   UNL     1       0.761   7.805  20.390  0.00  0.00    +0.000 HD
BRANCH  22  24
ATOM     24  C   UNL     1       0.452   9.823  19.998  0.00  0.00    +0.000 A 
ATOM     25  C   UNL     1       0.880  10.642  21.042  0.00  0.00    +0.000 A 
ATOM     26  C   UNL     1       0.293  11.877  21.280  0.00  0.00    +0.000 A 
ATOM     27  C   UNL     1      -0.809  12.278  20.530  0.00  0.00    +0.000 A 
ATOM     28  C   UNL     1      -1.222  11.483  19.453  0.00  0.00    +0.000 A 
ATOM     29  C   UNL     1      -0.566  10.272  19.157  0.00  0.00    +0.000 A 
BRANCH  27  30
ATOM     30  O   UNL     1      -1.583  13.373  20.829  0.00  0.00    +0.000 OA
BRANCH  30  31
ATOM     31  S   UNL     1      -3.057  13.236  21.540  0.00  0.00    +0.000 S 
ATOM     32  C   UNL     1      -3.162  14.852  22.309  0.00  0.00    +0.000 C 
ATOM     33  O   UNL     1      -4.097  13.171  20.507  0.00  0.00    +0.000 OA
ATOM     34  O   UNL     1      -2.979  12.259  22.582  0.00  0.00    +0.000 OA
ENDBRANCH  30  31
ENDBRANCH  27  30
ENDBRANCH  22  24
ENDBRANCH   5  20
BRANCH   6  35
ATOM     35  O   UNL     1       1.364   6.128  20.558  0.00  0.00    +0.000 OA
ATOM     36  H   UNL     1       1.340   5.296  21.069  0.00  0.00    +0.000 HD
ENDBRANCH   6  35
TORSDOF 7
ENDMDL
MODEL 6
REMARK VINA RESULT:      -8.5      1.881      2.333
REMARK  Name = 
REMARK  11 active torsions:
REMARK  status: ('A' for Active; 'I' for Inactive)
REMARK    1  A    between atoms: C_1  and  C_2
REMARK    2  A    between atoms: C_2  and  C_3
REMARK    3  A    between atoms: C_2  and  C_4
REMARK    4  A    between atoms: C_2  and  C_5
REMARK    5  A    between atoms: C_7  and  N_8
REMARK    6  A    between atoms: C_17  and  C_18
REMARK    7  A    between atoms: N_20  and  C_21
REMARK    8  A    between atoms: C_24  and  O_25
REMARK    9  A    between atoms: O_25  and  S_26
REMARK   10  A    between atoms: S_26  and  C_27
REMARK   11  A    between atoms: C_32  and  O_33
REMARK                            x       y       z     vdW  Elec       q    Type
REMARK                         _______ _______ _______ _____ _____    ______ ____
ROOT
ATOM      1  C   UNL     1       2.735   3.973  19.099  0.00  0.00    +0.000 A 
ATOM      2  C   UNL     1       3.778   4.039  18.149  0.00  0.00    +0.000 A 
ATOM      3  C   UNL     1       4.259   5.243  17.631  0.00  0.00    +0.000 A 
ATOM      4  C   UNL     1       3.683   6.438  18.044  0.00  0.00    +0.000 A 
ATOM      5  C   UNL     1       2.616   6.426  18.964  0.00  0.00    +0.000 A 
ATOM      6  C   UNL     1       2.192   5.205  19.515  0.00  0.00    +0.000 A 
ENDROOT
BRANCH   3   7
ATOM      7  N   UNL     1       5.337   5.204  16.713  0.00  0.00    +0.000 N 
ATOM      8  C   UNL     1       5.378   4.156  15.706  0.00  0.00    +0.000 C 
ATOM      9  C   UNL     1       5.886   4.724  14.393  0.00  0.00    +0.000 C 
ATOM     10  C   UNL     1       7.194   5.428  14.620  0.00  0.00    +0.000 C 
ATOM     11  O   UNL     1       8.018   5.595  13.724  0.00  0.00    +0.000 OA
ATOM     12  N   UNL     1       7.364   5.982  15.859  0.00  0.00    +0.000 N 
ATOM     13  C   UNL     1       6.400   6.095  16.830  0.00  0.00    +0.000 C 
ATOM     14  O   UNL     1       6.522   6.947  17.707  0.00  0.00    +0.000 OA
ATOM     15  H   UNL     1       8.161   6.594  15.965  0.00  0.00    +0.000 HD
ENDBRANCH   3   7
BRANCH   1  17
ATOM     16  C   UNL     1       2.402   2.538  21.200  0.00  0.00    +0.000 C 
ATOM     17  C   UNL     1       2.318   2.588  19.648  0.00  0.00    +0.000 C 
ATOM     18  C   UNL     1       3.207   1.425  19.153  0.00  0.00    +0.000 C 
ATOM     19  C   UNL     1       0.862   2.303  19.236  0.00  0.00    +0.000 C 
ENDBRANCH   1  17
BRANCH   5  20
ATOM     20  C   UNL     1       2.032   7.743  19.328  0.00  0.00    +0.000 C 
ATOM     21  O   UNL     1       2.155   8.640  18.497  0.00  0.00    +0.000 OA
ATOM     22  N   UNL     1       1.410   7.872  20.570  0.00  0.00    +0.000 N 
ATOM     23  H   UNL     1       1.253   7.038  21.136  0.00  0.00    +0.000 HD
BRANCH  22  24
ATOM     24  C   UNL     1       0.867   9.079  21.045  0.00  0.00    +0.000 A 
ATOM     25  C   UNL     1       0.153   9.084  22.243  0.00  0.00    +0.000 A 
ATOM     26  C   UNL     1      -0.406  10.249  22.747  0.00  0.00    +0.000 A 
ATOM     27  C   UNL     1      -0.344  11.426  22.007  0.00  0.00    +0.000 A 
ATOM     28  C   UNL     1       0.405  11.444  20.822  0.00  0.00    +0.000 A 
ATOM     29  C   UNL     1       1.049  10.280  20.359  0.00  0.00    +0.000 A 
BRANCH  27  30
ATOM     30  O   UNL     1      -1.045  12.567  22.317  0.00  0.00    +0.000 OA
BRANCH  30  31
ATOM     31  S   UNL     1      -2.646  12.728  21.986  0.00  0.00    +0.000 S 
ATOM     32  C   UNL     1      -2.811  14.499  22.200  0.00  0.00    +0.000 C 
ATOM     33  O   UNL     1      -2.887  12.430  20.569  0.00  0.00    +0.000 OA
ATOM     34  O   UNL     1      -3.399  12.088  23.020  0.00  0.00    +0.000 OA
ENDBRANCH  30  31
ENDBRANCH  27  30
ENDBRANCH  22  24
ENDBRANCH   5  20
BRANCH   6  35
ATOM     35  O   UNL     1       1.270   5.223  20.532  0.00  0.00    +0.000 OA
ATOM     36  H   UNL     1       1.111   6.168  20.723  0.00  0.00    +0.000 HD
ENDBRANCH   6  35
TORSDOF 7
ENDMDL
MODEL 7
REMARK VINA RESULT:      -8.5      0.709      1.046
REMARK  Name = 
REMARK  11 active torsions:
REMARK  status: ('A' for Active; 'I' for Inactive)
REMARK    1  A    between atoms: C_1  and  C_2
REMARK    2  A    between atoms: C_2  and  C_3
REMARK    3  A    between atoms: C_2  and  C_4
REMARK    4  A    between atoms: C_2  and  C_5
REMARK    5  A    between atoms: C_7  and  N_8
REMARK    6  A    between atoms: C_17  and  C_18
REMARK    7  A    between atoms: N_20  and  C_21
REMARK    8  A    between atoms: C_24  and  O_25
REMARK    9  A    between atoms: O_25  and  S_26
REMARK   10  A    between atoms: S_26  and  C_27
REMARK   11  A    between atoms: C_32  and  O_33
REMARK                            x       y       z     vdW  Elec       q    Type
REMARK                         _______ _______ _______ _____ _____    ______ ____
ROOT
ATOM      1  C   UNL     1       2.728   4.117  18.988  0.00  0.00    +0.000 A 
ATOM      2  C   UNL     1       3.783   4.138  18.049  0.00  0.00    +0.000 A 
ATOM      3  C   UNL     1       4.289   5.318  17.501  0.00  0.00    +0.000 A 
ATOM      4  C   UNL     1       3.728   6.534  17.872  0.00  0.00    +0.000 A 
ATOM      5  C   UNL     1       2.650   6.567  18.778  0.00  0.00    +0.000 A 
ATOM      6  C   UNL     1       2.200   5.370  19.361  0.00  0.00    +0.000 A 
ENDROOT
BRANCH   3   7
ATOM      7  N   UNL     1       5.378   5.234  16.598  0.00  0.00    +0.000 N 
ATOM      8  C   UNL     1       5.406   4.165  15.614  0.00  0.00    +0.000 C 
ATOM      9  C   UNL     1       5.943   4.692  14.296  0.00  0.00    +0.000 C 
ATOM     10  C   UNL     1       7.265   5.370  14.525  0.00  0.00    +0.000 C 
ATOM     11  O   UNL     1       8.103   5.499  13.637  0.00  0.00    +0.000 OA
ATOM     12  N   UNL     1       7.433   5.946  15.755  0.00  0.00    +0.000 N 
ATOM     13  C   UNL     1       6.460   6.103  16.711  0.00  0.00    +0.000 C 
ATOM     14  O   UNL     1       6.592   6.969  17.571  0.00  0.00    +0.000 OA
ATOM     15  H   UNL     1       8.242   6.542  15.857  0.00  0.00    +0.000 HD
ENDBRANCH   3   7
BRANCH   1  17
ATOM     16  C   UNL     1       2.356   2.748  21.126  0.00  0.00    +0.000 C 
ATOM     17  C   UNL     1       2.282   2.757  19.574  0.00  0.00    +0.000 C 
ATOM     18  C   UNL     1       3.152   1.564  19.118  0.00  0.00    +0.000 C 
ATOM     19  C   UNL     1       0.824   2.486  19.160  0.00  0.00    +0.000 C 
ENDBRANCH   1  17
BRANCH   5  20
ATOM     20  C   UNL     1       2.084   7.904  19.096  0.00  0.00    +0.000 C 
ATOM     21  O   UNL     1       1.809   8.110  20.275  0.00  0.00    +0.000 OA
ATOM     22  N   UNL     1       1.893   8.807  18.050  0.00  0.00    +0.000 N 
ATOM     23  H   UNL     1       2.265   8.585  17.127  0.00  0.00    +0.000 HD
BRANCH  22  24
ATOM     24  C   UNL     1       1.318  10.080  18.220  0.00  0.00    +0.000 A 
ATOM     25  C   UNL     1       2.137  11.208  18.196  0.00  0.00    +0.000 A 
ATOM     26  C   UNL     1       1.616  12.483  18.366  0.00  0.00    +0.000 A 
ATOM     27  C   UNL     1       0.266  12.648  18.662  0.00  0.00    +0.000 A 
ATOM     28  C   UNL     1      -0.574  11.526  18.648  0.00  0.00    +0.000 A 
ATOM     29  C   UNL     1      -0.058  10.243  18.385  0.00  0.00    +0.000 A 
BRANCH  27  30
ATOM     30  O   UNL     1      -0.294  13.840  19.055  0.00  0.00    +0.000 OA
BRANCH  30  31
ATOM     31  S   UNL     1       0.452  14.851  20.112  0.00  0.00    +0.000 S 
ATOM     32  C   UNL     1       0.678  13.722  21.485  0.00  0.00    +0.000 C 
ATOM     33  O   UNL     1       1.783  15.200  19.603  0.00  0.00    +0.000 OA
ATOM     34  O   UNL     1      -0.477  15.860  20.521  0.00  0.00    +0.000 OA
ENDBRANCH  30  31
ENDBRANCH  27  30
ENDBRANCH  22  24
ENDBRANCH   5  20
BRANCH   6  35
ATOM     35  O   UNL     1       1.267   5.433  20.365  0.00  0.00    +0.000 OA
ATOM     36  H   UNL     1       1.670   4.968  21.124  0.00  0.00    +0.000 HD
ENDBRANCH   6  35
TORSDOF 7
ENDMDL
MODEL 8
REMARK VINA RESULT:      -8.5      1.544      1.587
REMARK  Name = 
REMARK  11 active torsions:
REMARK  status: ('A' for Active; 'I' for Inactive)
REMARK    1  A    between atoms: C_1  and  C_2
REMARK    2  A    between atoms: C_2  and  C_3
REMARK    3  A    between atoms: C_2  and  C_4
REMARK    4  A    between atoms: C_2  and  C_5
REMARK    5  A    between atoms: C_7  and  N_8
REMARK    6  A    between atoms: C_17  and  C_18
REMARK    7  A    between atoms: N_20  and  C_21
REMARK    8  A    between atoms: C_24  and  O_25
REMARK    9  A    between atoms: O_25  and  S_26
REMARK   10  A    between atoms: S_26  and  C_27
REMARK   11  A    between atoms: C_32  and  O_33
REMARK                            x       y       z     vdW  Elec       q    Type
REMARK                         _______ _______ _______ _____ _____    ______ ____
ROOT
ATOM      1  C   UNL     1       2.870   4.634  19.417  0.00  0.00    +0.000 A 
ATOM      2  C   UNL     1       3.883   4.520  18.440  0.00  0.00    +0.000 A 
ATOM      3  C   UNL     1       4.284   5.586  17.633  0.00  0.00    +0.000 A 
ATOM      4  C   UNL     1       3.654   6.817  17.771  0.00  0.00    +0.000 A 
ATOM      5  C   UNL     1       2.612   6.975  18.707  0.00  0.00    +0.000 A 
ATOM      6  C   UNL     1       2.270   5.903  19.549  0.00  0.00    +0.000 A 
ENDROOT
BRANCH   3   7
ATOM      7  N   UNL     1       5.340   5.380  16.711  0.00  0.00    +0.000 N 
ATOM      8  C   UNL     1       5.257   4.276  15.769  0.00  0.00    +0.000 C 
ATOM      9  C   UNL     1       5.803   4.707  14.420  0.00  0.00    +0.000 C 
ATOM     10  C   UNL     1       7.180   5.283  14.594  0.00  0.00    +0.000 C 
ATOM     11  O   UNL     1       8.004   5.309  13.684  0.00  0.00    +0.000 OA
ATOM     12  N   UNL     1       7.425   5.888  15.796  0.00  0.00    +0.000 N 
ATOM     13  C   UNL     1       6.492   6.160  16.766  0.00  0.00    +0.000 C 
ATOM     14  O   UNL     1       6.714   7.045  17.588  0.00  0.00    +0.000 OA
ATOM     15  H   UNL     1       8.282   6.419  15.858  0.00  0.00    +0.000 HD
ENDBRANCH   3   7
BRANCH   1  17
ATOM     16  C   UNL     1       1.243   2.693  19.828  0.00  0.00    +0.000 C 
ATOM     17  C   UNL     1       2.544   3.403  20.296  0.00  0.00    +0.000 C 
ATOM     18  C   UNL     1       2.309   3.744  21.785  0.00  0.00    +0.000 C 
ATOM     19  C   UNL     1       3.705   2.397  20.200  0.00  0.00    +0.000 C 
ENDBRANCH   1  17
BRANCH   5  20
ATOM     20  C   UNL     1       1.966   8.312  18.769  0.00  0.00    +0.000 C 
ATOM     21  O   UNL     1       2.189   9.066  17.825  0.00  0.00    +0.000 OA
ATOM     22  N   UNL     1       1.179   8.616  19.879  0.00  0.00    +0.000 N 
ATOM     23  H   UNL     1       0.958   7.880  20.549  0.00  0.00    +0.000 HD
BRANCH  22  24
ATOM     24  C   UNL     1       0.560   9.864  20.073  0.00  0.00    +0.000 A 
ATOM     25  C   UNL     1       1.173  10.813  20.890  0.00  0.00    +0.000 A 
ATOM     26  C   UNL     1       0.596  12.054  21.116  0.00  0.00    +0.000 A 
ATOM     27  C   UNL     1      -0.665  12.338  20.601  0.00  0.00    +0.000 A 
ATOM     28  C   UNL     1      -1.272  11.410  19.745  0.00  0.00    +0.000 A 
ATOM     29  C   UNL     1      -0.643  10.187  19.444  0.00  0.00    +0.000 A 
BRANCH  27  30
ATOM     30  O   UNL     1      -1.403  13.446  20.945  0.00  0.00    +0.000 OA
BRANCH  30  31
ATOM     31  S   UNL     1      -1.748  13.818  22.507  0.00  0.00    +0.000 S 
ATOM     32  C   UNL     1      -2.297  12.210  23.076  0.00  0.00    +0.000 C 
ATOM     33  O   UNL     1      -0.507  14.139  23.220  0.00  0.00    +0.000 OA
ATOM     34  O   UNL     1      -2.873  14.701  22.534  0.00  0.00    +0.000 OA
ENDBRANCH  30  31
ENDBRANCH  27  30
ENDBRANCH  22  24
ENDBRANCH   5  20
BRANCH   6  35
ATOM     35  O   UNL     1       1.375   6.120  20.566  0.00  0.00    +0.000 OA
ATOM     36  H   UNL     1       0.775   6.819  20.241  0.00  0.00    +0.000 HD
ENDBRANCH   6  35
TORSDOF 7
ENDMDL
MODEL 9
REMARK VINA RESULT:      -8.4      1.278      1.408
REMARK  Name = 
REMARK  11 active torsions:
REMARK  status: ('A' for Active; 'I' for Inactive)
REMARK    1  A    between atoms: C_1  and  C_2
REMARK    2  A    between atoms: C_2  and  C_3
REMARK    3  A    between atoms: C_2  and  C_4
REMARK    4  A    between atoms: C_2  and  C_5
REMARK    5  A    between atoms: C_7  and  N_8
REMARK    6  A    between atoms: C_17  and  C_18
REMARK    7  A    between atoms: N_20  and  C_21
REMARK    8  A    between atoms: C_24  and  O_25
REMARK    9  A    between atoms: O_25  and  S_26
REMARK   10  A    between atoms: S_26  and  C_27
REMARK   11  A    between atoms: C_32  and  O_33
REMARK                            x       y       z     vdW  Elec       q    Type
REMARK                         _______ _______ _______ _____ _____    ______ ____
ROOT
ATOM      1  C   UNL     1       2.776   4.794  19.347  0.00  0.00    +0.000 A 
ATOM      2  C   UNL     1       3.804   4.637  18.392  0.00  0.00    +0.000 A 
ATOM      3  C   UNL     1       4.234   5.673  17.560  0.00  0.00    +0.000 A 
ATOM      4  C   UNL     1       3.619   6.915  17.650  0.00  0.00    +0.000 A 
ATOM      5  C   UNL     1       2.563   7.116  18.561  0.00  0.00    +0.000 A 
ATOM      6  C   UNL     1       2.191   6.075  19.429  0.00  0.00    +0.000 A 
ENDROOT
BRANCH   3   7
ATOM      7  N   UNL     1       5.303   5.423  16.664  0.00  0.00    +0.000 N 
ATOM      8  C   UNL     1       5.204   4.315  15.729  0.00  0.00    +0.000 C 
ATOM      9  C   UNL     1       5.794   4.717  14.389  0.00  0.00    +0.000 C 
ATOM     10  C   UNL     1       7.186   5.249  14.591  0.00  0.00    +0.000 C 
ATOM     11  O   UNL     1       8.031   5.240  13.699  0.00  0.00    +0.000 OA
ATOM     12  N   UNL     1       7.423   5.856  15.793  0.00  0.00    +0.000 N 
ATOM     13  C   UNL     1       6.478   6.166  16.739  0.00  0.00    +0.000 C 
ATOM     14  O   UNL     1       6.711   7.050  17.559  0.00  0.00    +0.000 OA
ATOM     15  H   UNL     1       8.296   6.359  15.870  0.00  0.00    +0.000 HD
ENDBRANCH   3   7
BRANCH   1  17
ATOM     16  C   UNL     1       1.010   3.024  19.926  0.00  0.00    +0.000 C 
ATOM     17  C   UNL     1       2.417   3.596  20.257  0.00  0.00    +0.000 C 
ATOM     18  C   UNL     1       2.371   3.946  21.761  0.00  0.00    +0.000 C 
ATOM     19  C   UNL     1       3.454   2.478  20.045  0.00  0.00    +0.000 C 
ENDBRANCH   1  17
BRANCH   5  20
ATOM     20  C   UNL     1       1.934   8.462  18.570  0.00  0.00    +0.000 C 
ATOM     21  O   UNL     1       2.093   9.142  17.559  0.00  0.00    +0.000 OA
ATOM     22  N   UNL     1       1.234   8.858  19.710  0.00  0.00    +0.000 N 
ATOM     23  H   UNL     1       1.057   8.177  20.447  0.00  0.00    +0.000 HD
BRANCH  22  24
ATOM     24  C   UNL     1       0.641  10.126  19.855  0.00  0.00    +0.000 A 
ATOM     25  C   UNL     1       1.402  11.183  20.353  0.00  0.00    +0.000 A 
ATOM     26  C   UNL     1       0.858  12.449  20.520  0.00  0.00    +0.000 A 
ATOM     27  C   UNL     1      -0.497  12.660  20.280  0.00  0.00    +0.000 A 
ATOM     28  C   UNL     1      -1.261  11.617  19.741  0.00  0.00    +0.000 A 
ATOM     29  C   UNL     1      -0.684  10.358  19.487  0.00  0.00    +0.000 A 
BRANCH  27  30
ATOM     30  O   UNL     1      -1.166  13.812  20.619  0.00  0.00    +0.000 OA
BRANCH  30  31
ATOM     31  S   UNL     1      -0.618  15.301  20.192  0.00  0.00    +0.000 S 
ATOM     32  C   UNL     1      -2.108  16.253  20.477  0.00  0.00    +0.000 C 
ATOM     33  O   UNL     1       0.387  15.751  21.163  0.00  0.00    +0.000 OA
ATOM     34  O   UNL     1      -0.352  15.310  18.786  0.00  0.00    +0.000 OA
ENDBRANCH  30  31
ENDBRANCH  27  30
ENDBRANCH  22  24
ENDBRANCH   5  20
BRANCH   6  35
ATOM     35  O   UNL     1       1.282   6.335  20.423  0.00  0.00    +0.000 OA
ATOM     36  H   UNL     1       0.472   6.632  19.964  0.00  0.00    +0.000 HD
ENDBRANCH   6  35
TORSDOF 7
ENDMDL
