MODEL 1
REMARK VINA RESULT:      -7.6      0.000      0.000
REMARK  Name = 
REMARK  8 active torsions:
REMARK  status: ('A' for Active; 'I' for Inactive)
REMARK    1  A    between atoms: C_1  and  O_2
REMARK    2  A    between atoms: O_2  and  C_3
REMARK    3  A    between atoms: C_3  and  C_4
REMARK    4  A    between atoms: C_4  and  C_5
REMARK    5  A    between atoms: C_5  and  N_6
REMARK    6  A    between atoms: N_6  and  C_7
REMARK    7  A    between atoms: N_10  and  C_11
REMARK    8  A    between atoms: N_24  and  C_25
REMARK                            x       y       z     vdW  Elec       q    Type
REMARK                         _______ _______ _______ _____ _____    ______ ____
ROOT
ATOM      1  C   UNL     1       3.981   4.369  16.991  0.00  0.00    +0.000 A 
ATOM      2  N   UNL     1       3.890   5.713  17.212  0.00  0.00    +0.000 NA
ATOM      3  C   UNL     1       3.073   6.198  18.168  0.00  0.00    +0.000 A 
ATOM      4  N   UNL     1       3.020   7.583  18.332  0.00  0.00    +0.000 N 
ATOM      5  N   UNL     1       2.323   5.451  18.987  0.00  0.00    +0.000 NA
ATOM      6  C   UNL     1       2.424   4.144  18.759  0.00  0.00    +0.000 A 
ATOM      7  C   UNL     1       3.206   3.531  17.805  0.00  0.00    +0.000 A 
ATOM      8  C   UNL     1       2.948   2.155  18.001  0.00  0.00    +0.000 A 
ATOM      9  N   UNL     1       2.078   1.914  18.990  0.00  0.00    +0.000 NA
ATOM     10  N   UNL     1       1.771   3.155  19.433  0.00  0.00    +0.000 N 
ATOM     11  C   UNL     1       0.847   3.358  20.523  0.00  0.00    +0.000 C 
ATOM     12  H   UNL     1       3.699   8.059  17.757  0.00  0.00    +0.000 HD
ENDROOT
BRANCH   4  13
ATOM     13  C   UNL     1       1.950   8.333  18.849  0.00  0.00    +0.000 A 
ATOM     14  C   UNL     1       1.266   9.241  18.029  0.00  0.00    +0.000 A 
ATOM     15  C   UNL     1       0.270  10.070  18.561  0.00  0.00    +0.000 A 
ATOM     16  C   UNL     1      -0.053   9.983  19.913  0.00  0.00    +0.000 A 
ATOM     17  F   UNL     1      -0.994  10.789  20.419  0.00  0.00    +0.000 F 
ATOM     18  C   UNL     1       0.611   9.085  20.731  0.00  0.00    +0.000 A 
ATOM     19  F   UNL     1       0.313   9.004  22.034  0.00  0.00    +0.000 F 
ATOM     20  C   UNL     1       1.601   8.268  20.207  0.00  0.00    +0.000 A 
ENDBRANCH   4  13
BRANCH   1  21
ATOM     21  N   UNL     1       4.828   3.875  15.985  0.00  0.00    +0.000 N 
ATOM     22  H   UNL     1       5.345   3.065  16.309  0.00  0.00    +0.000 HD
BRANCH  21  23
ATOM     23  C   UNL     1       5.673   4.906  15.381  0.00  0.00    +0.000 C 
BRANCH  23  24
ATOM     24  C   UNL     1       7.120   4.763  15.853  0.00  0.00    +0.000 C 
BRANCH  24  25
ATOM     25  C   UNL     1       7.396   5.679  17.044  0.00  0.00    +0.000 C 
BRANCH  25  27
ATOM     26  C   UNL     1       7.607   7.974  17.550  0.00  0.00    +0.000 C 
ATOM     27  O   UNL     1       7.792   6.963  16.567  0.00  0.00    +0.000 OA
ENDBRANCH  25  27
ENDBRANCH  24  25
ENDBRANCH  23  24
ENDBRANCH  21  23
ENDBRANCH   1  21
TORSDOF 6
ENDMDL
MODEL 2
REMARK VINA RESULT:      -7.4      1.652      1.912
REMARK  Name = 
REMARK  8 active torsions:
REMARK  status: ('A' for Active; 'I' for Inactive)
REMARK    1  A    between atoms: C_1  and  O_2
REMARK    2  A    between atoms: O_2  and  C_3
REMARK    3  A    between atoms: C_3  and  C_4
REMARK    4  A    between atoms: C_4  and  C_5
REMARK    5  A    between atoms: C_5  and  N_6
REMARK    6  A    between atoms: N_6  and  C_7
REMARK    7  A    between atoms: N_10  and  C_11
REMARK    8  A    between atoms: N_24  and  C_25
REMARK                            x       y       z     vdW  Elec       q    Type
REMARK                         _______ _______ _______ _____ _____    ______ ____
ROOT
ATOM      1  C   UNL     1       4.374   4.165  17.162  0.00  0.00    +0.000 A 
ATOM      2  N   UNL     1       4.271   5.514  17.350  0.00  0.00    +0.000 NA
ATOM      3  C   UNL     1       3.367   6.019  18.213  0.00  0.00    +0.000 A 
ATOM      4  N   UNL     1       3.307   7.406  18.347  0.00  0.00    +0.000 N 
ATOM      5  N   UNL     1       2.536   5.290  18.967  0.00  0.00    +0.000 NA
ATOM      6  C   UNL     1       2.651   3.979  18.772  0.00  0.00    +0.000 A 
ATOM      7  C   UNL     1       3.518   3.345  17.910  0.00  0.00    +0.000 A 
ATOM      8  C   UNL     1       3.234   1.975  18.103  0.00  0.00    +0.000 A 
ATOM      9  N   UNL     1       2.271   1.755  19.006  0.00  0.00    +0.000 NA
ATOM     10  N   UNL     1       1.929   3.004  19.397  0.00  0.00    +0.000 N 
ATOM     11  C   UNL     1       0.905   3.231  20.387  0.00  0.00    +0.000 C 
ATOM     12  H   UNL     1       4.042   7.870  17.833  0.00  0.00    +0.000 HD
ENDROOT
BRANCH   4  13
ATOM     13  C   UNL     1       2.196   8.170  18.745  0.00  0.00    +0.000 A 
ATOM     14  C   UNL     1       1.541   8.995  17.819  0.00  0.00    +0.000 A 
ATOM     15  C   UNL     1       0.503   9.839  18.229  0.00  0.00    +0.000 A 
ATOM     16  C   UNL     1       0.107   9.853  19.564  0.00  0.00    +0.000 A 
ATOM     17  F   UNL     1      -0.875  10.675  19.953  0.00  0.00    +0.000 F 
ATOM     18  C   UNL     1       0.742   9.039  20.486  0.00  0.00    +0.000 A 
ATOM     19  F   UNL     1       0.375   9.055  21.773  0.00  0.00    +0.000 F 
ATOM     20  C   UNL     1       1.775   8.205  20.083  0.00  0.00    +0.000 A 
ENDBRANCH   4  13
BRANCH   1  21
ATOM     21  N   UNL     1       5.313   3.650  16.251  0.00  0.00    +0.000 N 
ATOM     22  H   UNL     1       6.222   3.543  16.687  0.00  0.00    +0.000 HD
BRANCH  21  23
ATOM     23  C   UNL     1       5.352   4.381  14.984  0.00  0.00    +0.000 C 
BRANCH  23  24
ATOM     24  C   UNL     1       6.633   4.059  14.214  0.00  0.00    +0.000 C 
BRANCH  24  25
ATOM     25  C   UNL     1       6.315   3.653  12.776  0.00  0.00    +0.000 C 
BRANCH  25  27
ATOM     26  C   UNL     1       7.954   5.335  12.553  0.00  0.00    +0.000 C 
ATOM     27  O   UNL     1       7.215   4.317  11.891  0.00  0.00    +0.000 OA
ENDBRANCH  25  27
ENDBRANCH  24  25
ENDBRANCH  23  24
ENDBRANCH  21  23
ENDBRANCH   1  21
TORSDOF 6
ENDMDL
MODEL 3
REMARK VINA RESULT:      -7.3      0.861      1.506
REMARK  Name = 
REMARK  8 active torsions:
REMARK  status: ('A' for Active; 'I' for Inactive)
REMARK    1  A    between atoms: C_1  and  O_2
REMARK    2  A    between atoms: O_2  and  C_3
REMARK    3  A    between atoms: C_3  and  C_4
REMARK    4  A    between atoms: C_4  and  C_5
REMARK    5  A    between atoms: C_5  and  N_6
REMARK    6  A    between atoms: N_6  and  C_7
REMARK    7  A    between atoms: N_10  and  C_11
REMARK    8  A    between atoms: N_24  and  C_25
REMARK                            x       y       z     vdW  Elec       q    Type
REMARK                         _______ _______ _______ _____ _____    ______ ____
ROOT
ATOM      1  C   UNL     1       4.001   4.477  16.962  0.00  0.00    +0.000 A 
ATOM      2  N   UNL     1       3.942   5.822  17.190  0.00  0.00    +0.000 NA
ATOM      3  C   UNL     1       3.136   6.321  18.148  0.00  0.00    +0.000 A 
ATOM      4  N   UNL     1       3.116   7.705  18.320  0.00  0.00    +0.000 N 
ATOM      5  N   UNL     1       2.368   5.588  18.963  0.00  0.00    +0.000 NA
ATOM      6  C   UNL     1       2.439   4.280  18.728  0.00  0.00    +0.000 A 
ATOM      7  C   UNL     1       3.206   3.653  17.771  0.00  0.00    +0.000 A 
ATOM      8  C   UNL     1       2.916   2.283  17.959  0.00  0.00    +0.000 A 
ATOM      9  N   UNL     1       2.040   2.057  18.946  0.00  0.00    +0.000 NA
ATOM     10  N   UNL     1       1.762   3.302  19.396  0.00  0.00    +0.000 N 
ATOM     11  C   UNL     1       0.843   3.521  20.487  0.00  0.00    +0.000 C 
ATOM     12  H   UNL     1       3.806   8.169  17.748  0.00  0.00    +0.000 HD
ENDROOT
BRANCH   4  13
ATOM     13  C   UNL     1       2.063   8.478  18.841  0.00  0.00    +0.000 A 
ATOM     14  C   UNL     1       1.747   8.408  20.205  0.00  0.00    +0.000 A 
ATOM     15  C   UNL     1       0.634   9.090  20.712  0.00  0.00    +0.000 A 
ATOM     16  C   UNL     1      -0.158   9.854  19.860  0.00  0.00    +0.000 A 
ATOM     17  F   UNL     1      -1.230  10.491  20.347  0.00  0.00    +0.000 F 
ATOM     18  C   UNL     1       0.148   9.936  18.512  0.00  0.00    +0.000 A 
ATOM     19  F   UNL     1      -0.615  10.660  17.684  0.00  0.00    +0.000 F 
ATOM     20  C   UNL     1       1.246   9.257  18.006  0.00  0.00    +0.000 A 
ENDBRANCH   4  13
BRANCH   1  21
ATOM     21  N   UNL     1       4.837   3.969  15.953  0.00  0.00    +0.000 N 
ATOM     22  H   UNL     1       5.330   3.142  16.272  0.00  0.00    +0.000 HD
BRANCH  21  23
ATOM     23  C   UNL     1       5.712   4.982  15.361  0.00  0.00    +0.000 C 
BRANCH  23  24
ATOM     24  C   UNL     1       7.179   4.663  15.649  0.00  0.00    +0.000 C 
BRANCH  24  25
ATOM     25  C   UNL     1       7.433   4.582  17.153  0.00  0.00    +0.000 C 
BRANCH  25  27
ATOM     26  C   UNL     1       7.738   5.902  19.084  0.00  0.00    +0.000 C 
ATOM     27  O   UNL     1       7.372   5.893  17.710  0.00  0.00    +0.000 OA
ENDBRANCH  25  27
ENDBRANCH  24  25
ENDBRANCH  23  24
ENDBRANCH  21  23
ENDBRANCH   1  21
TORSDOF 6
ENDMDL
MODEL 4
REMARK VINA RESULT:      -7.2      1.597      2.515
REMARK  Name = 
REMARK  8 active torsions:
REMARK  status: ('A' for Active; 'I' for Inactive)
REMARK    1  A    between atoms: C_1  and  O_2
REMARK    2  A    between atoms: O_2  and  C_3
REMARK    3  A    between atoms: C_3  and  C_4
REMARK    4  A    between atoms: C_4  and  C_5
REMARK    5  A    between atoms: C_5  and  N_6
REMARK    6  A    between atoms: N_6  and  C_7
REMARK    7  A    between atoms: N_10  and  C_11
REMARK    8  A    between atoms: N_24  and  C_25
REMARK                            x       y       z     vdW  Elec       q    Type
REMARK                         _______ _______ _______ _____ _____    ______ ____
ROOT
ATOM      1  C   UNL     1       4.265   4.112  17.181  0.00  0.00    +0.000 A 
ATOM      2  N   UNL     1       4.207   5.468  17.339  0.00  0.00    +0.000 NA
ATOM      3  C   UNL     1       3.345   6.020  18.215  0.00  0.00    +0.000 A 
ATOM      4  N   UNL     1       3.330   7.412  18.317  0.00  0.00    +0.000 N 
ATOM      5  N   UNL     1       2.515   5.335  19.010  0.00  0.00    +0.000 NA
ATOM      6  C   UNL     1       2.585   4.017  18.845  0.00  0.00    +0.000 A 
ATOM      7  C   UNL     1       3.407   3.337  17.973  0.00  0.00    +0.000 A 
ATOM      8  C   UNL     1       3.088   1.981  18.208  0.00  0.00    +0.000 A 
ATOM      9  N   UNL     1       2.145   1.811  19.144  0.00  0.00    +0.000 NA
ATOM     10  N   UNL     1       1.853   3.080  19.513  0.00  0.00    +0.000 N 
ATOM     11  C   UNL     1       0.865   3.361  20.527  0.00  0.00    +0.000 C 
ATOM     12  H   UNL     1       4.064   7.840  17.771  0.00  0.00    +0.000 HD
ENDROOT
BRANCH   4  13
ATOM     13  C   UNL     1       2.255   8.219  18.727  0.00  0.00    +0.000 A 
ATOM     14  C   UNL     1       1.931   8.322  20.087  0.00  0.00    +0.000 A 
ATOM     15  C   UNL     1       0.798   9.036  20.496  0.00  0.00    +0.000 A 
ATOM     16  C   UNL     1      -0.008   9.659  19.547  0.00  0.00    +0.000 A 
ATOM     17  F   UNL     1      -1.098  10.327  19.942  0.00  0.00    +0.000 F 
ATOM     18  C   UNL     1       0.306   9.570  18.201  0.00  0.00    +0.000 A 
ATOM     19  F   UNL     1      -0.470  10.158  17.282  0.00  0.00    +0.000 F 
ATOM     20  C   UNL     1       1.425   8.859  17.793  0.00  0.00    +0.000 A 
ENDBRANCH   4  13
BRANCH   1  21
ATOM     21  N   UNL     1       5.160   3.547  16.257  0.00  0.00    +0.000 N 
ATOM     22  H   UNL     1       5.285   2.556  16.430  0.00  0.00    +0.000 HD
BRANCH  21  23
ATOM     23  C   UNL     1       6.418   4.286  16.143  0.00  0.00    +0.000 C 
BRANCH  23  24
ATOM     24  C   UNL     1       6.523   4.967  14.779  0.00  0.00    +0.000 C 
BRANCH  24  25
ATOM     25  C   UNL     1       6.478   3.937  13.652  0.00  0.00    +0.000 C 
BRANCH  25  27
ATOM     26  C   UNL     1       5.100   3.200  11.884  0.00  0.00    +0.000 C 
ATOM     27  O   UNL     1       5.147   3.853  13.146  0.00  0.00    +0.000 OA
ENDBRANCH  25  27
ENDBRANCH  24  25
ENDBRANCH  23  24
ENDBRANCH  21  23
ENDBRANCH   1  21
TORSDOF 6
ENDMDL
MODEL 5
REMARK VINA RESULT:      -7.2      4.006      7.060
REMARK  Name = 
REMARK  8 active torsions:
REMARK  status: ('A' for Active; 'I' for Inactive)
REMARK    1  A    between atoms: C_1  and  O_2
REMARK    2  A    between atoms: O_2  and  C_3
REMARK    3  A    between atoms: C_3  and  C_4
REMARK    4  A    between atoms: C_4  and  C_5
REMARK    5  A    between atoms: C_5  and  N_6
REMARK    6  A    between atoms: N_6  and  C_7
REMARK    7  A    between atoms: N_10  and  C_11
REMARK    8  A    between atoms: N_24  and  C_25
REMARK                            x       y       z     vdW  Elec       q    Type
REMARK                         _______ _______ _______ _____ _____    ______ ____
ROOT
ATOM      1  C   UNL     1       2.966   4.654  20.542  0.00  0.00    +0.000 A 
ATOM      2  N   UNL     1       4.030   4.103  19.887  0.00  0.00    +0.000 NA
ATOM      3  C   UNL     1       4.596   4.739  18.842  0.00  0.00    +0.000 A 
ATOM      4  N   UNL     1       5.671   4.113  18.210  0.00  0.00    +0.000 N 
ATOM      5  N   UNL     1       4.219   5.935  18.375  0.00  0.00    +0.000 NA
ATOM      6  C   UNL     1       3.182   6.458  19.027  0.00  0.00    +0.000 A 
ATOM      7  C   UNL     1       2.510   5.901  20.091  0.00  0.00    +0.000 A 
ATOM      8  C   UNL     1       1.521   6.862  20.397  0.00  0.00    +0.000 A 
ATOM      9  N   UNL     1       1.558   7.935  19.598  0.00  0.00    +0.000 NA
ATOM     10  N   UNL     1       2.586   7.656  18.763  0.00  0.00    +0.000 N 
ATOM     11  C   UNL     1       2.981   8.574  17.722  0.00  0.00    +0.000 C 
ATOM     12  H   UNL     1       5.962   3.277  18.695  0.00  0.00    +0.000 HD
ENDROOT
BRANCH   4  13
ATOM     13  C   UNL     1       6.083   4.280  16.876  0.00  0.00    +0.000 A 
ATOM     14  C   UNL     1       7.340   4.832  16.591  0.00  0.00    +0.000 A 
ATOM     15  C   UNL     1       7.714   5.101  15.269  0.00  0.00    +0.000 A 
ATOM     16  C   UNL     1       6.839   4.808  14.227  0.00  0.00    +0.000 A 
ATOM     17  F   UNL     1       7.196   5.082  12.967  0.00  0.00    +0.000 F 
ATOM     18  C   UNL     1       5.597   4.257  14.496  0.00  0.00    +0.000 A 
ATOM     19  F   UNL     1       4.745   3.982  13.501  0.00  0.00    +0.000 F 
ATOM     20  C   UNL     1       5.221   3.994  15.805  0.00  0.00    +0.000 A 
ENDBRANCH   4  13
BRANCH   1  21
ATOM     21  N   UNL     1       2.377   3.978  21.624  0.00  0.00    +0.000 N 
ATOM     22  H   UNL     1       3.056   3.803  22.357  0.00  0.00    +0.000 HD
BRANCH  21  23
ATOM     23  C   UNL     1       1.627   2.787  21.223  0.00  0.00    +0.000 C 
BRANCH  23  24
ATOM     24  C   UNL     1       0.519   3.153  20.235  0.00  0.00    +0.000 C 
BRANCH  24  25
ATOM     25  C   UNL     1       0.761   2.494  18.879  0.00  0.00    +0.000 C 
BRANCH  25  27
ATOM     26  C   UNL     1       2.740   1.814  17.788  0.00  0.00    +0.000 C 
ATOM     27  O   UNL     1       1.934   1.685  18.952  0.00  0.00    +0.000 OA
ENDBRANCH  25  27
ENDBRANCH  24  25
ENDBRANCH  23  24
ENDBRANCH  21  23
ENDBRANCH   1  21
TORSDOF 6
ENDMDL
MODEL 6
REMARK VINA RESULT:      -7.1      1.340      1.448
REMARK  Name = 
REMARK  8 active torsions:
REMARK  status: ('A' for Active; 'I' for Inactive)
REMARK    1  A    between atoms: C_1  and  O_2
REMARK    2  A    between atoms: O_2  and  C_3
REMARK    3  A    between atoms: C_3  and  C_4
REMARK    4  A    between atoms: C_4  and  C_5
REMARK    5  A    between atoms: C_5  and  N_6
REMARK    6  A    between atoms: N_6  and  C_7
REMARK    7  A    between atoms: N_10  and  C_11
REMARK    8  A    between atoms: N_24  and  C_25
REMARK                            x       y       z     vdW  Elec       q    Type
REMARK                         _______ _______ _______ _____ _____    ______ ____
ROOT
ATOM      1  C   UNL     1       4.868   4.255  18.815  0.00  0.00    +0.000 A 
ATOM      2  N   UNL     1       4.593   5.485  19.342  0.00  0.00    +0.000 NA
ATOM      3  C   UNL     1       3.322   5.851  19.601  0.00  0.00    +0.000 A 
ATOM      4  N   UNL     1       3.113   7.126  20.128  0.00  0.00    +0.000 N 
ATOM      5  N   UNL     1       2.246   5.079  19.410  0.00  0.00    +0.000 NA
ATOM      6  C   UNL     1       2.533   3.884  18.898  0.00  0.00    +0.000 A 
ATOM      7  C   UNL     1       3.782   3.402  18.575  0.00  0.00    +0.000 A 
ATOM      8  C   UNL     1       3.518   2.103  18.087  0.00  0.00    +0.000 A 
ATOM      9  N   UNL     1       2.217   1.786  18.096  0.00  0.00    +0.000 NA
ATOM     10  N   UNL     1       1.637   2.901  18.595  0.00  0.00    +0.000 N 
ATOM     11  C   UNL     1       0.209   2.988  18.782  0.00  0.00    +0.000 C 
ATOM     12  H   UNL     1       3.980   7.594  20.347  0.00  0.00    +0.000 HD
ENDROOT
BRANCH   4  13
ATOM     13  C   UNL     1       1.951   7.910  20.010  0.00  0.00    +0.000 A 
ATOM     14  C   UNL     1       1.694   8.613  18.824  0.00  0.00    +0.000 A 
ATOM     15  C   UNL     1       0.597   9.479  18.736  0.00  0.00    +0.000 A 
ATOM     16  C   UNL     1      -0.252   9.636  19.827  0.00  0.00    +0.000 A 
ATOM     17  F   UNL     1      -1.289  10.478  19.742  0.00  0.00    +0.000 F 
ATOM     18  C   UNL     1      -0.012   8.942  21.001  0.00  0.00    +0.000 A 
ATOM     19  F   UNL     1      -0.818   9.095  22.059  0.00  0.00    +0.000 F 
ATOM     20  C   UNL     1       1.077   8.087  21.093  0.00  0.00    +0.000 A 
ENDBRANCH   4  13
BRANCH   1  21
ATOM     21  N   UNL     1       6.196   3.887  18.539  0.00  0.00    +0.000 N 
ATOM     22  H   UNL     1       6.775   3.967  19.368  0.00  0.00    +0.000 HD
BRANCH  21  23
ATOM     23  C   UNL     1       6.753   4.562  17.367  0.00  0.00    +0.000 C 
BRANCH  23  24
ATOM     24  C   UNL     1       7.614   5.754  17.788  0.00  0.00    +0.000 C 
BRANCH  24  25
ATOM     25  C   UNL     1       6.942   7.071  17.407  0.00  0.00    +0.000 C 
BRANCH  25  27
ATOM     26  C   UNL     1       8.149   9.015  17.985  0.00  0.00    +0.000 C 
ATOM     27  O   UNL     1       7.939   8.008  17.004  0.00  0.00    +0.000 OA
ENDBRANCH  25  27
ENDBRANCH  24  25
ENDBRANCH  23  24
ENDBRANCH  21  23
ENDBRANCH   1  21
TORSDOF 6
ENDMDL
MODEL 7
REMARK VINA RESULT:      -7.1      1.704      2.388
REMARK  Name = 
REMARK  8 active torsions:
REMARK  status: ('A' for Active; 'I' for Inactive)
REMARK    1  A    between atoms: C_1  and  O_2
REMARK    2  A    between atoms: O_2  and  C_3
REMARK    3  A    between atoms: C_3  and  C_4
REMARK    4  A    between atoms: C_4  and  C_5
REMARK    5  A    between atoms: C_5  and  N_6
REMARK    6  A    between atoms: N_6  and  C_7
REMARK    7  A    between atoms: N_10  and  C_11
REMARK    8  A    between atoms: N_24  and  C_25
REMARK                            x       y       z     vdW  Elec       q    Type
REMARK                         _______ _______ _______ _____ _____    ______ ____
ROOT
ATOM      1  C   UNL     1       4.240   6.401  17.082  0.00  0.00    +0.000 A 
ATOM      2  N   UNL     1       3.774   7.681  17.178  0.00  0.00    +0.000 NA
ATOM      3  C   UNL     1       2.815   7.996  18.070  0.00  0.00    +0.000 A 
ATOM      4  N   UNL     1       2.377   9.321  18.107  0.00  0.00    +0.000 N 
ATOM      5  N   UNL     1       2.264   7.141  18.939  0.00  0.00    +0.000 NA
ATOM      6  C   UNL     1       2.730   5.899  18.833  0.00  0.00    +0.000 A 
ATOM      7  C   UNL     1       3.690   5.450  17.953  0.00  0.00    +0.000 A 
ATOM      8  C   UNL     1       3.812   4.078  18.268  0.00  0.00    +0.000 A 
ATOM      9  N   UNL     1       3.000   3.687  19.258  0.00  0.00    +0.000 NA
ATOM     10  N   UNL     1       2.345   4.826  19.581  0.00  0.00    +0.000 N 
ATOM     11  C   UNL     1       1.355   4.853  20.631  0.00  0.00    +0.000 C 
ATOM     12  H   UNL     1       2.923   9.918  17.504  0.00  0.00    +0.000 HD
ENDROOT
BRANCH   4  13
ATOM     13  C   UNL     1       1.120   9.784  18.534  0.00  0.00    +0.000 A 
ATOM     14  C   UNL     1       0.011   9.699  17.680  0.00  0.00    +0.000 A 
ATOM     15  C   UNL     1      -1.219  10.254  18.054  0.00  0.00    +0.000 A 
ATOM     16  C   UNL     1      -1.347  10.886  19.288  0.00  0.00    +0.000 A 
ATOM     17  F   UNL     1      -2.520  11.430  19.633  0.00  0.00    +0.000 F 
ATOM     18  C   UNL     1      -0.260  10.971  20.142  0.00  0.00    +0.000 A 
ATOM     19  F   UNL     1      -0.373  11.587  21.326  0.00  0.00    +0.000 F 
ATOM     20  C   UNL     1       0.960  10.426  19.772  0.00  0.00    +0.000 A 
ENDBRANCH   4  13
BRANCH   1  21
ATOM     21  N   UNL     1       5.233   6.081  16.140  0.00  0.00    +0.000 N 
ATOM     22  H   UNL     1       4.947   5.298  15.561  0.00  0.00    +0.000 HD
BRANCH  21  23
ATOM     23  C   UNL     1       6.561   5.918  16.731  0.00  0.00    +0.000 C 
BRANCH  23  24
ATOM     24  C   UNL     1       7.123   4.529  16.424  0.00  0.00    +0.000 C 
BRANCH  24  25
ATOM     25  C   UNL     1       6.301   3.839  15.337  0.00  0.00    +0.000 C 
BRANCH  25  27
ATOM     26  C   UNL     1       6.193   3.617  12.990  0.00  0.00    +0.000 C 
ATOM     27  O   UNL     1       6.586   4.445  14.077  0.00  0.00    +0.000 OA
ENDBRANCH  25  27
ENDBRANCH  24  25
ENDBRANCH  23  24
ENDBRANCH  21  23
ENDBRANCH   1  21
TORSDOF 6
ENDMDL
MODEL 8
REMARK VINA RESULT:      -7.0      1.457      1.835
REMARK  Name = 
REMARK  8 active torsions:
REMARK  status: ('A' for Active; 'I' for Inactive)
REMARK    1  A    between atoms: C_1  and  O_2
REMARK    2  A    between atoms: O_2  and  C_3
REMARK    3  A    between atoms: C_3  and  C_4
REMARK    4  A    between atoms: C_4  and  C_5
REMARK    5  A    between atoms: C_5  and  N_6
REMARK    6  A    between atoms: N_6  and  C_7
REMARK    7  A    between atoms: N_10  and  C_11
REMARK    8  A    between atoms: N_24  and  C_25
REMARK                            x       y       z     vdW  Elec       q    Type
REMARK                         _______ _______ _______ _____ _____    ______ ____
ROOT
ATOM      1  C   UNL     1       4.907   4.243  18.774  0.00  0.00    +0.000 A 
ATOM      2  N   UNL     1       4.635   5.480  19.284  0.00  0.00    +0.000 NA
ATOM      3  C   UNL     1       3.367   5.847  19.553  0.00  0.00    +0.000 A 
ATOM      4  N   UNL     1       3.159   7.130  20.061  0.00  0.00    +0.000 N 
ATOM      5  N   UNL     1       2.291   5.068  19.390  0.00  0.00    +0.000 NA
ATOM      6  C   UNL     1       2.574   3.866  18.894  0.00  0.00    +0.000 A 
ATOM      7  C   UNL     1       3.821   3.382  18.562  0.00  0.00    +0.000 A 
ATOM      8  C   UNL     1       3.555   2.074  18.099  0.00  0.00    +0.000 A 
ATOM      9  N   UNL     1       2.256   1.753  18.131  0.00  0.00    +0.000 NA
ATOM     10  N   UNL     1       1.678   2.875  18.619  0.00  0.00    +0.000 N 
ATOM     11  C   UNL     1       0.252   2.960  18.823  0.00  0.00    +0.000 C 
ATOM     12  H   UNL     1       4.028   7.604  20.261  0.00  0.00    +0.000 HD
ENDROOT
BRANCH   4  13
ATOM     13  C   UNL     1       1.994   7.907  19.945  0.00  0.00    +0.000 A 
ATOM     14  C   UNL     1       1.720   8.592  18.753  0.00  0.00    +0.000 A 
ATOM     15  C   UNL     1       0.619   9.453  18.664  0.00  0.00    +0.000 A 
ATOM     16  C   UNL     1      -0.218   9.623  19.764  0.00  0.00    +0.000 A 
ATOM     17  F   UNL     1      -1.259  10.460  19.678  0.00  0.00    +0.000 F 
ATOM     18  C   UNL     1       0.039   8.947  20.944  0.00  0.00    +0.000 A 
ATOM     19  F   UNL     1      -0.756   9.113  22.009  0.00  0.00    +0.000 F 
ATOM     20  C   UNL     1       1.131   8.098  21.036  0.00  0.00    +0.000 A 
ENDBRANCH   4  13
BRANCH   1  21
ATOM     21  N   UNL     1       6.232   3.874  18.486  0.00  0.00    +0.000 N 
ATOM     22  H   UNL     1       6.712   3.560  19.323  0.00  0.00    +0.000 HD
BRANCH  21  23
ATOM     23  C   UNL     1       6.967   4.893  17.736  0.00  0.00    +0.000 C 
BRANCH  23  24
ATOM     24  C   UNL     1       7.433   4.340  16.389  0.00  0.00    +0.000 C 
BRANCH  24  25
ATOM     25  C   UNL     1       6.739   5.063  15.236  0.00  0.00    +0.000 C 
BRANCH  25  27
ATOM     26  C   UNL     1       7.540   4.987  13.018  0.00  0.00    +0.000 C 
ATOM     27  O   UNL     1       7.723   5.534  14.317  0.00  0.00    +0.000 OA
ENDBRANCH  25  27
ENDBRANCH  24  25
ENDBRANCH  23  24
ENDBRANCH  21  23
ENDBRANCH   1  21
TORSDOF 6
ENDMDL
MODEL 9
REMARK VINA RESULT:      -7.0      4.234      7.093
REMARK  Name = 
REMARK  8 active torsions:
REMARK  status: ('A' for Active; 'I' for Inactive)
REMARK    1  A    between atoms: C_1  and  O_2
REMARK    2  A    between atoms: O_2  and  C_3
REMARK    3  A    between atoms: C_3  and  C_4
REMARK    4  A    between atoms: C_4  and  C_5
REMARK    5  A    between atoms: C_5  and  N_6
REMARK    6  A    between atoms: N_6  and  C_7
REMARK    7  A    between atoms: N_10  and  C_11
REMARK    8  A    between atoms: N_24  and  C_25
REMARK                            x       y       z     vdW  Elec       q    Type
REMARK                         _______ _______ _______ _____ _____    ______ ____
ROOT
ATOM      1  C   UNL     1       2.003   6.065  20.356  0.00  0.00    +0.000 A 
ATOM      2  N   UNL     1       2.676   6.625  19.308  0.00  0.00    +0.000 NA
ATOM      3  C   UNL     1       3.249   5.849  18.368  0.00  0.00    +0.000 A 
ATOM      4  N   UNL     1       3.932   6.487  17.331  0.00  0.00    +0.000 N 
ATOM      5  N   UNL     1       3.196   4.512  18.340  0.00  0.00    +0.000 NA
ATOM      6  C   UNL     1       2.535   3.983  19.367  0.00  0.00    +0.000 A 
ATOM      7  C   UNL     1       1.926   4.666  20.396  0.00  0.00    +0.000 A 
ATOM      8  C   UNL     1       1.375   3.639  21.194  0.00  0.00    +0.000 A 
ATOM      9  N   UNL     1       1.614   2.410  20.717  0.00  0.00    +0.000 NA
ATOM     10  N   UNL     1       2.333   2.654  19.597  0.00  0.00    +0.000 N 
ATOM     11  C   UNL     1       2.804   1.581  18.755  0.00  0.00    +0.000 C 
ATOM     12  H   UNL     1       3.823   7.490  17.366  0.00  0.00    +0.000 HD
ENDROOT
BRANCH   4  13
ATOM     13  C   UNL     1       4.987   5.963  16.565  0.00  0.00    +0.000 A 
ATOM     14  C   UNL     1       6.312   6.311  16.861  0.00  0.00    +0.000 A 
ATOM     15  C   UNL     1       7.361   5.880  16.039  0.00  0.00    +0.000 A 
ATOM     16  C   UNL     1       7.089   5.090  14.926  0.00  0.00    +0.000 A 
ATOM     17  F   UNL     1       8.094   4.696  14.134  0.00  0.00    +0.000 F 
ATOM     18  C   UNL     1       5.785   4.735  14.627  0.00  0.00    +0.000 A 
ATOM     19  F   UNL     1       5.515   3.985  13.551  0.00  0.00    +0.000 F 
ATOM     20  C   UNL     1       4.744   5.164  15.436  0.00  0.00    +0.000 A 
ENDBRANCH   4  13
BRANCH   1  21
ATOM     21  N   UNL     1       1.419   6.884  21.338  0.00  0.00    +0.000 N 
ATOM     22  H   UNL     1       0.533   6.501  21.651  0.00  0.00    +0.000 HD
BRANCH  21  23
ATOM     23  C   UNL     1       1.342   8.292  20.947  0.00  0.00    +0.000 C 
BRANCH  23  24
ATOM     24  C   UNL     1       1.283   9.193  22.181  0.00  0.00    +0.000 C 
BRANCH  24  25
ATOM     25  C   UNL     1      -0.148   9.305  22.703  0.00  0.00    +0.000 C 
BRANCH  25  27
ATOM     26  C   UNL     1      -1.262  11.375  22.916  0.00  0.00    +0.000 C 
ATOM     27  O   UNL     1      -0.278  10.506  23.462  0.00  0.00    +0.000 OA
ENDBRANCH  25  27
ENDBRANCH  24  25
ENDBRANCH  23  24
ENDBRANCH  21  23
ENDBRANCH   1  21
TORSDOF 6
ENDMDL
