MODEL 1
REMARK VINA RESULT:      -9.3      0.000      0.000
REMARK  Name = 
REMARK  7 active torsions:
REMARK  status: ('A' for Active; 'I' for Inactive)
REMARK    1  A    between atoms: C_1  and  C_2
REMARK    2  A    between atoms: C_2  and  C_4
REMARK    3  A    between atoms: C_7  and  N_8
REMARK    4  A    between atoms: C_9  and  C_11
REMARK    5  A    between atoms: C_11  and  C_12
REMARK    6  A    between atoms: C_16  and  C_17
REMARK    7  A    between atoms: C_18  and  C_19
REMARK                            x       y       z     vdW  Elec       q    Type
REMARK                         _______ _______ _______ _____ _____    ______ ____
ROOT
ATOM      1  C   UNL     1       6.701   5.836  18.223  0.00  0.00    +0.000 C 
ATOM      2  N   UNL     1       5.860   5.566  19.412  0.00  0.00    +0.000 N 
ATOM      3  C   UNL     1       4.678   4.864  19.092  0.00  0.00    +0.000 A 
ATOM      4  C   UNL     1       3.612   4.909  19.990  0.00  0.00    +0.000 A 
ATOM      5  C   UNL     1       2.418   4.212  19.742  0.00  0.00    +0.000 A 
ATOM      6  C   UNL     1       1.302   4.321  20.746  0.00  0.00    +0.000 C 
ATOM      7  C   UNL     1       2.304   3.436  18.571  0.00  0.00    +0.000 A 
ATOM      8  C   UNL     1       1.027   2.748  18.170  0.00  0.00    +0.000 C 
ATOM      9  C   UNL     1       3.419   3.305  17.722  0.00  0.00    +0.000 A 
ATOM     10  C   UNL     1       4.591   4.014  17.980  0.00  0.00    +0.000 A 
ATOM     11  N   UNL     1       5.702   3.860  17.137  0.00  0.00    +0.000 N 
ATOM     12  C   UNL     1       6.830   4.632  17.272  0.00  0.00    +0.000 C 
ATOM     13  O   UNL     1       7.836   4.418  16.593  0.00  0.00    +0.000 OA
ATOM     14  H   UNL     1       6.369   5.028  20.123  0.00  0.00    +0.000 HD
ATOM     15  H   UNL     1       5.715   3.136  16.433  0.00  0.00    +0.000 HD
ENDROOT
BRANCH   1  16
ATOM     16  C   UNL     1       8.067   6.389  18.612  0.00  0.00    +0.000 C 
BRANCH  16  18
ATOM     17  N   UNL     1       8.879   8.634  19.126  0.00  0.00    +0.000 N 
ATOM     18  C   UNL     1       8.153   7.846  18.244  0.00  0.00    +0.000 C 
ATOM     19  O   UNL     1       7.535   8.238  17.258  0.00  0.00    +0.000 OA
ATOM     20  H   UNL     1       9.284   8.178  19.939  0.00  0.00    +0.000 HD
BRANCH  17  24
ATOM     21  C   UNL     1       9.369  12.834  18.902  0.00  0.00    +0.000 A 
ATOM     22  C   UNL     1       8.888  12.126  17.807  0.00  0.00    +0.000 A 
ATOM     23  C   UNL     1       8.728  10.749  17.879  0.00  0.00    +0.000 A 
ATOM     24  C   UNL     1       9.029  10.035  19.039  0.00  0.00    +0.000 A 
ATOM     25  C   UNL     1       9.493  10.747  20.155  0.00  0.00    +0.000 A 
ATOM     26  C   UNL     1       9.669  12.139  20.083  0.00  0.00    +0.000 A 
BRANCH  21  28
ATOM     27  C   UNL     1      10.483  14.970  19.819  0.00  0.00    +0.000 C 
ATOM     28  C   UNL     1       9.563  14.308  18.821  0.00  0.00    +0.000 C 
ATOM     29  O   UNL     1       8.985  14.957  17.948  0.00  0.00    +0.000 OA
ENDBRANCH  21  28
ENDBRANCH  17  24
ENDBRANCH  16  18
ENDBRANCH   1  16
TORSDOF 4
ENDMDL
MODEL 2
REMARK VINA RESULT:      -9.2      0.534      1.159
REMARK  Name = 
REMARK  7 active torsions:
REMARK  status: ('A' for Active; 'I' for Inactive)
REMARK    1  A    between atoms: C_1  and  C_2
REMARK    2  A    between atoms: C_2  and  C_4
REMARK    3  A    between atoms: C_7  and  N_8
REMARK    4  A    between atoms: C_9  and  C_11
REMARK    5  A    between atoms: C_11  and  C_12
REMARK    6  A    between atoms: C_16  and  C_17
REMARK    7  A    between atoms: C_18  and  C_19
REMARK                            x       y       z     vdW  Elec       q    Type
REMARK                         _______ _______ _______ _____ _____    ______ ____
ROOT
ATOM      1  C   UNL     1       6.720   5.849  18.141  0.00  0.00    +0.000 C 
ATOM      2  N   UNL     1       5.923   5.559  19.355  0.00  0.00    +0.000 N 
ATOM      3  C   UNL     1       4.744   4.838  19.069  0.00  0.00    +0.000 A 
ATOM      4  C   UNL     1       3.707   4.859  20.002  0.00  0.00    +0.000 A 
ATOM      5  C   UNL     1       2.518   4.143  19.789  0.00  0.00    +0.000 A 
ATOM      6  C   UNL     1       1.434   4.228  20.828  0.00  0.00    +0.000 C 
ATOM      7  C   UNL     1       2.380   3.371  18.617  0.00  0.00    +0.000 A 
ATOM      8  C   UNL     1       1.103   2.663  18.254  0.00  0.00    +0.000 C 
ATOM      9  C   UNL     1       3.469   3.264  17.732  0.00  0.00    +0.000 A 
ATOM     10  C   UNL     1       4.636   3.992  17.956  0.00  0.00    +0.000 A 
ATOM     11  N   UNL     1       5.721   3.862  17.077  0.00  0.00    +0.000 N 
ATOM     12  C   UNL     1       6.840   4.653  17.179  0.00  0.00    +0.000 C 
ATOM     13  O   UNL     1       7.827   4.460  16.467  0.00  0.00    +0.000 OA
ATOM     14  H   UNL     1       6.465   5.026  20.046  0.00  0.00    +0.000 HD
ATOM     15  H   UNL     1       5.724   3.142  16.368  0.00  0.00    +0.000 HD
ENDROOT
BRANCH   1  16
ATOM     16  C   UNL     1       8.088   6.425  18.488  0.00  0.00    +0.000 C 
BRANCH  16  18
ATOM     17  N   UNL     1       8.922   8.649  19.057  0.00  0.00    +0.000 N 
ATOM     18  C   UNL     1       8.107   7.905  18.215  0.00  0.00    +0.000 C 
ATOM     19  O   UNL     1       7.367   8.348  17.341  0.00  0.00    +0.000 OA
ATOM     20  H   UNL     1       9.429   8.149  19.782  0.00  0.00    +0.000 HD
BRANCH  17  24
ATOM     21  C   UNL     1       9.237  12.871  18.997  0.00  0.00    +0.000 A 
ATOM     22  C   UNL     1       9.386  12.175  20.191  0.00  0.00    +0.000 A 
ATOM     23  C   UNL     1       9.282  10.790  20.212  0.00  0.00    +0.000 A 
ATOM     24  C   UNL     1       9.038  10.055  19.051  0.00  0.00    +0.000 A 
ATOM     25  C   UNL     1       8.910  10.751  17.840  0.00  0.00    +0.000 A 
ATOM     26  C   UNL     1       9.001  12.152  17.815  0.00  0.00    +0.000 A 
BRANCH  21  28
ATOM     27  C   UNL     1       8.245  15.133  18.259  0.00  0.00    +0.000 C 
ATOM     28  C   UNL     1       9.326  14.357  18.975  0.00  0.00    +0.000 C 
ATOM     29  O   UNL     1      10.261  14.925  19.540  0.00  0.00    +0.000 OA
ENDBRANCH  21  28
ENDBRANCH  17  24
ENDBRANCH  16  18
ENDBRANCH   1  16
TORSDOF 4
ENDMDL
MODEL 3
REMARK VINA RESULT:      -8.9      5.265      7.229
REMARK  Name = 
REMARK  7 active torsions:
REMARK  status: ('A' for Active; 'I' for Inactive)
REMARK    1  A    between atoms: C_1  and  C_2
REMARK    2  A    between atoms: C_2  and  C_4
REMARK    3  A    between atoms: C_7  and  N_8
REMARK    4  A    between atoms: C_9  and  C_11
REMARK    5  A    between atoms: C_11  and  C_12
REMARK    6  A    between atoms: C_16  and  C_17
REMARK    7  A    between atoms: C_18  and  C_19
REMARK                            x       y       z     vdW  Elec       q    Type
REMARK                         _______ _______ _______ _____ _____    ______ ____
ROOT
ATOM      1  C   UNL     1       4.851   4.588  18.283  0.00  0.00    +0.000 C 
ATOM      2  N   UNL     1       4.758   3.678  17.118  0.00  0.00    +0.000 N 
ATOM      3  C   UNL     1       5.576   4.087  16.044  0.00  0.00    +0.000 A 
ATOM      4  C   UNL     1       5.290   3.606  14.766  0.00  0.00    +0.000 A 
ATOM      5  C   UNL     1       6.080   3.956  13.659  0.00  0.00    +0.000 A 
ATOM      6  C   UNL     1       5.700   3.415  12.308  0.00  0.00    +0.000 C 
ATOM      7  C   UNL     1       7.198   4.794  13.849  0.00  0.00    +0.000 A 
ATOM      8  C   UNL     1       8.033   5.308  12.708  0.00  0.00    +0.000 C 
ATOM      9  C   UNL     1       7.548   5.188  15.154  0.00  0.00    +0.000 A 
ATOM     10  C   UNL     1       6.743   4.840  16.237  0.00  0.00    +0.000 A 
ATOM     11  N   UNL     1       7.113   5.223  17.535  0.00  0.00    +0.000 N 
ATOM     12  C   UNL     1       6.291   5.019  18.617  0.00  0.00    +0.000 C 
ATOM     13  O   UNL     1       6.669   5.266  19.763  0.00  0.00    +0.000 OA
ATOM     14  H   UNL     1       5.015   2.715  17.367  0.00  0.00    +0.000 HD
ATOM     15  H   UNL     1       8.025   5.621  17.712  0.00  0.00    +0.000 HD
ENDROOT
BRANCH   1  16
ATOM     16  C   UNL     1       4.143   4.015  19.505  0.00  0.00    +0.000 C 
BRANCH  16  18
ATOM     17  N   UNL     1       3.065   6.199  19.326  0.00  0.00    +0.000 N 
ATOM     18  C   UNL     1       3.097   4.982  19.992  0.00  0.00    +0.000 C 
ATOM     19  O   UNL     1       2.415   4.666  20.962  0.00  0.00    +0.000 OA
ATOM     20  H   UNL     1       3.739   6.344  18.579  0.00  0.00    +0.000 HD
BRANCH  17  24
ATOM     21  C   UNL     1       0.557   9.480  20.263  0.00  0.00    +0.000 A 
ATOM     22  C   UNL     1       0.797   8.489  21.209  0.00  0.00    +0.000 A 
ATOM     23  C   UNL     1       1.618   7.412  20.902  0.00  0.00    +0.000 A 
ATOM     24  C   UNL     1       2.233   7.291  19.656  0.00  0.00    +0.000 A 
ATOM     25  C   UNL     1       2.015   8.299  18.707  0.00  0.00    +0.000 A 
ATOM     26  C   UNL     1       1.174   9.384  19.007  0.00  0.00    +0.000 A 
BRANCH  21  28
ATOM     27  C   UNL     1      -0.384  11.132  22.003  0.00  0.00    +0.000 C 
ATOM     28  C   UNL     1      -0.341  10.624  20.581  0.00  0.00    +0.000 C 
ATOM     29  O   UNL     1      -1.020  11.139  19.692  0.00  0.00    +0.000 OA
ENDBRANCH  21  28
ENDBRANCH  17  24
ENDBRANCH  16  18
ENDBRANCH   1  16
TORSDOF 4
ENDMDL
MODEL 4
REMARK VINA RESULT:      -8.8      5.300      7.260
REMARK  Name = 
REMARK  7 active torsions:
REMARK  status: ('A' for Active; 'I' for Inactive)
REMARK    1  A    between atoms: C_1  and  C_2
REMARK    2  A    between atoms: C_2  and  C_4
REMARK    3  A    between atoms: C_7  and  N_8
REMARK    4  A    between atoms: C_9  and  C_11
REMARK    5  A    between atoms: C_11  and  C_12
REMARK    6  A    between atoms: C_16  and  C_17
REMARK    7  A    between atoms: C_18  and  C_19
REMARK                            x       y       z     vdW  Elec       q    Type
REMARK                         _______ _______ _______ _____ _____    ______ ____
ROOT
ATOM      1  C   UNL     1       4.594   4.751  18.279  0.00  0.00    +0.000 C 
ATOM      2  N   UNL     1       4.473   3.847  17.112  0.00  0.00    +0.000 N 
ATOM      3  C   UNL     1       5.366   4.185  16.071  0.00  0.00    +0.000 A 
ATOM      4  C   UNL     1       5.092   3.724  14.783  0.00  0.00    +0.000 A 
ATOM      5  C   UNL     1       5.952   4.004  13.709  0.00  0.00    +0.000 A 
ATOM      6  C   UNL     1       5.585   3.491  12.344  0.00  0.00    +0.000 C 
ATOM      7  C   UNL     1       7.126   4.749  13.944  0.00  0.00    +0.000 A 
ATOM      8  C   UNL     1       8.046   5.189  12.837  0.00  0.00    +0.000 C 
ATOM      9  C   UNL     1       7.454   5.118  15.262  0.00  0.00    +0.000 A 
ATOM     10  C   UNL     1       6.581   4.841  16.312  0.00  0.00    +0.000 A 
ATOM     11  N   UNL     1       6.928   5.198  17.623  0.00  0.00    +0.000 N 
ATOM     12  C   UNL     1       6.050   5.065  18.670  0.00  0.00    +0.000 C 
ATOM     13  O   UNL     1       6.400   5.284  19.831  0.00  0.00    +0.000 OA
ATOM     14  H   UNL     1       4.641   2.868  17.371  0.00  0.00    +0.000 HD
ATOM     15  H   UNL     1       7.861   5.520  17.837  0.00  0.00    +0.000 HD
ENDROOT
BRANCH   1  16
ATOM     16  C   UNL     1       3.793   4.242  19.472  0.00  0.00    +0.000 C 
BRANCH  16  18
ATOM     17  N   UNL     1       2.940   6.526  19.614  0.00  0.00    +0.000 N 
ATOM     18  C   UNL     1       2.648   5.177  19.758  0.00  0.00    +0.000 C 
ATOM     19  O   UNL     1       1.589   4.701  20.155  0.00  0.00    +0.000 OA
ATOM     20  H   UNL     1       3.886   6.775  19.338  0.00  0.00    +0.000 HD
BRANCH  17  24
ATOM     21  C   UNL     1       0.314   9.715  20.542  0.00  0.00    +0.000 A 
ATOM     22  C   UNL     1       0.862   9.609  19.269  0.00  0.00    +0.000 A 
ATOM     23  C   UNL     1       1.725   8.564  18.964  0.00  0.00    +0.000 A 
ATOM     24  C   UNL     1       2.060   7.590  19.906  0.00  0.00    +0.000 A 
ATOM     25  C   UNL     1       1.490   7.679  21.184  0.00  0.00    +0.000 A 
ATOM     26  C   UNL     1       0.627   8.742  21.502  0.00  0.00    +0.000 A 
BRANCH  21  28
ATOM     27  C   UNL     1      -0.747  11.240  22.329  0.00  0.00    +0.000 C 
ATOM     28  C   UNL     1      -0.594  10.847  20.879  0.00  0.00    +0.000 C 
ATOM     29  O   UNL     1      -1.192  11.443  19.982  0.00  0.00    +0.000 OA
ENDBRANCH  21  28
ENDBRANCH  17  24
ENDBRANCH  16  18
ENDBRANCH   1  16
TORSDOF 4
ENDMDL
MODEL 5
REMARK VINA RESULT:      -8.7      1.518      1.872
REMARK  Name = 
REMARK  7 active torsions:
REMARK  status: ('A' for Active; 'I' for Inactive)
REMARK    1  A    between atoms: C_1  and  C_2
REMARK    2  A    between atoms: C_2  and  C_4
REMARK    3  A    between atoms: C_7  and  N_8
REMARK    4  A    between atoms: C_9  and  C_11
REMARK    5  A    between atoms: C_11  and  C_12
REMARK    6  A    between atoms: C_16  and  C_17
REMARK    7  A    between atoms: C_18  and  C_19
REMARK                            x       y       z     vdW  Elec       q    Type
REMARK                         _______ _______ _______ _____ _____    ______ ____
ROOT
ATOM      1  C   UNL     1       6.348   5.858  17.094  0.00  0.00    +0.000 C 
ATOM      2  N   UNL     1       5.456   6.487  18.095  0.00  0.00    +0.000 N 
ATOM      3  C   UNL     1       4.644   5.545  18.764  0.00  0.00    +0.000 A 
ATOM      4  C   UNL     1       3.489   5.996  19.402  0.00  0.00    +0.000 A 
ATOM      5  C   UNL     1       2.651   5.115  20.105  0.00  0.00    +0.000 A 
ATOM      6  C   UNL     1       1.411   5.668  20.752  0.00  0.00    +0.000 C 
ATOM      7  C   UNL     1       2.999   3.751  20.184  0.00  0.00    +0.000 A 
ATOM      8  C   UNL     1       2.107   2.719  20.821  0.00  0.00    +0.000 C 
ATOM      9  C   UNL     1       4.220   3.320  19.634  0.00  0.00    +0.000 A 
ATOM     10  C   UNL     1       5.031   4.208  18.930  0.00  0.00    +0.000 A 
ATOM     11  N   UNL     1       6.255   3.770  18.402  0.00  0.00    +0.000 N 
ATOM     12  C   UNL     1       7.026   4.568  17.592  0.00  0.00    +0.000 C 
ATOM     13  O   UNL     1       8.144   4.211  17.220  0.00  0.00    +0.000 OA
ATOM     14  H   UNL     1       5.988   7.010  18.801  0.00  0.00    +0.000 HD
ATOM     15  H   UNL     1       6.624   2.863  18.649  0.00  0.00    +0.000 HD
ENDROOT
BRANCH   1  16
ATOM     16  C   UNL     1       7.369   6.848  16.546  0.00  0.00    +0.000 C 
BRANCH  16  18
ATOM     17  N   UNL     1       8.024   9.067  17.328  0.00  0.00    +0.000 N 
ATOM     18  C   UNL     1       7.879   7.726  17.657  0.00  0.00    +0.000 C 
ATOM     19  O   UNL     1       8.191   7.200  18.721  0.00  0.00    +0.000 OA
ATOM     20  H   UNL     1       7.785   9.347  16.381  0.00  0.00    +0.000 HD
BRANCH  17  24
ATOM     21  C   UNL     1       9.606  12.091  19.835  0.00  0.00    +0.000 A 
ATOM     22  C   UNL     1       9.571  10.770  20.268  0.00  0.00    +0.000 A 
ATOM     23  C   UNL     1       9.052   9.778  19.447  0.00  0.00    +0.000 A 
ATOM     24  C   UNL     1       8.562  10.062  18.172  0.00  0.00    +0.000 A 
ATOM     25  C   UNL     1       8.617  11.389  17.721  0.00  0.00    +0.000 A 
ATOM     26  C   UNL     1       9.129  12.399  18.552  0.00  0.00    +0.000 A 
BRANCH  21  28
ATOM     27  C   UNL     1       9.502  13.362  22.074  0.00  0.00    +0.000 C 
ATOM     28  C   UNL     1      10.142  13.160  20.721  0.00  0.00    +0.000 C 
ATOM     29  O   UNL     1      11.092  13.850  20.348  0.00  0.00    +0.000 OA
ENDBRANCH  21  28
ENDBRANCH  17  24
ENDBRANCH  16  18
ENDBRANCH   1  16
TORSDOF 4
ENDMDL
MODEL 6
REMARK VINA RESULT:      -8.2      1.468      1.857
REMARK  Name = 
REMARK  7 active torsions:
REMARK  status: ('A' for Active; 'I' for Inactive)
REMARK    1  A    between atoms: C_1  and  C_2
REMARK    2  A    between atoms: C_2  and  C_4
REMARK    3  A    between atoms: C_7  and  N_8
REMARK    4  A    between atoms: C_9  and  C_11
REMARK    5  A    between atoms: C_11  and  C_12
REMARK    6  A    between atoms: C_16  and  C_17
REMARK    7  A    between atoms: C_18  and  C_19
REMARK                            x       y       z     vdW  Elec       q    Type
REMARK                         _______ _______ _______ _____ _____    ______ ____
ROOT
ATOM      1  C   UNL     1       5.912   5.650  17.176  0.00  0.00    +0.000 C 
ATOM      2  N   UNL     1       5.808   4.809  18.390  0.00  0.00    +0.000 N 
ATOM      3  C   UNL     1       4.520   4.255  18.557  0.00  0.00    +0.000 A 
ATOM      4  C   UNL     1       4.145   3.811  19.824  0.00  0.00    +0.000 A 
ATOM      5  C   UNL     1       2.888   3.228  20.052  0.00  0.00    +0.000 A 
ATOM      6  C   UNL     1       2.543   2.789  21.448  0.00  0.00    +0.000 C 
ATOM      7  C   UNL     1       1.996   3.072  18.971  0.00  0.00    +0.000 A 
ATOM      8  C   UNL     1       0.591   2.561  19.141  0.00  0.00    +0.000 C 
ATOM      9  C   UNL     1       2.419   3.420  17.674  0.00  0.00    +0.000 A 
ATOM     10  C   UNL     1       3.667   4.008  17.472  0.00  0.00    +0.000 A 
ATOM     11  N   UNL     1       4.084   4.333  16.173  0.00  0.00    +0.000 N 
ATOM     12  C   UNL     1       5.244   5.030  15.935  0.00  0.00    +0.000 C 
ATOM     13  O   UNL     1       5.652   5.220  14.788  0.00  0.00    +0.000 OA
ATOM     14  H   UNL     1       6.488   4.039  18.378  0.00  0.00    +0.000 HD
ATOM     15  H   UNL     1       3.558   4.017  15.371  0.00  0.00    +0.000 HD
ENDROOT
BRANCH   1  16
ATOM     16  C   UNL     1       7.354   6.053  16.890  0.00  0.00    +0.000 C 
BRANCH  16  18
ATOM     17  N   UNL     1       7.928   8.386  17.329  0.00  0.00    +0.000 N 
ATOM     18  C   UNL     1       7.794   7.113  17.864  0.00  0.00    +0.000 C 
ATOM     19  O   UNL     1       8.064   6.775  19.013  0.00  0.00    +0.000 OA
ATOM     20  H   UNL     1       7.730   8.502  16.339  0.00  0.00    +0.000 HD
BRANCH  17  24
ATOM     21  C   UNL     1       9.322  11.816  19.383  0.00  0.00    +0.000 A 
ATOM     22  C   UNL     1       9.493  10.552  19.936  0.00  0.00    +0.000 A 
ATOM     23  C   UNL     1       9.035   9.426  19.263  0.00  0.00    +0.000 A 
ATOM     24  C   UNL     1       8.406   9.519  18.022  0.00  0.00    +0.000 A 
ATOM     25  C   UNL     1       8.253  10.790  17.449  0.00  0.00    +0.000 A 
ATOM     26  C   UNL     1       8.702  11.933  18.131  0.00  0.00    +0.000 A 
BRANCH  21  28
ATOM     27  C   UNL     1       9.667  13.054  21.618  0.00  0.00    +0.000 C 
ATOM     28  C   UNL     1       9.792  13.026  20.113  0.00  0.00    +0.000 C 
ATOM     29  O   UNL     1      10.277  13.971  19.488  0.00  0.00    +0.000 OA
ENDBRANCH  21  28
ENDBRANCH  17  24
ENDBRANCH  16  18
ENDBRANCH   1  16
TORSDOF 4
ENDMDL
MODEL 7
REMARK VINA RESULT:      -8.1      7.251      9.224
REMARK  Name = 
REMARK  7 active torsions:
REMARK  status: ('A' for Active; 'I' for Inactive)
REMARK    1  A    between atoms: C_1  and  C_2
REMARK    2  A    between atoms: C_2  and  C_4
REMARK    3  A    between atoms: C_7  and  N_8
REMARK    4  A    between atoms: C_9  and  C_11
REMARK    5  A    between atoms: C_11  and  C_12
REMARK    6  A    between atoms: C_16  and  C_17
REMARK    7  A    between atoms: C_18  and  C_19
REMARK                            x       y       z     vdW  Elec       q    Type
REMARK                         _______ _______ _______ _____ _____    ______ ____
ROOT
ATOM      1  C   UNL     1       1.413   8.368  19.484  0.00  0.00    +0.000 C 
ATOM      2  N   UNL     1       1.884   7.428  20.527  0.00  0.00    +0.000 N 
ATOM      3  C   UNL     1       2.151   6.140  20.014  0.00  0.00    +0.000 A 
ATOM      4  C   UNL     1       2.185   5.064  20.901  0.00  0.00    +0.000 A 
ATOM      5  C   UNL     1       2.469   3.762  20.459  0.00  0.00    +0.000 A 
ATOM      6  C   UNL     1       2.470   2.646  21.468  0.00  0.00    +0.000 C 
ATOM      7  C   UNL     1       2.745   3.543  19.094  0.00  0.00    +0.000 A 
ATOM      8  C   UNL     1       2.950   2.170  18.514  0.00  0.00    +0.000 C 
ATOM      9  C   UNL     1       2.818   4.646  18.222  0.00  0.00    +0.000 A 
ATOM     10  C   UNL     1       2.521   5.928  18.679  0.00  0.00    +0.000 A 
ATOM     11  N   UNL     1       2.615   7.021  17.804  0.00  0.00    +0.000 N 
ATOM     12  C   UNL     1       2.209   8.282  18.168  0.00  0.00    +0.000 C 
ATOM     13  O   UNL     1       2.391   9.251  17.430  0.00  0.00    +0.000 OA
ATOM     14  H   UNL     1       2.734   7.770  20.990  0.00  0.00    +0.000 HD
ATOM     15  H   UNL     1       3.033   6.913  16.891  0.00  0.00    +0.000 HD
ENDROOT
BRANCH   1  16
ATOM     16  C   UNL     1       1.346   9.800  20.003  0.00  0.00    +0.000 C 
BRANCH  16  18
ATOM     17  N   UNL     1      -0.365  11.372  20.756  0.00  0.00    +0.000 N 
ATOM     18  C   UNL     1       0.020  10.041  20.674  0.00  0.00    +0.000 C 
ATOM     19  O   UNL     1      -0.576   9.080  21.152  0.00  0.00    +0.000 OA
ATOM     20  H   UNL     1       0.267  12.068  20.370  0.00  0.00    +0.000 HD
BRANCH  17  24
ATOM     21  C   UNL     1      -3.856  12.799  22.679  0.00  0.00    +0.000 A 
ATOM     22  C   UNL     1      -2.824  12.243  23.426  0.00  0.00    +0.000 A 
ATOM     23  C   UNL     1      -1.679  11.773  22.796  0.00  0.00    +0.000 A 
ATOM     24  C   UNL     1      -1.519  11.851  21.412  0.00  0.00    +0.000 A 
ATOM     25  C   UNL     1      -2.547  12.433  20.657  0.00  0.00    +0.000 A 
ATOM     26  C   UNL     1      -3.713  12.897  21.287  0.00  0.00    +0.000 A 
BRANCH  21  28
ATOM     27  C   UNL     1      -5.181  14.739  23.741  0.00  0.00    +0.000 C 
ATOM     28  C   UNL     1      -5.095  13.283  23.349  0.00  0.00    +0.000 C 
ATOM     29  O   UNL     1      -6.023  12.502  23.564  0.00  0.00    +0.000 OA
ENDBRANCH  21  28
ENDBRANCH  17  24
ENDBRANCH  16  18
ENDBRANCH   1  16
TORSDOF 4
ENDMDL
MODEL 8
REMARK VINA RESULT:      -8.1      6.850      9.296
REMARK  Name = 
REMARK  7 active torsions:
REMARK  status: ('A' for Active; 'I' for Inactive)
REMARK    1  A    between atoms: C_1  and  C_2
REMARK    2  A    between atoms: C_2  and  C_4
REMARK    3  A    between atoms: C_7  and  N_8
REMARK    4  A    between atoms: C_9  and  C_11
REMARK    5  A    between atoms: C_11  and  C_12
REMARK    6  A    between atoms: C_16  and  C_17
REMARK    7  A    between atoms: C_18  and  C_19
REMARK                            x       y       z     vdW  Elec       q    Type
REMARK                         _______ _______ _______ _____ _____    ______ ____
ROOT
ATOM      1  C   UNL     1       1.523   8.149  19.475  0.00  0.00    +0.000 C 
ATOM      2  N   UNL     1       1.947   7.217  20.545  0.00  0.00    +0.000 N 
ATOM      3  C   UNL     1       2.253   5.930  20.052  0.00  0.00    +0.000 A 
ATOM      4  C   UNL     1       2.251   4.857  20.943  0.00  0.00    +0.000 A 
ATOM      5  C   UNL     1       2.571   3.557  20.522  0.00  0.00    +0.000 A 
ATOM      6  C   UNL     1       2.529   2.444  21.533  0.00  0.00    +0.000 C 
ATOM      7  C   UNL     1       2.920   3.337  19.173  0.00  0.00    +0.000 A 
ATOM      8  C   UNL     1       3.169   1.964  18.610  0.00  0.00    +0.000 C 
ATOM      9  C   UNL     1       3.028   4.437  18.303  0.00  0.00    +0.000 A 
ATOM     10  C   UNL     1       2.695   5.718  18.739  0.00  0.00    +0.000 A 
ATOM     11  N   UNL     1       2.825   6.810  17.866  0.00  0.00    +0.000 N 
ATOM     12  C   UNL     1       2.388   8.067  18.204  0.00  0.00    +0.000 C 
ATOM     13  O   UNL     1       2.600   9.036  17.473  0.00  0.00    +0.000 OA
ATOM     14  H   UNL     1       2.769   7.569  21.051  0.00  0.00    +0.000 HD
ATOM     15  H   UNL     1       3.292   6.703  16.977  0.00  0.00    +0.000 HD
ENDROOT
BRANCH   1  16
ATOM     16  C   UNL     1       1.415   9.582  19.985  0.00  0.00    +0.000 C 
BRANCH  16  18
ATOM     17  N   UNL     1      -0.590  10.192  18.732  0.00  0.00    +0.000 N 
ATOM     18  C   UNL     1      -0.026  10.019  19.987  0.00  0.00    +0.000 C 
ATOM     19  O   UNL     1      -0.564  10.254  21.065  0.00  0.00    +0.000 OA
ATOM     20  H   UNL     1       0.001  10.020  17.923  0.00  0.00    +0.000 HD
BRANCH  17  24
ATOM     21  C   UNL     1      -4.513  11.590  17.964  0.00  0.00    +0.000 A 
ATOM     22  C   UNL     1      -3.681  12.282  18.837  0.00  0.00    +0.000 A 
ATOM     23  C   UNL     1      -2.395  11.824  19.091  0.00  0.00    +0.000 A 
ATOM     24  C   UNL     1      -1.892  10.675  18.479  0.00  0.00    +0.000 A 
ATOM     25  C   UNL     1      -2.718   9.986  17.579  0.00  0.00    +0.000 A 
ATOM     26  C   UNL     1      -4.025  10.438  17.330  0.00  0.00    +0.000 A 
BRANCH  21  28
ATOM     27  C   UNL     1      -7.047  11.328  18.357  0.00  0.00    +0.000 C 
ATOM     28  C   UNL     1      -5.900  12.066  17.708  0.00  0.00    +0.000 C 
ATOM     29  O   UNL     1      -6.090  13.047  16.987  0.00  0.00    +0.000 OA
ENDBRANCH  21  28
ENDBRANCH  17  24
ENDBRANCH  16  18
ENDBRANCH   1  16
TORSDOF 4
ENDMDL
MODEL 9
REMARK VINA RESULT:      -8.1      4.918      7.221
REMARK  Name = 
REMARK  7 active torsions:
REMARK  status: ('A' for Active; 'I' for Inactive)
REMARK    1  A    between atoms: C_1  and  C_2
REMARK    2  A    between atoms: C_2  and  C_4
REMARK    3  A    between atoms: C_7  and  N_8
REMARK    4  A    between atoms: C_9  and  C_11
REMARK    5  A    between atoms: C_11  and  C_12
REMARK    6  A    between atoms: C_16  and  C_17
REMARK    7  A    between atoms: C_18  and  C_19
REMARK                            x       y       z     vdW  Elec       q    Type
REMARK                         _______ _______ _______ _____ _____    ______ ____
ROOT
ATOM      1  C   UNL     1       5.306   5.042  17.648  0.00  0.00    +0.000 C 
ATOM      2  N   UNL     1       5.155   3.942  16.669  0.00  0.00    +0.000 N 
ATOM      3  C   UNL     1       5.801   4.215  15.444  0.00  0.00    +0.000 A 
ATOM      4  C   UNL     1       5.408   3.503  14.310  0.00  0.00    +0.000 A 
ATOM      5  C   UNL     1       6.027   3.710  13.067  0.00  0.00    +0.000 A 
ATOM      6  C   UNL     1       5.538   2.921  11.883  0.00  0.00    +0.000 C 
ATOM      7  C   UNL     1       7.080   4.641  12.969  0.00  0.00    +0.000 A 
ATOM      8  C   UNL     1       7.726   5.007  11.660  0.00  0.00    +0.000 C 
ATOM      9  C   UNL     1       7.547   5.276  14.135  0.00  0.00    +0.000 A 
ATOM     10  C   UNL     1       6.911   5.066  15.357  0.00  0.00    +0.000 A 
ATOM     11  N   UNL     1       7.397   5.690  16.516  0.00  0.00    +0.000 N 
ATOM     12  C   UNL     1       6.731   5.620  17.715  0.00  0.00    +0.000 C 
ATOM     13  O   UNL     1       7.220   6.084  18.746  0.00  0.00    +0.000 OA
ATOM     14  H   UNL     1       5.523   3.055  17.034  0.00  0.00    +0.000 HD
ATOM     15  H   UNL     1       8.285   6.173  16.504  0.00  0.00    +0.000 HD
ENDROOT
BRANCH   1  16
ATOM     16  C   UNL     1       4.801   4.641  19.030  0.00  0.00    +0.000 C 
BRANCH  16  18
ATOM     17  N   UNL     1       3.470   6.654  18.651  0.00  0.00    +0.000 N 
ATOM     18  C   UNL     1       3.641   5.515  19.426  0.00  0.00    +0.000 C 
ATOM     19  O   UNL     1       2.989   5.207  20.420  0.00  0.00    +0.000 OA
ATOM     20  H   UNL     1       4.131   6.811  17.895  0.00  0.00    +0.000 HD
BRANCH  17  24
ATOM     21  C   UNL     1       0.574   9.678  19.283  0.00  0.00    +0.000 A 
ATOM     22  C   UNL     1       0.932   8.824  20.320  0.00  0.00    +0.000 A 
ATOM     23  C   UNL     1       1.881   7.831  20.114  0.00  0.00    +0.000 A 
ATOM     24  C   UNL     1       2.509   7.662  18.879  0.00  0.00    +0.000 A 
ATOM     25  C   UNL     1       2.170   8.536  17.837  0.00  0.00    +0.000 A 
ATOM     26  C   UNL     1       1.200   9.534  18.036  0.00  0.00    +0.000 A 
BRANCH  21  28
ATOM     27  C   UNL     1      -1.743  10.647  18.704  0.00  0.00    +0.000 C 
ATOM     28  C   UNL     1      -0.459  10.729  19.495  0.00  0.00    +0.000 C 
ATOM     29  O   UNL     1      -0.259  11.633  20.307  0.00  0.00    +0.000 OA
ENDBRANCH  21  28
ENDBRANCH  17  24
ENDBRANCH  16  18
ENDBRANCH   1  16
TORSDOF 4
ENDMDL
