MODEL 1
REMARK VINA RESULT:      -5.1      0.000      0.000
REMARK  Name = 
REMARK  8 active torsions:
REMARK  status: ('A' for Active; 'I' for Inactive)
REMARK    1  A    between atoms: C_1  and  C_2
REMARK    2  A    between atoms: C_2  and  C_3
REMARK    3  A    between atoms: C_3  and  C_4
REMARK    4  A    between atoms: C_4  and  N_5
REMARK    5  A    between atoms: C_6  and  C_8
REMARK    6  A    between atoms: C_8  and  C_9
REMARK    7  A    between atoms: C_9  and  C_10
REMARK    8  A    between atoms: C_10  and  N_11
REMARK                            x       y       z     vdW  Elec       q    Type
REMARK                         _______ _______ _______ _____ _____    ______ ____
ROOT
ATOM      1  N   UNL     1       6.228   3.586  14.034  0.00  0.00    +0.000 N 
ATOM      2  C   UNL     1       6.814   4.495  14.882  0.00  0.00    +0.000 C 
ATOM      3  O   UNL     1       7.599   5.359  14.509  0.00  0.00    +0.000 OA
ATOM      4  H   UNL     1       5.625   2.869  14.415  0.00  0.00    +0.000 HD
ENDROOT
BRANCH   1   5
ATOM      5  C   UNL     1       6.549   3.561  12.624  0.00  0.00    +0.000 C 
BRANCH   5   6
ATOM      6  C   UNL     1       5.499   2.827  11.793  0.00  0.00    +0.000 C 
BRANCH   6   8
ATOM      7  C   UNL     1       3.363   3.101  10.484  0.00  0.00    +0.000 C 
ATOM      8  C   UNL     1       4.205   3.628  11.635  0.00  0.00    +0.000 C 
ENDBRANCH   6   8
ENDBRANCH   5   6
ENDBRANCH   1   5
BRANCH   2   9
ATOM      9  C   UNL     1       6.400   4.360  16.332  0.00  0.00    +0.000 C 
BRANCH   9  10
ATOM     10  C   UNL     1       4.940   3.947  16.508  0.00  0.00    +0.000 C 
BRANCH  10  11
ATOM     11  C   UNL     1       4.532   3.872  17.979  0.00  0.00    +0.000 C 
BRANCH  11  12
ATOM     12  N   UNL     1       5.724   3.769  18.815  0.00  0.00    +0.000 NA
ATOM     13  H   UNL     1       5.462   3.477  19.755  0.00  0.00    +0.000 HD
ATOM     14  H   UNL     1       6.141   4.695  18.914  0.00  0.00    +0.000 HD
ENDBRANCH  11  12
ENDBRANCH  10  11
ENDBRANCH   9  10
ENDBRANCH   2   9
TORSDOF 7
ENDMDL
MODEL 2
REMARK VINA RESULT:      -4.9      4.505      6.179
REMARK  Name = 
REMARK  8 active torsions:
REMARK  status: ('A' for Active; 'I' for Inactive)
REMARK    1  A    between atoms: C_1  and  C_2
REMARK    2  A    between atoms: C_2  and  C_3
REMARK    3  A    between atoms: C_3  and  C_4
REMARK    4  A    between atoms: C_4  and  N_5
REMARK    5  A    between atoms: C_6  and  C_8
REMARK    6  A    between atoms: C_8  and  C_9
REMARK    7  A    between atoms: C_9  and  C_10
REMARK    8  A    between atoms: C_10  and  N_11
REMARK                            x       y       z     vdW  Elec       q    Type
REMARK                         _______ _______ _______ _____ _____    ______ ____
ROOT
ATOM      1  N   UNL     1       3.909   3.642  17.706  0.00  0.00    +0.000 N 
ATOM      2  C   UNL     1       5.104   3.962  18.305  0.00  0.00    +0.000 C 
ATOM      3  O   UNL     1       5.383   3.662  19.460  0.00  0.00    +0.000 OA
ATOM      4  H   UNL     1       3.725   3.961  16.764  0.00  0.00    +0.000 HD
ENDROOT
BRANCH   1   5
ATOM      5  C   UNL     1       2.864   2.958  18.436  0.00  0.00    +0.000 C 
BRANCH   5   6
ATOM      6  C   UNL     1       1.844   3.919  19.042  0.00  0.00    +0.000 C 
BRANCH   6   8
ATOM      7  C   UNL     1       1.786   2.929  21.360  0.00  0.00    +0.000 C 
ATOM      8  C   UNL     1       0.976   3.259  20.116  0.00  0.00    +0.000 C 
ENDBRANCH   6   8
ENDBRANCH   5   6
ENDBRANCH   1   5
BRANCH   2   9
ATOM      9  C   UNL     1       6.074   4.710  17.415  0.00  0.00    +0.000 C 
BRANCH   9  10
ATOM     10  C   UNL     1       7.504   4.722  17.953  0.00  0.00    +0.000 C 
BRANCH  10  11
ATOM     11  C   UNL     1       7.769   5.917  18.867  0.00  0.00    +0.000 C 
BRANCH  11  12
ATOM     12  N   UNL     1       7.902   5.461  20.247  0.00  0.00    +0.000 NA
ATOM     13  H   UNL     1       6.982   5.256  20.633  0.00  0.00    +0.000 HD
ATOM     14  H   UNL     1       8.282   6.221  20.813  0.00  0.00    +0.000 HD
ENDBRANCH  11  12
ENDBRANCH  10  11
ENDBRANCH   9  10
ENDBRANCH   2   9
TORSDOF 7
ENDMDL
MODEL 3
REMARK VINA RESULT:      -4.7      1.813      2.309
REMARK  Name = 
REMARK  8 active torsions:
REMARK  status: ('A' for Active; 'I' for Inactive)
REMARK    1  A    between atoms: C_1  and  C_2
REMARK    2  A    between atoms: C_2  and  C_3
REMARK    3  A    between atoms: C_3  and  C_4
REMARK    4  A    between atoms: C_4  and  N_5
REMARK    5  A    between atoms: C_6  and  C_8
REMARK    6  A    between atoms: C_8  and  C_9
REMARK    7  A    between atoms: C_9  and  C_10
REMARK    8  A    between atoms: C_10  and  N_11
REMARK                            x       y       z     vdW  Elec       q    Type
REMARK                         _______ _______ _______ _____ _____    ______ ____
ROOT
ATOM      1  N   UNL     1       6.454   4.718  15.757  0.00  0.00    +0.000 N 
ATOM      2  C   UNL     1       6.077   6.012  16.027  0.00  0.00    +0.000 C 
ATOM      3  O   UNL     1       5.221   6.614  15.391  0.00  0.00    +0.000 OA
ATOM      4  H   UNL     1       7.201   4.296  16.292  0.00  0.00    +0.000 HD
ENDROOT
BRANCH   1   5
ATOM      5  C   UNL     1       5.883   3.989  14.645  0.00  0.00    +0.000 C 
BRANCH   5   6
ATOM      6  C   UNL     1       6.675   4.172  13.352  0.00  0.00    +0.000 C 
BRANCH   6   8
ATOM      7  C   UNL     1       4.717   3.442  11.942  0.00  0.00    +0.000 C 
ATOM      8  C   UNL     1       6.197   3.246  12.231  0.00  0.00    +0.000 C 
ENDBRANCH   6   8
ENDBRANCH   5   6
ENDBRANCH   1   5
BRANCH   2   9
ATOM      9  C   UNL     1       6.797   6.644  17.200  0.00  0.00    +0.000 C 
BRANCH   9  10
ATOM     10  C   UNL     1       7.268   5.628  18.240  0.00  0.00    +0.000 C 
BRANCH  10  11
ATOM     11  C   UNL     1       6.151   5.222  19.200  0.00  0.00    +0.000 C 
BRANCH  11  12
ATOM     12  N   UNL     1       5.737   3.851  18.922  0.00  0.00    +0.000 NA
ATOM     13  H   UNL     1       4.720   3.796  18.895  0.00  0.00    +0.000 HD
ATOM     14  H   UNL     1       6.032   3.252  19.694  0.00  0.00    +0.000 HD
ENDBRANCH  11  12
ENDBRANCH  10  11
ENDBRANCH   9  10
ENDBRANCH   2   9
TORSDOF 7
ENDMDL
MODEL 4
REMARK VINA RESULT:      -4.6      4.634      5.819
REMARK  Name = 
REMARK  8 active torsions:
REMARK  status: ('A' for Active; 'I' for Inactive)
REMARK    1  A    between atoms: C_1  and  C_2
REMARK    2  A    between atoms: C_2  and  C_3
REMARK    3  A    between atoms: C_3  and  C_4
REMARK    4  A    between atoms: C_4  and  N_5
REMARK    5  A    between atoms: C_6  and  C_8
REMARK    6  A    between atoms: C_8  and  C_9
REMARK    7  A    between atoms: C_9  and  C_10
REMARK    8  A    between atoms: C_10  and  N_11
REMARK                            x       y       z     vdW  Elec       q    Type
REMARK                         _______ _______ _______ _____ _____    ______ ____
ROOT
ATOM      1  N   UNL     1       4.068   3.041  18.054  0.00  0.00    +0.000 N 
ATOM      2  C   UNL     1       4.866   3.344  19.131  0.00  0.00    +0.000 C 
ATOM      3  O   UNL     1       4.990   2.615  20.107  0.00  0.00    +0.000 OA
ATOM      4  H   UNL     1       3.974   3.710  17.301  0.00  0.00    +0.000 HD
ENDROOT
BRANCH   1   5
ATOM      5  C   UNL     1       3.267   1.836  18.031  0.00  0.00    +0.000 C 
BRANCH   5   6
ATOM      6  C   UNL     1       1.859   2.053  18.581  0.00  0.00    +0.000 C 
BRANCH   6   8
ATOM      7  C   UNL     1       1.124   4.021  19.974  0.00  0.00    +0.000 C 
ATOM      8  C   UNL     1       1.443   3.525  18.572  0.00  0.00    +0.000 C 
ENDBRANCH   6   8
ENDBRANCH   5   6
ENDBRANCH   1   5
BRANCH   2   9
ATOM      9  C   UNL     1       5.607   4.660  19.014  0.00  0.00    +0.000 C 
BRANCH   9  10
ATOM     10  C   UNL     1       5.648   5.206  17.587  0.00  0.00    +0.000 C 
BRANCH  10  11
ATOM     11  C   UNL     1       7.077   5.435  17.096  0.00  0.00    +0.000 C 
BRANCH  11  12
ATOM     12  N   UNL     1       7.872   4.231  17.316  0.00  0.00    +0.000 NA
ATOM     13  H   UNL     1       7.802   3.946  18.292  0.00  0.00    +0.000 HD
ATOM     14  H   UNL     1       8.856   4.449  17.156  0.00  0.00    +0.000 HD
ENDBRANCH  11  12
ENDBRANCH  10  11
ENDBRANCH   9  10
ENDBRANCH   2   9
TORSDOF 7
ENDMDL
MODEL 5
REMARK VINA RESULT:      -4.6      4.462      6.245
REMARK  Name = 
REMARK  8 active torsions:
REMARK  status: ('A' for Active; 'I' for Inactive)
REMARK    1  A    between atoms: C_1  and  C_2
REMARK    2  A    between atoms: C_2  and  C_3
REMARK    3  A    between atoms: C_3  and  C_4
REMARK    4  A    between atoms: C_4  and  N_5
REMARK    5  A    between atoms: C_6  and  C_8
REMARK    6  A    between atoms: C_8  and  C_9
REMARK    7  A    between atoms: C_9  and  C_10
REMARK    8  A    between atoms: C_10  and  N_11
REMARK                            x       y       z     vdW  Elec       q    Type
REMARK                         _______ _______ _______ _____ _____    ______ ____
ROOT
ATOM      1  N   UNL     1       2.524   4.237  18.188  0.00  0.00    +0.000 N 
ATOM      2  C   UNL     1       3.629   4.619  17.466  0.00  0.00    +0.000 C 
ATOM      3  O   UNL     1       4.168   3.907  16.626  0.00  0.00    +0.000 OA
ATOM      4  H   UNL     1       2.157   4.856  18.899  0.00  0.00    +0.000 HD
ENDROOT
BRANCH   1   5
ATOM      5  C   UNL     1       1.946   2.920  18.031  0.00  0.00    +0.000 C 
BRANCH   5   6
ATOM      6  C   UNL     1       0.878   2.617  19.080  0.00  0.00    +0.000 C 
BRANCH   6   8
ATOM      7  C   UNL     1       1.482   2.762  21.523  0.00  0.00    +0.000 C 
ATOM      8  C   UNL     1       0.982   3.526  20.307  0.00  0.00    +0.000 C 
ENDBRANCH   6   8
ENDBRANCH   5   6
ENDBRANCH   1   5
BRANCH   2   9
ATOM      9  C   UNL     1       4.132   6.013  17.777  0.00  0.00    +0.000 C 
BRANCH   9  10
ATOM     10  C   UNL     1       5.643   6.164  17.600  0.00  0.00    +0.000 C 
BRANCH  10  11
ATOM     11  C   UNL     1       6.428   5.481  18.719  0.00  0.00    +0.000 C 
BRANCH  11  12
ATOM     12  N   UNL     1       7.127   4.315  18.188  0.00  0.00    +0.000 NA
ATOM     13  H   UNL     1       6.854   4.162  17.218  0.00  0.00    +0.000 HD
ATOM     14  H   UNL     1       6.825   3.485  18.700  0.00  0.00    +0.000 HD
ENDBRANCH  11  12
ENDBRANCH  10  11
ENDBRANCH   9  10
ENDBRANCH   2   9
TORSDOF 7
ENDMDL
MODEL 6
REMARK VINA RESULT:      -4.6      1.967      2.857
REMARK  Name = 
REMARK  8 active torsions:
REMARK  status: ('A' for Active; 'I' for Inactive)
REMARK    1  A    between atoms: C_1  and  C_2
REMARK    2  A    between atoms: C_2  and  C_3
REMARK    3  A    between atoms: C_3  and  C_4
REMARK    4  A    between atoms: C_4  and  N_5
REMARK    5  A    between atoms: C_6  and  C_8
REMARK    6  A    between atoms: C_8  and  C_9
REMARK    7  A    between atoms: C_9  and  C_10
REMARK    8  A    between atoms: C_10  and  N_11
REMARK                            x       y       z     vdW  Elec       q    Type
REMARK                         _______ _______ _______ _____ _____    ______ ____
ROOT
ATOM      1  N   UNL     1       5.724   4.518  16.786  0.00  0.00    +0.000 N 
ATOM      2  C   UNL     1       6.390   4.654  17.979  0.00  0.00    +0.000 C 
ATOM      3  O   UNL     1       7.582   4.406  18.121  0.00  0.00    +0.000 OA
ATOM      4  H   UNL     1       4.729   4.696  16.749  0.00  0.00    +0.000 HD
ENDROOT
BRANCH   1   5
ATOM      5  C   UNL     1       6.394   4.013  15.607  0.00  0.00    +0.000 C 
BRANCH   5   6
ATOM      6  C   UNL     1       5.599   4.258  14.326  0.00  0.00    +0.000 C 
BRANCH   6   8
ATOM      7  C   UNL     1       5.368   3.218  12.041  0.00  0.00    +0.000 C 
ATOM      8  C   UNL     1       6.335   3.777  13.074  0.00  0.00    +0.000 C 
ENDBRANCH   6   8
ENDBRANCH   5   6
ENDBRANCH   1   5
BRANCH   2   9
ATOM      9  C   UNL     1       5.535   5.158  19.123  0.00  0.00    +0.000 C 
BRANCH   9  10
ATOM     10  C   UNL     1       4.212   4.406  19.266  0.00  0.00    +0.000 C 
BRANCH  10  11
ATOM     11  C   UNL     1       4.420   2.923  19.573  0.00  0.00    +0.000 C 
BRANCH  11  12
ATOM     12  N   UNL     1       4.059   2.125  18.405  0.00  0.00    +0.000 NA
ATOM     13  H   UNL     1       4.651   1.297  18.357  0.00  0.00    +0.000 HD
ATOM     14  H   UNL     1       4.256   2.663  17.561  0.00  0.00    +0.000 HD
ENDBRANCH  11  12
ENDBRANCH  10  11
ENDBRANCH   9  10
ENDBRANCH   2   9
TORSDOF 7
ENDMDL
MODEL 7
REMARK VINA RESULT:      -4.6      1.669      2.314
REMARK  Name = 
REMARK  8 active torsions:
REMARK  status: ('A' for Active; 'I' for Inactive)
REMARK    1  A    between atoms: C_1  and  C_2
REMARK    2  A    between atoms: C_2  and  C_3
REMARK    3  A    between atoms: C_3  and  C_4
REMARK    4  A    between atoms: C_4  and  N_5
REMARK    5  A    between atoms: C_6  and  C_8
REMARK    6  A    between atoms: C_8  and  C_9
REMARK    7  A    between atoms: C_9  and  C_10
REMARK    8  A    between atoms: C_10  and  N_11
REMARK                            x       y       z     vdW  Elec       q    Type
REMARK                         _______ _______ _______ _____ _____    ______ ____
ROOT
ATOM      1  N   UNL     1       6.075   4.779  16.190  0.00  0.00    +0.000 N 
ATOM      2  C   UNL     1       5.468   5.993  16.401  0.00  0.00    +0.000 C 
ATOM      3  O   UNL     1       5.364   6.857  15.538  0.00  0.00    +0.000 OA
ATOM      4  H   UNL     1       6.167   4.128  16.959  0.00  0.00    +0.000 HD
ENDROOT
BRANCH   1   5
ATOM      5  C   UNL     1       6.690   4.459  14.919  0.00  0.00    +0.000 C 
BRANCH   5   6
ATOM      6  C   UNL     1       5.677   3.992  13.876  0.00  0.00    +0.000 C 
BRANCH   6   8
ATOM      7  C   UNL     1       5.329   2.834  11.664  0.00  0.00    +0.000 C 
ATOM      8  C   UNL     1       6.341   3.485  12.594  0.00  0.00    +0.000 C 
ENDBRANCH   6   8
ENDBRANCH   5   6
ENDBRANCH   1   5
BRANCH   2   9
ATOM      9  C   UNL     1       4.910   6.183  17.796  0.00  0.00    +0.000 C 
BRANCH   9  10
ATOM     10  C   UNL     1       3.814   5.179  18.151  0.00  0.00    +0.000 C 
BRANCH  10  11
ATOM     11  C   UNL     1       4.194   4.306  19.346  0.00  0.00    +0.000 C 
BRANCH  11  12
ATOM     12  N   UNL     1       5.458   3.627  19.077  0.00  0.00    +0.000 NA
ATOM     13  H   UNL     1       6.181   3.989  19.697  0.00  0.00    +0.000 HD
ATOM     14  H   UNL     1       5.760   3.852  18.129  0.00  0.00    +0.000 HD
ENDBRANCH  11  12
ENDBRANCH  10  11
ENDBRANCH   9  10
ENDBRANCH   2   9
TORSDOF 7
ENDMDL
MODEL 8
REMARK VINA RESULT:      -4.5      3.364      5.492
REMARK  Name = 
REMARK  8 active torsions:
REMARK  status: ('A' for Active; 'I' for Inactive)
REMARK    1  A    between atoms: C_1  and  C_2
REMARK    2  A    between atoms: C_2  and  C_3
REMARK    3  A    between atoms: C_3  and  C_4
REMARK    4  A    between atoms: C_4  and  N_5
REMARK    5  A    between atoms: C_6  and  C_8
REMARK    6  A    between atoms: C_8  and  C_9
REMARK    7  A    between atoms: C_9  and  C_10
REMARK    8  A    between atoms: C_10  and  N_11
REMARK                            x       y       z     vdW  Elec       q    Type
REMARK                         _______ _______ _______ _____ _____    ______ ____
ROOT
ATOM      1  N   UNL     1       4.542   3.086  17.636  0.00  0.00    +0.000 N 
ATOM      2  C   UNL     1       4.399   4.269  16.951  0.00  0.00    +0.000 C 
ATOM      3  O   UNL     1       3.688   5.190  17.334  0.00  0.00    +0.000 OA
ATOM      4  H   UNL     1       5.110   2.348  17.240  0.00  0.00    +0.000 HD
ENDROOT
BRANCH   1   5
ATOM      5  C   UNL     1       3.804   2.832  18.854  0.00  0.00    +0.000 C 
BRANCH   5   6
ATOM      6  C   UNL     1       2.583   1.942  18.628  0.00  0.00    +0.000 C 
BRANCH   6   8
ATOM      7  C   UNL     1       1.394   3.899  19.682  0.00  0.00    +0.000 C 
ATOM      8  C   UNL     1       1.363   2.400  19.430  0.00  0.00    +0.000 C 
ENDBRANCH   6   8
ENDBRANCH   5   6
ENDBRANCH   1   5
BRANCH   2   9
ATOM      9  C   UNL     1       5.212   4.359  15.676  0.00  0.00    +0.000 C 
BRANCH   9  10
ATOM     10  C   UNL     1       6.717   4.231  15.908  0.00  0.00    +0.000 C 
BRANCH  10  11
ATOM     11  C   UNL     1       7.213   5.160  17.016  0.00  0.00    +0.000 C 
BRANCH  11  12
ATOM     12  N   UNL     1       7.697   4.368  18.142  0.00  0.00    +0.000 NA
ATOM     13  H   UNL     1       7.739   3.385  17.879  0.00  0.00    +0.000 HD
ATOM     14  H   UNL     1       7.020   4.427  18.904  0.00  0.00    +0.000 HD
ENDBRANCH  11  12
ENDBRANCH  10  11
ENDBRANCH   9  10
ENDBRANCH   2   9
TORSDOF 7
ENDMDL
MODEL 9
REMARK VINA RESULT:      -4.5      3.775      5.294
REMARK  Name = 
REMARK  8 active torsions:
REMARK  status: ('A' for Active; 'I' for Inactive)
REMARK    1  A    between atoms: C_1  and  C_2
REMARK    2  A    between atoms: C_2  and  C_3
REMARK    3  A    between atoms: C_3  and  C_4
REMARK    4  A    between atoms: C_4  and  N_5
REMARK    5  A    between atoms: C_6  and  C_8
REMARK    6  A    between atoms: C_8  and  C_9
REMARK    7  A    between atoms: C_9  and  C_10
REMARK    8  A    between atoms: C_10  and  N_11
REMARK                            x       y       z     vdW  Elec       q    Type
REMARK                         _______ _______ _______ _____ _____    ______ ____
ROOT
ATOM      1  N   UNL     1       5.200   3.331  19.095  0.00  0.00    +0.000 N 
ATOM      2  C   UNL     1       5.355   4.696  19.108  0.00  0.00    +0.000 C 
ATOM      3  O   UNL     1       4.503   5.470  19.528  0.00  0.00    +0.000 OA
ATOM      4  H   UNL     1       5.924   2.752  18.690  0.00  0.00    +0.000 HD
ENDROOT
BRANCH   1   5
ATOM      5  C   UNL     1       3.970   2.712  19.541  0.00  0.00    +0.000 C 
BRANCH   5   6
ATOM      6  C   UNL     1       3.218   2.013  18.411  0.00  0.00    +0.000 C 
BRANCH   6   8
ATOM      7  C   UNL     1       1.641   3.938  18.005  0.00  0.00    +0.000 C 
ATOM      8  C   UNL     1       2.658   2.995  17.379  0.00  0.00    +0.000 C 
ENDBRANCH   6   8
ENDBRANCH   5   6
ENDBRANCH   1   5
BRANCH   2   9
ATOM      9  C   UNL     1       6.685   5.183  18.571  0.00  0.00    +0.000 C 
BRANCH   9  10
ATOM     10  C   UNL     1       6.588   5.781  17.168  0.00  0.00    +0.000 C 
BRANCH  10  11
ATOM     11  C   UNL     1       5.623   5.004  16.273  0.00  0.00    +0.000 C 
BRANCH  11  12
ATOM     12  N   UNL     1       6.173   3.683  15.987  0.00  0.00    +0.000 NA
ATOM     13  H   UNL     1       7.177   3.754  15.827  0.00  0.00    +0.000 HD
ATOM     14  H   UNL     1       5.773   3.338  15.114  0.00  0.00    +0.000 HD
ENDBRANCH  11  12
ENDBRANCH  10  11
ENDBRANCH   9  10
ENDBRANCH   2   9
TORSDOF 7
ENDMDL
