MODEL 1
REMARK VINA RESULT:      -6.5      0.000      0.000
REMARK  Name = 
REMARK  5 active torsions:
REMARK  status: ('A' for Active; 'I' for Inactive)
REMARK    1  A    between atoms: S_1  and  C_2
REMARK    2  A    between atoms: N_6  and  C_7
REMARK    3  A    between atoms: C_7  and  C_8
REMARK    4  A    between atoms: C_8  and  C_9
REMARK    5  A    between atoms: C_9  and  C_10
REMARK                            x       y       z     vdW  Elec       q    Type
REMARK                         _______ _______ _______ _____ _____    ______ ____
ROOT
ATOM      1  C   UNL     1       1.979   4.017  17.612  0.00  0.00    +0.000 C 
ENDROOT
BRANCH   1   2
ATOM      2  C   UNL     1       2.347   2.681  18.259  0.00  0.00    +0.000 C 
BRANCH   2   7
ATOM      3  C   UNL     1       3.114   2.489  20.683  0.00  0.00    +0.000 A 
ATOM      4  N   UNL     1       2.605   2.621  21.886  0.00  0.00    +0.000 NA
ATOM      5  C   UNL     1       1.291   2.949  21.684  0.00  0.00    +0.000 A 
ATOM      6  C   UNL     1       1.005   3.014  20.343  0.00  0.00    +0.000 A 
ATOM      7  N   UNL     1       2.185   2.720  19.705  0.00  0.00    +0.000 N 
BRANCH   3   8
ATOM      8  S   UNL     1       4.766   2.085  20.390  0.00  0.00    +0.000 S 
ATOM      9  H   UNL     1       5.247   3.316  20.625  0.00  0.00    +0.000 HD
ENDBRANCH   3   8
ENDBRANCH   2   7
ENDBRANCH   1   2
BRANCH   1  10
ATOM     10  C   UNL     1       2.823   5.186  18.130  0.00  0.00    +0.000 C 
BRANCH  10  11
ATOM     11  C   UNL     1       4.260   5.056  17.678  0.00  0.00    +0.000 A 
ATOM     12  C   UNL     1       4.560   4.566  16.399  0.00  0.00    +0.000 A 
ATOM     13  C   UNL     1       5.887   4.397  15.997  0.00  0.00    +0.000 A 
ATOM     14 CL   UNL     1       6.229   3.784  14.425  0.00  0.00    +0.000 Cl
ATOM     15  C   UNL     1       6.936   4.710  16.857  0.00  0.00    +0.000 A 
ATOM     16  C   UNL     1       6.644   5.196  18.129  0.00  0.00    +0.000 A 
ATOM     17 CL   UNL     1       7.933   5.575  19.206  0.00  0.00    +0.000 Cl
ATOM     18  C   UNL     1       5.321   5.369  18.543  0.00  0.00    +0.000 A 
ENDBRANCH  10  11
ENDBRANCH   1  10
TORSDOF 5
ENDMDL
MODEL 2
REMARK VINA RESULT:      -6.5      0.187      2.190
REMARK  Name = 
REMARK  5 active torsions:
REMARK  status: ('A' for Active; 'I' for Inactive)
REMARK    1  A    between atoms: S_1  and  C_2
REMARK    2  A    between atoms: N_6  and  C_7
REMARK    3  A    between atoms: C_7  and  C_8
REMARK    4  A    between atoms: C_8  and  C_9
REMARK    5  A    between atoms: C_9  and  C_10
REMARK                            x       y       z     vdW  Elec       q    Type
REMARK                         _______ _______ _______ _____ _____    ______ ____
ROOT
ATOM      1  C   UNL     1       1.968   4.345  17.693  0.00  0.00    +0.000 C 
ENDROOT
BRANCH   1   2
ATOM      2  C   UNL     1       2.203   2.927  18.214  0.00  0.00    +0.000 C 
BRANCH   2   7
ATOM      3  C   UNL     1       3.058   2.527  20.583  0.00  0.00    +0.000 A 
ATOM      4  N   UNL     1       2.601   2.584  21.813  0.00  0.00    +0.000 NA
ATOM      5  C   UNL     1       1.292   2.969  21.691  0.00  0.00    +0.000 A 
ATOM      6  C   UNL     1       0.956   3.144  20.371  0.00  0.00    +0.000 A 
ATOM      7  N   UNL     1       2.099   2.861  19.664  0.00  0.00    +0.000 N 
BRANCH   3   8
ATOM      8  S   UNL     1       4.681   2.093  20.192  0.00  0.00    +0.000 S 
ATOM      9  H   UNL     1       5.044   3.311  19.761  0.00  0.00    +0.000 HD
ENDBRANCH   3   8
ENDBRANCH   2   7
ENDBRANCH   1   2
BRANCH   1  10
ATOM     10  C   UNL     1       2.941   5.369  18.284  0.00  0.00    +0.000 C 
BRANCH  10  11
ATOM     11  C   UNL     1       4.356   5.100  17.821  0.00  0.00    +0.000 A 
ATOM     12  C   UNL     1       5.446   5.455  18.630  0.00  0.00    +0.000 A 
ATOM     13  C   UNL     1       6.754   5.255  18.183  0.00  0.00    +0.000 A 
ATOM     14 CL   UNL     1       8.075   5.708  19.189  0.00  0.00    +0.000 Cl
ATOM     15  C   UNL     1       7.002   4.701  16.930  0.00  0.00    +0.000 A 
ATOM     16  C   UNL     1       5.924   4.348  16.123  0.00  0.00    +0.000 A 
ATOM     17 CL   UNL     1       6.217   3.674  14.567  0.00  0.00    +0.000 Cl
ATOM     18  C   UNL     1       4.610   4.543  16.558  0.00  0.00    +0.000 A 
ENDBRANCH  10  11
ENDBRANCH   1  10
TORSDOF 5
ENDMDL
MODEL 3
REMARK VINA RESULT:      -6.2      1.018      1.274
REMARK  Name = 
REMARK  5 active torsions:
REMARK  status: ('A' for Active; 'I' for Inactive)
REMARK    1  A    between atoms: S_1  and  C_2
REMARK    2  A    between atoms: N_6  and  C_7
REMARK    3  A    between atoms: C_7  and  C_8
REMARK    4  A    between atoms: C_8  and  C_9
REMARK    5  A    between atoms: C_9  and  C_10
REMARK                            x       y       z     vdW  Elec       q    Type
REMARK                         _______ _______ _______ _____ _____    ______ ____
ROOT
ATOM      1  C   UNL     1       2.713   6.322  18.660  0.00  0.00    +0.000 C 
ENDROOT
BRANCH   1   2
ATOM      2  C   UNL     1       2.148   4.944  18.313  0.00  0.00    +0.000 C 
BRANCH   2   7
ATOM      3  C   UNL     1       2.972   3.202  19.982  0.00  0.00    +0.000 A 
ATOM      4  N   UNL     1       2.542   2.606  21.070  0.00  0.00    +0.000 NA
ATOM      5  C   UNL     1       1.293   3.123  21.292  0.00  0.00    +0.000 A 
ATOM      6  C   UNL     1       0.967   4.041  20.324  0.00  0.00    +0.000 A 
ATOM      7  N   UNL     1       2.054   4.089  19.487  0.00  0.00    +0.000 N 
BRANCH   3   8
ATOM      8  S   UNL     1       4.520   2.899  19.282  0.00  0.00    +0.000 S 
ATOM      9  H   UNL     1       4.131   3.098  18.013  0.00  0.00    +0.000 HD
ENDBRANCH   3   8
ENDBRANCH   2   7
ENDBRANCH   1   2
BRANCH   1  10
ATOM     10  C   UNL     1       3.494   6.956  17.506  0.00  0.00    +0.000 C 
BRANCH  10  11
ATOM     11  C   UNL     1       4.799   6.228  17.273  0.00  0.00    +0.000 A 
ATOM     12  C   UNL     1       4.995   5.483  16.101  0.00  0.00    +0.000 A 
ATOM     13  C   UNL     1       6.179   4.768  15.906  0.00  0.00    +0.000 A 
ATOM     14 CL   UNL     1       6.392   3.853  14.463  0.00  0.00    +0.000 Cl
ATOM     15  C   UNL     1       7.185   4.779  16.868  0.00  0.00    +0.000 A 
ATOM     16  C   UNL     1       6.995   5.516  18.034  0.00  0.00    +0.000 A 
ATOM     17 CL   UNL     1       8.226   5.528  19.237  0.00  0.00    +0.000 Cl
ATOM     18  C   UNL     1       5.815   6.235  18.242  0.00  0.00    +0.000 A 
ENDBRANCH  10  11
ENDBRANCH   1  10
TORSDOF 5
ENDMDL
MODEL 4
REMARK VINA RESULT:      -6.2      1.779      2.875
REMARK  Name = 
REMARK  5 active torsions:
REMARK  status: ('A' for Active; 'I' for Inactive)
REMARK    1  A    between atoms: S_1  and  C_2
REMARK    2  A    between atoms: N_6  and  C_7
REMARK    3  A    between atoms: C_7  and  C_8
REMARK    4  A    between atoms: C_8  and  C_9
REMARK    5  A    between atoms: C_9  and  C_10
REMARK                            x       y       z     vdW  Elec       q    Type
REMARK                         _______ _______ _______ _____ _____    ______ ____
ROOT
ATOM      1  C   UNL     1       2.727   3.239  17.151  0.00  0.00    +0.000 C 
ENDROOT
BRANCH   1   2
ATOM      2  C   UNL     1       1.565   3.965  17.832  0.00  0.00    +0.000 C 
BRANCH   2   7
ATOM      3  C   UNL     1       2.029   4.816  20.190  0.00  0.00    +0.000 A 
ATOM      4  N   UNL     1       1.968   4.370  21.423  0.00  0.00    +0.000 NA
ATOM      5  C   UNL     1       1.527   3.078  21.314  0.00  0.00    +0.000 A 
ATOM      6  C   UNL     1       1.321   2.742  19.999  0.00  0.00    +0.000 A 
ATOM      7  N   UNL     1       1.644   3.867  19.281  0.00  0.00    +0.000 N 
BRANCH   3   8
ATOM      8  S   UNL     1       2.528   6.418  19.782  0.00  0.00    +0.000 S 
ATOM      9  H   UNL     1       1.472   6.689  19.000  0.00  0.00    +0.000 HD
ENDBRANCH   3   8
ENDBRANCH   2   7
ENDBRANCH   1   2
BRANCH   1  10
ATOM     10  C   UNL     1       4.047   3.377  17.914  0.00  0.00    +0.000 C 
BRANCH  10  11
ATOM     11  C   UNL     1       5.086   4.086  17.074  0.00  0.00    +0.000 A 
ATOM     12  C   UNL     1       5.809   5.165  17.603  0.00  0.00    +0.000 A 
ATOM     13  C   UNL     1       6.732   5.854  16.812  0.00  0.00    +0.000 A 
ATOM     14 CL   UNL     1       7.601   7.181  17.481  0.00  0.00    +0.000 Cl
ATOM     15  C   UNL     1       6.951   5.486  15.488  0.00  0.00    +0.000 A 
ATOM     16  C   UNL     1       6.235   4.416  14.958  0.00  0.00    +0.000 A 
ATOM     17 CL   UNL     1       6.488   3.959  13.318  0.00  0.00    +0.000 Cl
ATOM     18  C   UNL     1       5.308   3.718  15.737  0.00  0.00    +0.000 A 
ENDBRANCH  10  11
ENDBRANCH   1  10
TORSDOF 5
ENDMDL
MODEL 5
REMARK VINA RESULT:      -6.1      1.815      1.981
REMARK  Name = 
REMARK  5 active torsions:
REMARK  status: ('A' for Active; 'I' for Inactive)
REMARK    1  A    between atoms: S_1  and  C_2
REMARK    2  A    between atoms: N_6  and  C_7
REMARK    3  A    between atoms: C_7  and  C_8
REMARK    4  A    between atoms: C_8  and  C_9
REMARK    5  A    between atoms: C_9  and  C_10
REMARK                            x       y       z     vdW  Elec       q    Type
REMARK                         _______ _______ _______ _____ _____    ______ ____
ROOT
ATOM      1  C   UNL     1       2.709   3.053  17.142  0.00  0.00    +0.000 C 
ENDROOT
BRANCH   1   2
ATOM      2  C   UNL     1       1.635   3.942  17.771  0.00  0.00    +0.000 C 
BRANCH   2   7
ATOM      3  C   UNL     1       2.042   4.851  20.118  0.00  0.00    +0.000 A 
ATOM      4  N   UNL     1       1.938   4.440  21.360  0.00  0.00    +0.000 NA
ATOM      5  C   UNL     1       1.483   3.151  21.274  0.00  0.00    +0.000 A 
ATOM      6  C   UNL     1       1.311   2.782  19.963  0.00  0.00    +0.000 A 
ATOM      7  N   UNL     1       1.670   3.883  19.224  0.00  0.00    +0.000 N 
BRANCH   3   8
ATOM      8  S   UNL     1       2.574   6.434  19.682  0.00  0.00    +0.000 S 
ATOM      9  H   UNL     1       2.675   6.182  18.368  0.00  0.00    +0.000 HD
ENDBRANCH   3   8
ENDBRANCH   2   7
ENDBRANCH   1   2
BRANCH   1  10
ATOM     10  C   UNL     1       4.074   3.192  17.821  0.00  0.00    +0.000 C 
BRANCH  10  11
ATOM     11  C   UNL     1       5.024   3.999  16.965  0.00  0.00    +0.000 A 
ATOM     12  C   UNL     1       5.262   3.633  15.632  0.00  0.00    +0.000 A 
ATOM     13  C   UNL     1       6.178   4.346  14.854  0.00  0.00    +0.000 A 
ATOM     14 CL   UNL     1       6.459   3.871  13.224  0.00  0.00    +0.000 Cl
ATOM     15  C   UNL     1       6.870   5.430  15.385  0.00  0.00    +0.000 A 
ATOM     16  C   UNL     1       6.638   5.798  16.708  0.00  0.00    +0.000 A 
ATOM     17 CL   UNL     1       7.498   7.129  17.379  0.00  0.00    +0.000 Cl
ATOM     18  C   UNL     1       5.726   5.092  17.497  0.00  0.00    +0.000 A 
ENDBRANCH  10  11
ENDBRANCH   1  10
TORSDOF 5
ENDMDL
MODEL 6
REMARK VINA RESULT:      -6.0      3.826      6.037
REMARK  Name = 
REMARK  5 active torsions:
REMARK  status: ('A' for Active; 'I' for Inactive)
REMARK    1  A    between atoms: S_1  and  C_2
REMARK    2  A    between atoms: N_6  and  C_7
REMARK    3  A    between atoms: C_7  and  C_8
REMARK    4  A    between atoms: C_8  and  C_9
REMARK    5  A    between atoms: C_9  and  C_10
REMARK                            x       y       z     vdW  Elec       q    Type
REMARK                         _______ _______ _______ _____ _____    ______ ____
ROOT
ATOM      1  C   UNL     1       4.006   3.273  16.763  0.00  0.00    +0.000 C 
ENDROOT
BRANCH   1   2
ATOM      2  C   UNL     1       4.948   4.397  17.197  0.00  0.00    +0.000 C 
BRANCH   2   7
ATOM      3  C   UNL     1       6.938   5.629  16.187  0.00  0.00    +0.000 A 
ATOM      4  N   UNL     1       7.608   5.650  15.058  0.00  0.00    +0.000 NA
ATOM      5  C   UNL     1       6.992   4.724  14.259  0.00  0.00    +0.000 A 
ATOM      6  C   UNL     1       5.937   4.139  14.915  0.00  0.00    +0.000 A 
ATOM      7  N   UNL     1       5.911   4.725  16.156  0.00  0.00    +0.000 N 
BRANCH   3   8
ATOM      8  S   UNL     1       7.329   6.623  17.542  0.00  0.00    +0.000 S 
ATOM      9  H   UNL     1       6.121   6.538  18.121  0.00  0.00    +0.000 HD
ENDBRANCH   3   8
ENDBRANCH   2   7
ENDBRANCH   1   2
BRANCH   1  10
ATOM     10  C   UNL     1       2.530   3.600  17.009  0.00  0.00    +0.000 C 
BRANCH  10  11
ATOM     11  C   UNL     1       2.317   4.113  18.415  0.00  0.00    +0.000 A 
ATOM     12  C   UNL     1       2.094   3.217  19.471  0.00  0.00    +0.000 A 
ATOM     13  C   UNL     1       1.846   3.690  20.762  0.00  0.00    +0.000 A 
ATOM     14 CL   UNL     1       1.566   2.569  22.038  0.00  0.00    +0.000 Cl
ATOM     15  C   UNL     1       1.815   5.056  21.026  0.00  0.00    +0.000 A 
ATOM     16  C   UNL     1       2.034   5.950  19.981  0.00  0.00    +0.000 A 
ATOM     17 CL   UNL     1       1.985   7.642  20.292  0.00  0.00    +0.000 Cl
ATOM     18  C   UNL     1       2.283   5.491  18.685  0.00  0.00    +0.000 A 
ENDBRANCH  10  11
ENDBRANCH   1  10
TORSDOF 5
ENDMDL
MODEL 7
REMARK VINA RESULT:      -5.9      1.286      1.360
REMARK  Name = 
REMARK  5 active torsions:
REMARK  status: ('A' for Active; 'I' for Inactive)
REMARK    1  A    between atoms: S_1  and  C_2
REMARK    2  A    between atoms: N_6  and  C_7
REMARK    3  A    between atoms: C_7  and  C_8
REMARK    4  A    between atoms: C_8  and  C_9
REMARK    5  A    between atoms: C_9  and  C_10
REMARK                            x       y       z     vdW  Elec       q    Type
REMARK                         _______ _______ _______ _____ _____    ______ ____
ROOT
ATOM      1  C   UNL     1       2.105   5.427  17.827  0.00  0.00    +0.000 C 
ENDROOT
BRANCH   1   2
ATOM      2  C   UNL     1       1.414   4.067  17.942  0.00  0.00    +0.000 C 
BRANCH   2   7
ATOM      3  C   UNL     1       2.447   2.467  19.636  0.00  0.00    +0.000 A 
ATOM      4  N   UNL     1       2.352   2.200  20.918  0.00  0.00    +0.000 NA
ATOM      5  C   UNL     1       1.406   3.068  21.395  0.00  0.00    +0.000 A 
ATOM      6  C   UNL     1       0.926   3.867  20.387  0.00  0.00    +0.000 A 
ATOM      7  N   UNL     1       1.604   3.476  19.258  0.00  0.00    +0.000 N 
BRANCH   3   8
ATOM      8  S   UNL     1       3.525   1.640  18.571  0.00  0.00    +0.000 S 
ATOM      9  H   UNL     1       4.460   1.387  19.500  0.00  0.00    +0.000 HD
ENDBRANCH   3   8
ENDBRANCH   2   7
ENDBRANCH   1   2
BRANCH   1  10
ATOM     10  C   UNL     1       3.394   5.515  18.649  0.00  0.00    +0.000 C 
BRANCH  10  11
ATOM     11  C   UNL     1       4.601   5.650  17.747  0.00  0.00    +0.000 A 
ATOM     12  C   UNL     1       4.789   4.763  16.677  0.00  0.00    +0.000 A 
ATOM     13  C   UNL     1       5.928   4.852  15.874  0.00  0.00    +0.000 A 
ATOM     14 CL   UNL     1       6.141   3.746  14.572  0.00  0.00    +0.000 Cl
ATOM     15  C   UNL     1       6.898   5.820  16.120  0.00  0.00    +0.000 A 
ATOM     16  C   UNL     1       6.717   6.703  17.182  0.00  0.00    +0.000 A 
ATOM     17 CL   UNL     1       7.915   7.896  17.503  0.00  0.00    +0.000 Cl
ATOM     18  C   UNL     1       5.582   6.623  17.993  0.00  0.00    +0.000 A 
ENDBRANCH  10  11
ENDBRANCH   1  10
TORSDOF 5
ENDMDL
MODEL 8
REMARK VINA RESULT:      -5.9      1.689      2.102
REMARK  Name = 
REMARK  5 active torsions:
REMARK  status: ('A' for Active; 'I' for Inactive)
REMARK    1  A    between atoms: S_1  and  C_2
REMARK    2  A    between atoms: N_6  and  C_7
REMARK    3  A    between atoms: C_7  and  C_8
REMARK    4  A    between atoms: C_8  and  C_9
REMARK    5  A    between atoms: C_9  and  C_10
REMARK                            x       y       z     vdW  Elec       q    Type
REMARK                         _______ _______ _______ _____ _____    ______ ____
ROOT
ATOM      1  C   UNL     1       2.684   3.243  17.124  0.00  0.00    +0.000 C 
ENDROOT
BRANCH   1   2
ATOM      2  C   UNL     1       1.521   3.400  18.104  0.00  0.00    +0.000 C 
BRANCH   2   7
ATOM      3  C   UNL     1       1.787   4.349  20.456  0.00  0.00    +0.000 A 
ATOM      4  N   UNL     1       2.073   5.498  21.023  0.00  0.00    +0.000 NA
ATOM      5  C   UNL     1       2.260   6.372  19.985  0.00  0.00    +0.000 A 
ATOM      6  C   UNL     1       2.083   5.741  18.779  0.00  0.00    +0.000 A 
ATOM      7  N   UNL     1       1.782   4.438  19.090  0.00  0.00    +0.000 N 
BRANCH   3   8
ATOM      8  S   UNL     1       1.469   2.903  21.344  0.00  0.00    +0.000 S 
ATOM      9  H   UNL     1       2.551   2.993  22.133  0.00  0.00    +0.000 HD
ENDBRANCH   3   8
ENDBRANCH   2   7
ENDBRANCH   1   2
BRANCH   1  10
ATOM     10  C   UNL     1       4.006   2.894  17.814  0.00  0.00    +0.000 C 
BRANCH  10  11
ATOM     11  C   UNL     1       5.119   3.803  17.344  0.00  0.00    +0.000 A 
ATOM     12  C   UNL     1       5.438   3.886  15.980  0.00  0.00    +0.000 A 
ATOM     13  C   UNL     1       6.498   4.685  15.548  0.00  0.00    +0.000 A 
ATOM     14 CL   UNL     1       6.876   4.763  13.870  0.00  0.00    +0.000 Cl
ATOM     15  C   UNL     1       7.258   5.414  16.458  0.00  0.00    +0.000 A 
ATOM     16  C   UNL     1       6.946   5.335  17.813  0.00  0.00    +0.000 A 
ATOM     17 CL   UNL     1       7.886   6.221  18.950  0.00  0.00    +0.000 Cl
ATOM     18  C   UNL     1       5.888   4.538  18.259  0.00  0.00    +0.000 A 
ENDBRANCH  10  11
ENDBRANCH   1  10
TORSDOF 5
ENDMDL
MODEL 9
REMARK VINA RESULT:      -5.9      3.897      6.060
REMARK  Name = 
REMARK  5 active torsions:
REMARK  status: ('A' for Active; 'I' for Inactive)
REMARK    1  A    between atoms: S_1  and  C_2
REMARK    2  A    between atoms: N_6  and  C_7
REMARK    3  A    between atoms: C_7  and  C_8
REMARK    4  A    between atoms: C_8  and  C_9
REMARK    5  A    between atoms: C_9  and  C_10
REMARK                            x       y       z     vdW  Elec       q    Type
REMARK                         _______ _______ _______ _____ _____    ______ ____
ROOT
ATOM      1  C   UNL     1       3.681   3.830  16.813  0.00  0.00    +0.000 C 
ENDROOT
BRANCH   1   2
ATOM      2  C   UNL     1       5.071   3.196  16.749  0.00  0.00    +0.000 C 
BRANCH   2   7
ATOM      3  C   UNL     1       7.029   4.756  16.269  0.00  0.00    +0.000 A 
ATOM      4  N   UNL     1       7.626   5.288  15.228  0.00  0.00    +0.000 NA
ATOM      5  C   UNL     1       6.932   4.825  14.142  0.00  0.00    +0.000 A 
ATOM      6  C   UNL     1       5.904   4.004  14.534  0.00  0.00    +0.000 A 
ATOM      7  N   UNL     1       5.975   3.962  15.905  0.00  0.00    +0.000 N 
BRANCH   3   8
ATOM      8  S   UNL     1       7.536   5.027  17.897  0.00  0.00    +0.000 S 
ATOM      9  H   UNL     1       8.741   5.525  17.578  0.00  0.00    +0.000 HD
ENDBRANCH   3   8
ENDBRANCH   2   7
ENDBRANCH   1   2
BRANCH   1  10
ATOM     10  C   UNL     1       3.704   5.271  17.332  0.00  0.00    +0.000 C 
BRANCH  10  11
ATOM     11  C   UNL     1       2.883   5.403  18.595  0.00  0.00    +0.000 A 
ATOM     12  C   UNL     1       2.564   6.670  19.104  0.00  0.00    +0.000 A 
ATOM     13  C   UNL     1       1.850   6.795  20.299  0.00  0.00    +0.000 A 
ATOM     14 CL   UNL     1       1.479   8.362  20.908  0.00  0.00    +0.000 Cl
ATOM     15  C   UNL     1       1.442   5.668  21.005  0.00  0.00    +0.000 A 
ATOM     16  C   UNL     1       1.756   4.407  20.505  0.00  0.00    +0.000 A 
ATOM     17 CL   UNL     1       1.268   3.005  21.377  0.00  0.00    +0.000 Cl
ATOM     18  C   UNL     1       2.471   4.268  19.312  0.00  0.00    +0.000 A 
ENDBRANCH  10  11
ENDBRANCH   1  10
TORSDOF 5
ENDMDL
