MODEL 1
REMARK VINA RESULT:      -8.0      0.000      0.000
REMARK  Name = 
REMARK  8 active torsions:
REMARK  status: ('A' for Active; 'I' for Inactive)
REMARK    1  A    between atoms: C_1  and  C_2
REMARK    2  A    between atoms: C_2  and  C_3
REMARK    3  A    between atoms: C_6  and  C_7
REMARK    4  A    between atoms: C_11  and  C_13
REMARK    5  A    between atoms: C_13  and  C_14
REMARK    6  A    between atoms: C_14  and  N_15
REMARK    7  A    between atoms: C_17  and  C_18
REMARK    8  A    between atoms: C_20  and  C_21
REMARK                            x       y       z     vdW  Elec       q    Type
REMARK                         _______ _______ _______ _____ _____    ______ ____
ROOT
ATOM      1  C   UNL     1       6.518   5.089  16.986  0.00  0.00    +0.000 C 
ATOM      2  C   UNL     1       5.527   4.111  17.639  0.00  0.00    +0.000 C 
ATOM      3  C   UNL     1       4.071   4.416  17.274  0.00  0.00    +0.000 C 
ATOM      4  N   UNL     1       3.758   5.820  17.532  0.00  0.00    +0.000 N 
ATOM      5  C   UNL     1       2.670   6.150  18.336  0.00  0.00    +0.000 C 
ATOM      6  O   UNL     1       1.926   5.300  18.827  0.00  0.00    +0.000 OA
ATOM      7  C   UNL     1       4.629   6.778  16.848  0.00  0.00    +0.000 C 
ATOM      8  C   UNL     1       6.083   6.541  17.259  0.00  0.00    +0.000 C 
ENDROOT
BRANCH   1  12
ATOM      9  C   UNL     1       6.632   4.167  13.545  0.00  0.00    +0.000 A 
ATOM     10  N   UNL     1       7.480   5.202  13.496  0.00  0.00    +0.000 NA
ATOM     11  O   UNL     1       7.493   5.665  14.817  0.00  0.00    +0.000 OA
ATOM     12  C   UNL     1       6.658   4.847  15.519  0.00  0.00    +0.000 A 
ATOM     13  N   UNL     1       6.093   3.924  14.777  0.00  0.00    +0.000 NA
BRANCH   9  15
ATOM     14  C   UNL     1       4.872   3.450  11.942  0.00  0.00    +0.000 C 
ATOM     15  C   UNL     1       6.321   3.305  12.381  0.00  0.00    +0.000 C 
ENDBRANCH   9  15
ENDBRANCH   1  12
BRANCH   5  16
ATOM     16  C   UNL     1       2.427   7.625  18.578  0.00  0.00    +0.000 C 
BRANCH  16  17
ATOM     17  C   UNL     1       1.995   7.904  20.008  0.00  0.00    +0.000 C 
BRANCH  17  18
ATOM     18  N   UNL     1       1.048   9.009  20.058  0.00  0.00    +0.000 N 
ATOM     19  N   UNL     1       0.605   9.529  18.894  0.00  0.00    +0.000 NA
ATOM     20  C   UNL     1      -0.282  10.459  19.257  0.00  0.00    +0.000 A 
ATOM     21  C   UNL     1      -1.024  11.240  18.240  0.00  0.00    +0.000 C 
ATOM     22  C   UNL     1      -0.380  10.555  20.660  0.00  0.00    +0.000 A 
ATOM     23  C   UNL     1       0.489   9.608  21.159  0.00  0.00    +0.000 A 
ATOM     24  C   UNL     1       0.811   9.246  22.560  0.00  0.00    +0.000 C 
ENDBRANCH  17  18
ENDBRANCH  16  17
ENDBRANCH   5  16
TORSDOF 5
ENDMDL
MODEL 2
REMARK VINA RESULT:      -7.7      1.296      1.491
REMARK  Name = 
REMARK  8 active torsions:
REMARK  status: ('A' for Active; 'I' for Inactive)
REMARK    1  A    between atoms: C_1  and  C_2
REMARK    2  A    between atoms: C_2  and  C_3
REMARK    3  A    between atoms: C_6  and  C_7
REMARK    4  A    between atoms: C_11  and  C_13
REMARK    5  A    between atoms: C_13  and  C_14
REMARK    6  A    between atoms: C_14  and  N_15
REMARK    7  A    between atoms: C_17  and  C_18
REMARK    8  A    between atoms: C_20  and  C_21
REMARK                            x       y       z     vdW  Elec       q    Type
REMARK                         _______ _______ _______ _____ _____    ______ ____
ROOT
ATOM      1  C   UNL     1       6.371   4.767  17.246  0.00  0.00    +0.000 C 
ATOM      2  C   UNL     1       5.185   3.883  17.666  0.00  0.00    +0.000 C 
ATOM      3  C   UNL     1       3.834   4.469  17.243  0.00  0.00    +0.000 C 
ATOM      4  N   UNL     1       3.712   5.856  17.689  0.00  0.00    +0.000 N 
ATOM      5  C   UNL     1       2.612   6.242  18.451  0.00  0.00    +0.000 C 
ATOM      6  O   UNL     1       1.704   5.466  18.748  0.00  0.00    +0.000 OA
ATOM      7  C   UNL     1       4.780   6.744  17.227  0.00  0.00    +0.000 C 
ATOM      8  C   UNL     1       6.134   6.219  17.705  0.00  0.00    +0.000 C 
ENDROOT
BRANCH   1  12
ATOM      9  C   UNL     1       6.752   4.277  13.737  0.00  0.00    +0.000 A 
ATOM     10  N   UNL     1       7.544   5.349  13.869  0.00  0.00    +0.000 NA
ATOM     11  O   UNL     1       7.448   5.648  15.234  0.00  0.00    +0.000 OA
ATOM     12  C   UNL     1       6.617   4.713  15.775  0.00  0.00    +0.000 A 
ATOM     13  N   UNL     1       6.151   3.861  14.891  0.00  0.00    +0.000 NA
BRANCH   9  15
ATOM     14  C   UNL     1       5.093   3.441  12.085  0.00  0.00    +0.000 C 
ATOM     15  C   UNL     1       6.564   3.550  12.460  0.00  0.00    +0.000 C 
ENDBRANCH   9  15
ENDBRANCH   1  12
BRANCH   5  16
ATOM     16  C   UNL     1       2.570   7.690  18.896  0.00  0.00    +0.000 C 
BRANCH  16  17
ATOM     17  C   UNL     1       1.685   8.537  17.996  0.00  0.00    +0.000 C 
BRANCH  17  18
ATOM     18  N   UNL     1       1.571   9.894  18.508  0.00  0.00    +0.000 N 
ATOM     19  N   UNL     1       2.293  10.868  17.916  0.00  0.00    +0.000 NA
ATOM     20  C   UNL     1       1.933  11.988  18.549  0.00  0.00    +0.000 A 
ATOM     21  C   UNL     1       2.495  13.300  18.151  0.00  0.00    +0.000 C 
ATOM     22  C   UNL     1       1.002  11.720  19.573  0.00  0.00    +0.000 A 
ATOM     23  C   UNL     1       0.781  10.360  19.529  0.00  0.00    +0.000 A 
ATOM     24  C   UNL     1      -0.099   9.505  20.361  0.00  0.00    +0.000 C 
ENDBRANCH  17  18
ENDBRANCH  16  17
ENDBRANCH   5  16
TORSDOF 5
ENDMDL
MODEL 3
REMARK VINA RESULT:      -7.7      0.845      1.708
REMARK  Name = 
REMARK  8 active torsions:
REMARK  status: ('A' for Active; 'I' for Inactive)
REMARK    1  A    between atoms: C_1  and  C_2
REMARK    2  A    between atoms: C_2  and  C_3
REMARK    3  A    between atoms: C_6  and  C_7
REMARK    4  A    between atoms: C_11  and  C_13
REMARK    5  A    between atoms: C_13  and  C_14
REMARK    6  A    between atoms: C_14  and  N_15
REMARK    7  A    between atoms: C_17  and  C_18
REMARK    8  A    between atoms: C_20  and  C_21
REMARK                            x       y       z     vdW  Elec       q    Type
REMARK                         _______ _______ _______ _____ _____    ______ ____
ROOT
ATOM      1  C   UNL     1       6.515   4.747  17.067  0.00  0.00    +0.000 C 
ATOM      2  C   UNL     1       5.275   3.907  17.418  0.00  0.00    +0.000 C 
ATOM      3  C   UNL     1       3.967   4.585  16.997  0.00  0.00    +0.000 C 
ATOM      4  N   UNL     1       3.907   5.952  17.508  0.00  0.00    +0.000 N 
ATOM      5  C   UNL     1       2.812   6.360  18.265  0.00  0.00    +0.000 C 
ATOM      6  O   UNL     1       1.857   5.620  18.505  0.00  0.00    +0.000 OA
ATOM      7  C   UNL     1       5.030   6.804  17.113  0.00  0.00    +0.000 C 
ATOM      8  C   UNL     1       6.344   6.185  17.592  0.00  0.00    +0.000 C 
ENDROOT
BRANCH   1  12
ATOM      9  C   UNL     1       6.950   4.408  13.546  0.00  0.00    +0.000 A 
ATOM     10  N   UNL     1       7.800   5.422  13.749  0.00  0.00    +0.000 NA
ATOM     11  O   UNL     1       7.690   5.659  15.125  0.00  0.00    +0.000 OA
ATOM     12  C   UNL     1       6.792   4.750  15.600  0.00  0.00    +0.000 A 
ATOM     13  N   UNL     1       6.298   3.972  14.665  0.00  0.00    +0.000 NA
BRANCH   9  15
ATOM     14  C   UNL     1       5.332   3.224  12.076  0.00  0.00    +0.000 C 
ATOM     15  C   UNL     1       6.749   3.757  12.231  0.00  0.00    +0.000 C 
ENDBRANCH   9  15
ENDBRANCH   1  12
BRANCH   5  16
ATOM     16  C   UNL     1       2.835   7.784  18.780  0.00  0.00    +0.000 C 
BRANCH  16  17
ATOM     17  C   UNL     1       1.549   8.528  18.456  0.00  0.00    +0.000 C 
BRANCH  17  18
ATOM     18  N   UNL     1       1.119   9.338  19.586  0.00  0.00    +0.000 N 
ATOM     19  N   UNL     1       0.713   8.711  20.710  0.00  0.00    +0.000 NA
ATOM     20  C   UNL     1       0.452   9.698  21.572  0.00  0.00    +0.000 A 
ATOM     21  C   UNL     1       0.007   9.402  22.953  0.00  0.00    +0.000 C 
ATOM     22  C   UNL     1       0.662  10.961  20.982  0.00  0.00    +0.000 A 
ATOM     23  C   UNL     1       1.093  10.706  19.698  0.00  0.00    +0.000 A 
ATOM     24  C   UNL     1       1.469  11.640  18.610  0.00  0.00    +0.000 C 
ENDBRANCH  17  18
ENDBRANCH  16  17
ENDBRANCH   5  16
TORSDOF 5
ENDMDL
MODEL 4
REMARK VINA RESULT:      -7.3      1.119      1.301
REMARK  Name = 
REMARK  8 active torsions:
REMARK  status: ('A' for Active; 'I' for Inactive)
REMARK    1  A    between atoms: C_1  and  C_2
REMARK    2  A    between atoms: C_2  and  C_3
REMARK    3  A    between atoms: C_6  and  C_7
REMARK    4  A    between atoms: C_11  and  C_13
REMARK    5  A    between atoms: C_13  and  C_14
REMARK    6  A    between atoms: C_14  and  N_15
REMARK    7  A    between atoms: C_17  and  C_18
REMARK    8  A    between atoms: C_20  and  C_21
REMARK                            x       y       z     vdW  Elec       q    Type
REMARK                         _______ _______ _______ _____ _____    ______ ____
ROOT
ATOM      1  C   UNL     1       6.586   5.838  17.673  0.00  0.00    +0.000 C 
ATOM      2  C   UNL     1       6.074   4.898  18.777  0.00  0.00    +0.000 C 
ATOM      3  C   UNL     1       4.566   4.647  18.685  0.00  0.00    +0.000 C 
ATOM      4  N   UNL     1       3.836   5.911  18.613  0.00  0.00    +0.000 N 
ATOM      5  C   UNL     1       2.815   6.172  19.523  0.00  0.00    +0.000 C 
ATOM      6  O   UNL     1       2.469   5.363  20.383  0.00  0.00    +0.000 OA
ATOM      7  C   UNL     1       4.239   6.789  17.513  0.00  0.00    +0.000 C 
ATOM      8  C   UNL     1       5.727   7.117  17.629  0.00  0.00    +0.000 C 
ENDROOT
BRANCH   1  12
ATOM      9  C   UNL     1       6.807   4.597  14.339  0.00  0.00    +0.000 A 
ATOM     10  N   UNL     1       6.102   3.592  14.873  0.00  0.00    +0.000 NA
ATOM     11  O   UNL     1       5.975   3.971  16.215  0.00  0.00    +0.000 OA
ATOM     12  C   UNL     1       6.608   5.172  16.337  0.00  0.00    +0.000 A 
ATOM     13  N   UNL     1       7.149   5.588  15.216  0.00  0.00    +0.000 NA
BRANCH   9  15
ATOM     14  C   UNL     1       6.537   3.545  12.103  0.00  0.00    +0.000 C 
ATOM     15  C   UNL     1       7.160   4.680  12.903  0.00  0.00    +0.000 C 
ENDBRANCH   9  15
ENDBRANCH   1  12
BRANCH   5  16
ATOM     16  C   UNL     1       2.123   7.514  19.399  0.00  0.00    +0.000 C 
BRANCH  16  17
ATOM     17  C   UNL     1       1.652   8.038  20.746  0.00  0.00    +0.000 C 
BRANCH  17  18
ATOM     18  N   UNL     1       0.759   9.174  20.578  0.00  0.00    +0.000 N 
ATOM     19  N   UNL     1       0.571   9.666  19.335  0.00  0.00    +0.000 NA
ATOM     20  C   UNL     1      -0.332  10.638  19.490  0.00  0.00    +0.000 A 
ATOM     21  C   UNL     1      -0.831  11.405  18.324  0.00  0.00    +0.000 C 
ATOM     22  C   UNL     1      -0.696  10.789  20.843  0.00  0.00    +0.000 A 
ATOM     23  C   UNL     1       0.020   9.832  21.530  0.00  0.00    +0.000 A 
ATOM     24  C   UNL     1       0.050   9.512  22.977  0.00  0.00    +0.000 C 
ENDBRANCH  17  18
ENDBRANCH  16  17
ENDBRANCH   5  16
TORSDOF 5
ENDMDL
MODEL 5
REMARK VINA RESULT:      -7.1      2.655      8.504
REMARK  Name = 
REMARK  8 active torsions:
REMARK  status: ('A' for Active; 'I' for Inactive)
REMARK    1  A    between atoms: C_1  and  C_2
REMARK    2  A    between atoms: C_2  and  C_3
REMARK    3  A    between atoms: C_6  and  C_7
REMARK    4  A    between atoms: C_11  and  C_13
REMARK    5  A    between atoms: C_13  and  C_14
REMARK    6  A    between atoms: C_14  and  N_15
REMARK    7  A    between atoms: C_17  and  C_18
REMARK    8  A    between atoms: C_20  and  C_21
REMARK                            x       y       z     vdW  Elec       q    Type
REMARK                         _______ _______ _______ _____ _____    ______ ____
ROOT
ATOM      1  C   UNL     1       0.211  10.157  19.305  0.00  0.00    +0.000 C 
ATOM      2  C   UNL     1       0.141   9.119  20.438  0.00  0.00    +0.000 C 
ATOM      3  C   UNL     1       1.491   8.444  20.703  0.00  0.00    +0.000 C 
ATOM      4  N   UNL     1       2.055   7.915  19.464  0.00  0.00    +0.000 N 
ATOM      5  C   UNL     1       2.431   6.576  19.392  0.00  0.00    +0.000 C 
ATOM      6  O   UNL     1       2.337   5.808  20.349  0.00  0.00    +0.000 OA
ATOM      7  C   UNL     1       2.220   8.902  18.395  0.00  0.00    +0.000 C 
ATOM      8  C   UNL     1       0.869   9.534  18.059  0.00  0.00    +0.000 C 
ENDROOT
BRANCH   1  12
ATOM      9  C   UNL     1       2.007  13.177  19.899  0.00  0.00    +0.000 A 
ATOM     10  N   UNL     1       1.901  12.763  21.168  0.00  0.00    +0.000 NA
ATOM     11  O   UNL     1       1.177  11.570  21.053  0.00  0.00    +0.000 OA
ATOM     12  C   UNL     1       0.937  11.393  19.723  0.00  0.00    +0.000 A 
ATOM     13  N   UNL     1       1.413  12.362  18.977  0.00  0.00    +0.000 NA
BRANCH   9  15
ATOM     14  C   UNL     1       3.653  14.131  18.298  0.00  0.00    +0.000 C 
ATOM     15  C   UNL     1       2.748  14.394  19.492  0.00  0.00    +0.000 C 
ENDBRANCH   9  15
ENDBRANCH   1  12
BRANCH   5  16
ATOM     16  C   UNL     1       2.984   6.097  18.066  0.00  0.00    +0.000 C 
BRANCH  16  17
ATOM     17  C   UNL     1       3.552   4.690  18.160  0.00  0.00    +0.000 C 
BRANCH  17  18
ATOM     18  N   UNL     1       4.792   4.579  17.406  0.00  0.00    +0.000 N 
ATOM     19  N   UNL     1       4.727   4.183  16.117  0.00  0.00    +0.000 NA
ATOM     20  C   UNL     1       5.989   4.242  15.682  0.00  0.00    +0.000 A 
ATOM     21  C   UNL     1       6.325   3.910  14.279  0.00  0.00    +0.000 C 
ATOM     22  C   UNL     1       6.866   4.646  16.710  0.00  0.00    +0.000 A 
ATOM     23  C   UNL     1       6.071   4.859  17.816  0.00  0.00    +0.000 A 
ATOM     24  C   UNL     1       6.432   5.295  19.186  0.00  0.00    +0.000 C 
ENDBRANCH  17  18
ENDBRANCH  16  17
ENDBRANCH   5  16
TORSDOF 5
ENDMDL
MODEL 6
REMARK VINA RESULT:      -6.9      1.379      2.147
REMARK  Name = 
REMARK  8 active torsions:
REMARK  status: ('A' for Active; 'I' for Inactive)
REMARK    1  A    between atoms: C_1  and  C_2
REMARK    2  A    between atoms: C_2  and  C_3
REMARK    3  A    between atoms: C_6  and  C_7
REMARK    4  A    between atoms: C_11  and  C_13
REMARK    5  A    between atoms: C_13  and  C_14
REMARK    6  A    between atoms: C_14  and  N_15
REMARK    7  A    between atoms: C_17  and  C_18
REMARK    8  A    between atoms: C_20  and  C_21
REMARK                            x       y       z     vdW  Elec       q    Type
REMARK                         _______ _______ _______ _____ _____    ______ ____
ROOT
ATOM      1  C   UNL     1       5.924   4.052  18.369  0.00  0.00    +0.000 C 
ATOM      2  C   UNL     1       4.712   3.111  18.466  0.00  0.00    +0.000 C 
ATOM      3  C   UNL     1       3.393   3.812  18.129  0.00  0.00    +0.000 C 
ATOM      4  N   UNL     1       3.244   5.036  18.914  0.00  0.00    +0.000 N 
ATOM      5  C   UNL     1       2.097   5.230  19.680  0.00  0.00    +0.000 C 
ATOM      6  O   UNL     1       1.170   4.420  19.705  0.00  0.00    +0.000 OA
ATOM      7  C   UNL     1       4.341   5.994  18.770  0.00  0.00    +0.000 C 
ATOM      8  C   UNL     1       5.660   5.337  19.177  0.00  0.00    +0.000 C 
ENDROOT
BRANCH   1  12
ATOM      9  C   UNL     1       6.596   4.459  14.893  0.00  0.00    +0.000 A 
ATOM     10  N   UNL     1       7.194   5.572  15.337  0.00  0.00    +0.000 NA
ATOM     11  O   UNL     1       6.967   5.526  16.718  0.00  0.00    +0.000 OA
ATOM     12  C   UNL     1       6.266   4.380  16.954  0.00  0.00    +0.000 A 
ATOM     13  N   UNL     1       6.000   3.701  15.862  0.00  0.00    +0.000 NA
BRANCH   9  15
ATOM     14  C   UNL     1       5.208   3.709  12.972  0.00  0.00    +0.000 C 
ATOM     15  C   UNL     1       6.607   4.032  13.475  0.00  0.00    +0.000 C 
ENDBRANCH   9  15
ENDBRANCH   1  12
BRANCH   5  16
ATOM     16  C   UNL     1       2.028   6.510  20.486  0.00  0.00    +0.000 C 
BRANCH  16  17
ATOM     17  C   UNL     1       1.878   7.735  19.598  0.00  0.00    +0.000 C 
BRANCH  17  18
ATOM     18  N   UNL     1       1.133   8.783  20.280  0.00  0.00    +0.000 N 
ATOM     19  N   UNL     1       0.709   8.554  21.541  0.00  0.00    +0.000 NA
ATOM     20  C   UNL     1       0.130   9.698  21.915  0.00  0.00    +0.000 A 
ATOM     21  C   UNL     1      -0.438   9.854  23.275  0.00  0.00    +0.000 C 
ATOM     22  C   UNL     1       0.155  10.649  20.875  0.00  0.00    +0.000 A 
ATOM     23  C   UNL     1       0.809  10.037  19.827  0.00  0.00    +0.000 A 
ATOM     24  C   UNL     1       1.135  10.545  18.473  0.00  0.00    +0.000 C 
ENDBRANCH  17  18
ENDBRANCH  16  17
ENDBRANCH   5  16
TORSDOF 5
ENDMDL
MODEL 7
REMARK VINA RESULT:      -6.9      2.693      8.400
REMARK  Name = 
REMARK  8 active torsions:
REMARK  status: ('A' for Active; 'I' for Inactive)
REMARK    1  A    between atoms: C_1  and  C_2
REMARK    2  A    between atoms: C_2  and  C_3
REMARK    3  A    between atoms: C_6  and  C_7
REMARK    4  A    between atoms: C_11  and  C_13
REMARK    5  A    between atoms: C_13  and  C_14
REMARK    6  A    between atoms: C_14  and  N_15
REMARK    7  A    between atoms: C_17  and  C_18
REMARK    8  A    between atoms: C_20  and  C_21
REMARK                            x       y       z     vdW  Elec       q    Type
REMARK                         _______ _______ _______ _____ _____    ______ ____
ROOT
ATOM      1  C   UNL     1       0.222  10.252  19.353  0.00  0.00    +0.000 C 
ATOM      2  C   UNL     1       0.157   9.209  20.481  0.00  0.00    +0.000 C 
ATOM      3  C   UNL     1       1.486   8.472  20.680  0.00  0.00    +0.000 C 
ATOM      4  N   UNL     1       1.969   7.929  19.413  0.00  0.00    +0.000 N 
ATOM      5  C   UNL     1       2.280   6.575  19.315  0.00  0.00    +0.000 C 
ATOM      6  O   UNL     1       2.195   5.803  20.271  0.00  0.00    +0.000 OA
ATOM      7  C   UNL     1       2.129   8.916  18.344  0.00  0.00    +0.000 C 
ATOM      8  C   UNL     1       0.794   9.610  18.074  0.00  0.00    +0.000 C 
ENDROOT
BRANCH   1  12
ATOM      9  C   UNL     1       2.245  13.136  19.890  0.00  0.00    +0.000 A 
ATOM     10  N   UNL     1       1.952  12.865  21.168  0.00  0.00    +0.000 NA
ATOM     11  O   UNL     1       1.124  11.740  21.073  0.00  0.00    +0.000 OA
ATOM     12  C   UNL     1       1.021  11.450  19.744  0.00  0.00    +0.000 A 
ATOM     13  N   UNL     1       1.679  12.290  18.979  0.00  0.00    +0.000 NA
BRANCH   9  15
ATOM     14  C   UNL     1       3.002  14.551  17.992  0.00  0.00    +0.000 C 
ATOM     15  C   UNL     1       3.151  14.230  19.471  0.00  0.00    +0.000 C 
ENDBRANCH   9  15
ENDBRANCH   1  12
BRANCH   5  16
ATOM     16  C   UNL     1       2.750   6.082  17.962  0.00  0.00    +0.000 C 
BRANCH  16  17
ATOM     17  C   UNL     1       3.848   5.038  18.086  0.00  0.00    +0.000 C 
BRANCH  17  18
ATOM     18  N   UNL     1       5.093   5.524  17.510  0.00  0.00    +0.000 N 
ATOM     19  N   UNL     1       5.702   6.579  18.091  0.00  0.00    +0.000 NA
ATOM     20  C   UNL     1       6.830   6.743  17.394  0.00  0.00    +0.000 A 
ATOM     21  C   UNL     1       7.801   7.801  17.758  0.00  0.00    +0.000 C 
ATOM     22  C   UNL     1       6.924   5.808  16.343  0.00  0.00    +0.000 A 
ATOM     23  C   UNL     1       5.791   5.028  16.437  0.00  0.00    +0.000 A 
ATOM     24  C   UNL     1       5.342   3.887  15.605  0.00  0.00    +0.000 C 
ENDBRANCH  17  18
ENDBRANCH  16  17
ENDBRANCH   5  16
TORSDOF 5
ENDMDL
MODEL 8
REMARK VINA RESULT:      -6.9      1.330      1.663
REMARK  Name = 
REMARK  8 active torsions:
REMARK  status: ('A' for Active; 'I' for Inactive)
REMARK    1  A    between atoms: C_1  and  C_2
REMARK    2  A    between atoms: C_2  and  C_3
REMARK    3  A    between atoms: C_6  and  C_7
REMARK    4  A    between atoms: C_11  and  C_13
REMARK    5  A    between atoms: C_13  and  C_14
REMARK    6  A    between atoms: C_14  and  N_15
REMARK    7  A    between atoms: C_17  and  C_18
REMARK    8  A    between atoms: C_20  and  C_21
REMARK                            x       y       z     vdW  Elec       q    Type
REMARK                         _______ _______ _______ _____ _____    ______ ____
ROOT
ATOM      1  C   UNL     1       6.379   6.048  17.407  0.00  0.00    +0.000 C 
ATOM      2  C   UNL     1       5.686   5.386  18.609  0.00  0.00    +0.000 C 
ATOM      3  C   UNL     1       4.167   5.291  18.434  0.00  0.00    +0.000 C 
ATOM      4  N   UNL     1       3.605   6.594  18.084  0.00  0.00    +0.000 N 
ATOM      5  C   UNL     1       2.569   7.127  18.846  0.00  0.00    +0.000 C 
ATOM      6  O   UNL     1       2.071   6.530  19.801  0.00  0.00    +0.000 OA
ATOM      7  C   UNL     1       4.183   7.208  16.888  0.00  0.00    +0.000 C 
ATOM      8  C   UNL     1       5.691   7.385  17.071  0.00  0.00    +0.000 C 
ENDROOT
BRANCH   1  12
ATOM      9  C   UNL     1       6.529   4.249  14.335  0.00  0.00    +0.000 A 
ATOM     10  N   UNL     1       6.059   3.265  15.112  0.00  0.00    +0.000 NA
ATOM     11  O   UNL     1       5.982   3.866  16.374  0.00  0.00    +0.000 OA
ATOM     12  C   UNL     1       6.404   5.153  16.213  0.00  0.00    +0.000 A 
ATOM     13  N   UNL     1       6.766   5.429  14.981  0.00  0.00    +0.000 NA
BRANCH   9  15
ATOM     14  C   UNL     1       5.620   3.317  12.216  0.00  0.00    +0.000 C 
ATOM     15  C   UNL     1       6.739   4.111  12.874  0.00  0.00    +0.000 C 
ENDBRANCH   9  15
ENDBRANCH   1  12
BRANCH   5  16
ATOM     16  C   UNL     1       2.058   8.493  18.435  0.00  0.00    +0.000 C 
BRANCH  16  17
ATOM     17  C   UNL     1       1.375   9.215  19.585  0.00  0.00    +0.000 C 
BRANCH  17  18
ATOM     18  N   UNL     1       0.161   9.879  19.134  0.00  0.00    +0.000 N 
ATOM     19  N   UNL     1      -0.291   9.616  17.889  0.00  0.00    +0.000 NA
ATOM     20  C   UNL     1      -1.431  10.305  17.792  0.00  0.00    +0.000 A 
ATOM     21  C   UNL     1      -2.254  10.243  16.562  0.00  0.00    +0.000 C 
ATOM     22  C   UNL     1      -1.689  11.038  18.969  0.00  0.00    +0.000 A 
ATOM     23  C   UNL     1      -0.647  10.747  19.824  0.00  0.00    +0.000 A 
ATOM     24  C   UNL     1      -0.378  11.221  21.202  0.00  0.00    +0.000 C 
ENDBRANCH  17  18
ENDBRANCH  16  17
ENDBRANCH   5  16
TORSDOF 5
ENDMDL
MODEL 9
REMARK VINA RESULT:      -6.8      1.217      1.975
REMARK  Name = 
REMARK  8 active torsions:
REMARK  status: ('A' for Active; 'I' for Inactive)
REMARK    1  A    between atoms: C_1  and  C_2
REMARK    2  A    between atoms: C_2  and  C_3
REMARK    3  A    between atoms: C_6  and  C_7
REMARK    4  A    between atoms: C_11  and  C_13
REMARK    5  A    between atoms: C_13  and  C_14
REMARK    6  A    between atoms: C_14  and  N_15
REMARK    7  A    between atoms: C_17  and  C_18
REMARK    8  A    between atoms: C_20  and  C_21
REMARK                            x       y       z     vdW  Elec       q    Type
REMARK                         _______ _______ _______ _____ _____    ______ ____
ROOT
ATOM      1  C   UNL     1       7.307   5.438  16.553  0.00  0.00    +0.000 C 
ATOM      2  C   UNL     1       6.916   4.343  17.559  0.00  0.00    +0.000 C 
ATOM      3  C   UNL     1       5.399   4.174  17.685  0.00  0.00    +0.000 C 
ATOM      4  N   UNL     1       4.756   5.460  17.946  0.00  0.00    +0.000 N 
ATOM      5  C   UNL     1       3.915   5.602  19.047  0.00  0.00    +0.000 C 
ATOM      6  O   UNL     1       3.657   4.670  19.809  0.00  0.00    +0.000 OA
ATOM      7  C   UNL     1       5.037   6.498  16.953  0.00  0.00    +0.000 C 
ATOM      8  C   UNL     1       6.544   6.740  16.866  0.00  0.00    +0.000 C 
ENDROOT
BRANCH   1  12
ATOM      9  C   UNL     1       6.483   4.136  13.340  0.00  0.00    +0.000 A 
ATOM     10  N   UNL     1       7.453   4.978  12.963  0.00  0.00    +0.000 NA
ATOM     11  O   UNL     1       7.842   5.574  14.170  0.00  0.00    +0.000 OA
ATOM     12  C   UNL     1       7.069   5.013  15.142  0.00  0.00    +0.000 A 
ATOM     13  N   UNL     1       6.207   4.138  14.678  0.00  0.00    +0.000 NA
BRANCH   9  15
ATOM     14  C   UNL     1       6.754   2.439  11.544  0.00  0.00    +0.000 C 
ATOM     15  C   UNL     1       5.779   3.226  12.407  0.00  0.00    +0.000 C 
ENDBRANCH   9  15
ENDBRANCH   1  12
BRANCH   5  16
ATOM     16  C   UNL     1       3.307   6.972  19.264  0.00  0.00    +0.000 C 
BRANCH  16  17
ATOM     17  C   UNL     1       1.797   6.906  19.426  0.00  0.00    +0.000 C 
BRANCH  17  18
ATOM     18  N   UNL     1       1.295   8.093  20.102  0.00  0.00    +0.000 N 
ATOM     19  N   UNL     1       0.964   7.997  21.408  0.00  0.00    +0.000 NA
ATOM     20  C   UNL     1       0.610   9.237  21.757  0.00  0.00    +0.000 A 
ATOM     21  C   UNL     1       0.207   9.549  23.148  0.00  0.00    +0.000 C 
ATOM     22  C   UNL     1       0.684  10.120  20.660  0.00  0.00    +0.000 A 
ATOM     23  C   UNL     1       1.130   9.359  19.600  0.00  0.00    +0.000 A 
ATOM     24  C   UNL     1       1.400   9.741  18.194  0.00  0.00    +0.000 C 
ENDBRANCH  17  18
ENDBRANCH  16  17
ENDBRANCH   5  16
TORSDOF 5
ENDMDL
