MODEL 1
REMARK VINA RESULT:      -9.3      0.000      0.000
REMARK  Name = 
REMARK  6 active torsions:
REMARK  status: ('A' for Active; 'I' for Inactive)
REMARK    1  A    between atoms: C_2  and  C_29
REMARK    2  A    between atoms: N_3  and  C_4
REMARK    3  A    between atoms: C_8  and  N_9
REMARK    4  A    between atoms: C_11  and  C_12
REMARK    5  A    between atoms: C_18  and  C_19
REMARK    6  A    between atoms: C_21  and  O_22
REMARK                            x       y       z     vdW  Elec       q    Type
REMARK                         _______ _______ _______ _____ _____    ______ ____
ROOT
ATOM      1  N   UNL     1       2.315   8.314  18.551  0.00  0.00    +0.000 N 
ATOM      2  C   UNL     1       1.765   7.260  19.242  0.00  0.00    +0.000 A 
ATOM      3  C   UNL     1       2.493   6.134  18.938  0.00  0.00    +0.000 A 
ATOM      4  C   UNL     1       3.534   6.605  18.076  0.00  0.00    +0.000 A 
ATOM      5  N   UNL     1       3.370   7.912  17.799  0.00  0.00    +0.000 NA
ENDROOT
BRANCH   4   6
ATOM      6  C   UNL     1       4.688   5.868  17.543  0.00  0.00    +0.000 A 
ATOM      7  C   UNL     1       5.824   5.647  18.340  0.00  0.00    +0.000 A 
ATOM      8  C   UNL     1       6.906   4.928  17.843  0.00  0.00    +0.000 A 
ATOM      9  C   UNL     1       6.903   4.454  16.539  0.00  0.00    +0.000 A 
ATOM     10  C   UNL     1       5.798   4.701  15.729  0.00  0.00    +0.000 A 
ATOM     11 CL   UNL     1       5.801   4.151  14.098  0.00  0.00    +0.000 Cl
ATOM     12  C   UNL     1       4.689   5.394  16.223  0.00  0.00    +0.000 A 
BRANCH   8  13
ATOM     13  O   UNL     1       7.998   4.672  18.618  0.00  0.00    +0.000 OA
ATOM     14  H   UNL     1       8.374   3.810  18.372  0.00  0.00    +0.000 HD
ENDBRANCH   8  13
ENDBRANCH   4   6
BRANCH   1  19
ATOM     15  C   UNL     1       0.325  11.390  19.335  0.00  0.00    +0.000 A 
ATOM     16  C   UNL     1       1.055  12.340  18.618  0.00  0.00    +0.000 A 
ATOM     17  C   UNL     1       2.192  11.979  17.897  0.00  0.00    +0.000 A 
ATOM     18  C   UNL     1       2.611  10.653  17.884  0.00  0.00    +0.000 A 
ATOM     19  C   UNL     1       1.900   9.678  18.599  0.00  0.00    +0.000 A 
ATOM     20  C   UNL     1       0.763  10.054  19.339  0.00  0.00    +0.000 A 
BRANCH  15  23
ATOM     21  O   UNL     1       0.111  12.443  22.086  0.00  0.00    +0.000 OA
ATOM     22  C   UNL     1      -0.859  12.169  21.386  0.00  0.00    +0.000 C 
ATOM     23  N   UNL     1      -0.835  11.722  20.071  0.00  0.00    +0.000 N 
ATOM     24  H   UNL     1      -1.706  11.743  19.558  0.00  0.00    +0.000 HD
BRANCH  22  25
ATOM     25  C   UNL     1      -2.208  12.381  21.969  0.00  0.00    +0.000 A 
ATOM     26  C   UNL     1      -3.238  12.809  21.120  0.00  0.00    +0.000 A 
ATOM     27  C   UNL     1      -4.512  13.052  21.631  0.00  0.00    +0.000 A 
ATOM     28  C   UNL     1      -4.756  12.883  22.994  0.00  0.00    +0.000 A 
ATOM     29  C   UNL     1      -3.727  12.475  23.846  0.00  0.00    +0.000 A 
ATOM     30  C   UNL     1      -2.450  12.227  23.339  0.00  0.00    +0.000 A 
ENDBRANCH  22  25
ENDBRANCH  15  23
ENDBRANCH   1  19
BRANCH   3  31
ATOM     31  C   UNL     1       2.176   4.819  19.481  0.00  0.00    +0.000 A 
ATOM     32  C   UNL     1       2.256   4.580  20.854  0.00  0.00    +0.000 A 
ATOM     33  C   UNL     1       1.862   3.343  21.336  0.00  0.00    +0.000 A 
ATOM     34  N   UNL     1       1.438   2.334  20.549  0.00  0.00    +0.000 NA
ATOM     35  C   UNL     1       1.415   2.566  19.220  0.00  0.00    +0.000 A 
ATOM     36  C   UNL     1       1.764   3.778  18.646  0.00  0.00    +0.000 A 
ENDBRANCH   3  31
TORSDOF 6
ENDMDL
MODEL 2
REMARK VINA RESULT:      -9.3      1.988      2.560
REMARK  Name = 
REMARK  6 active torsions:
REMARK  status: ('A' for Active; 'I' for Inactive)
REMARK    1  A    between atoms: C_2  and  C_29
REMARK    2  A    between atoms: N_3  and  C_4
REMARK    3  A    between atoms: C_8  and  N_9
REMARK    4  A    between atoms: C_11  and  C_12
REMARK    5  A    between atoms: C_18  and  C_19
REMARK    6  A    between atoms: C_21  and  O_22
REMARK                            x       y       z     vdW  Elec       q    Type
REMARK                         _______ _______ _______ _____ _____    ______ ____
ROOT
ATOM      1  N   UNL     1       2.150   8.293  18.185  0.00  0.00    +0.000 N 
ATOM      2  C   UNL     1       1.549   7.140  18.631  0.00  0.00    +0.000 A 
ATOM      3  C   UNL     1       2.400   6.094  18.364  0.00  0.00    +0.000 A 
ATOM      4  C   UNL     1       3.556   6.712  17.789  0.00  0.00    +0.000 A 
ATOM      5  N   UNL     1       3.359   8.034  17.626  0.00  0.00    +0.000 NA
ENDROOT
BRANCH   4   6
ATOM      6  C   UNL     1       4.841   6.098  17.429  0.00  0.00    +0.000 A 
ATOM      7  C   UNL     1       5.807   5.833  18.414  0.00  0.00    +0.000 A 
ATOM      8  C   UNL     1       7.014   5.229  18.076  0.00  0.00    +0.000 A 
ATOM      9  C   UNL     1       7.305   4.919  16.755  0.00  0.00    +0.000 A 
ATOM     10  C   UNL     1       6.370   5.214  15.767  0.00  0.00    +0.000 A 
ATOM     11 CL   UNL     1       6.739   4.868  14.120  0.00  0.00    +0.000 Cl
ATOM     12  C   UNL     1       5.140   5.790  16.093  0.00  0.00    +0.000 A 
BRANCH   8  13
ATOM     13  O   UNL     1       7.943   4.929  19.027  0.00  0.00    +0.000 OA
ATOM     14  H   UNL     1       8.045   3.964  19.087  0.00  0.00    +0.000 HD
ENDBRANCH   8  13
ENDBRANCH   4   6
BRANCH   1  19
ATOM     15  C   UNL     1      -0.238  11.155  18.559  0.00  0.00    +0.000 A 
ATOM     16  C   UNL     1       0.644  12.228  18.420  0.00  0.00    +0.000 A 
ATOM     17  C   UNL     1       2.007  12.015  18.219  0.00  0.00    +0.000 A 
ATOM     18  C   UNL     1       2.504  10.718  18.151  0.00  0.00    +0.000 A 
ATOM     19  C   UNL     1       1.641   9.622  18.292  0.00  0.00    +0.000 A 
ATOM     20  C   UNL     1       0.268   9.845  18.512  0.00  0.00    +0.000 A 
BRANCH  15  23
ATOM     21  O   UNL     1      -2.425  11.067  16.576  0.00  0.00    +0.000 OA
ATOM     22  C   UNL     1      -2.595  11.328  17.763  0.00  0.00    +0.000 C 
ATOM     23  N   UNL     1      -1.626  11.336  18.758  0.00  0.00    +0.000 N 
ATOM     24  H   UNL     1      -1.946  11.358  19.717  0.00  0.00    +0.000 HD
BRANCH  22  25
ATOM     25  C   UNL     1      -3.980  11.618  18.211  0.00  0.00    +0.000 A 
ATOM     26  C   UNL     1      -4.160  12.198  19.475  0.00  0.00    +0.000 A 
ATOM     27  C   UNL     1      -5.446  12.456  19.951  0.00  0.00    +0.000 A 
ATOM     28  C   UNL     1      -6.553  12.123  19.172  0.00  0.00    +0.000 A 
ATOM     29  C   UNL     1      -6.377  11.528  17.921  0.00  0.00    +0.000 A 
ATOM     30  C   UNL     1      -5.093  11.269  17.438  0.00  0.00    +0.000 A 
ENDBRANCH  22  25
ENDBRANCH  15  23
ENDBRANCH   1  19
BRANCH   3  31
ATOM     31  C   UNL     1       2.074   4.710  18.687  0.00  0.00    +0.000 A 
ATOM     32  C   UNL     1       2.144   3.718  17.707  0.00  0.00    +0.000 A 
ATOM     33  C   UNL     1       1.910   2.404  18.077  0.00  0.00    +0.000 A 
ATOM     34  N   UNL     1       1.581   2.025  19.328  0.00  0.00    +0.000 NA
ATOM     35  C   UNL     1       1.471   3.004  20.251  0.00  0.00    +0.000 A 
ATOM     36  C   UNL     1       1.709   4.342  19.984  0.00  0.00    +0.000 A 
ENDBRANCH   3  31
TORSDOF 6
ENDMDL
MODEL 3
REMARK VINA RESULT:      -9.3      1.963      2.300
REMARK  Name = 
REMARK  6 active torsions:
REMARK  status: ('A' for Active; 'I' for Inactive)
REMARK    1  A    between atoms: C_2  and  C_29
REMARK    2  A    between atoms: N_3  and  C_4
REMARK    3  A    between atoms: C_8  and  N_9
REMARK    4  A    between atoms: C_11  and  C_12
REMARK    5  A    between atoms: C_18  and  C_19
REMARK    6  A    between atoms: C_21  and  O_22
REMARK                            x       y       z     vdW  Elec       q    Type
REMARK                         _______ _______ _______ _____ _____    ______ ____
ROOT
ATOM      1  N   UNL     1       2.159   8.268  18.204  0.00  0.00    +0.000 N 
ATOM      2  C   UNL     1       1.571   7.110  18.654  0.00  0.00    +0.000 A 
ATOM      3  C   UNL     1       2.428   6.070  18.378  0.00  0.00    +0.000 A 
ATOM      4  C   UNL     1       3.573   6.698  17.793  0.00  0.00    +0.000 A 
ATOM      5  N   UNL     1       3.365   8.019  17.633  0.00  0.00    +0.000 NA
ENDROOT
BRANCH   4   6
ATOM      6  C   UNL     1       4.859   6.094  17.419  0.00  0.00    +0.000 A 
ATOM      7  C   UNL     1       5.832   5.824  18.396  0.00  0.00    +0.000 A 
ATOM      8  C   UNL     1       7.039   5.230  18.044  0.00  0.00    +0.000 A 
ATOM      9  C   UNL     1       7.325   4.934  16.719  0.00  0.00    +0.000 A 
ATOM     10  C   UNL     1       6.383   5.234  15.739  0.00  0.00    +0.000 A 
ATOM     11 CL   UNL     1       6.744   4.907  14.087  0.00  0.00    +0.000 Cl
ATOM     12  C   UNL     1       5.151   5.801  16.078  0.00  0.00    +0.000 A 
BRANCH   8  13
ATOM     13  O   UNL     1       7.976   4.926  18.987  0.00  0.00    +0.000 OA
ATOM     14  H   UNL     1       8.031   5.650  19.633  0.00  0.00    +0.000 HD
ENDBRANCH   8  13
ENDBRANCH   4   6
BRANCH   1  19
ATOM     15  C   UNL     1      -0.245  11.110  18.623  0.00  0.00    +0.000 A 
ATOM     16  C   UNL     1       0.625  12.190  18.461  0.00  0.00    +0.000 A 
ATOM     17  C   UNL     1       1.984  11.989  18.228  0.00  0.00    +0.000 A 
ATOM     18  C   UNL     1       2.490  10.695  18.154  0.00  0.00    +0.000 A 
ATOM     19  C   UNL     1       1.641   9.592  18.318  0.00  0.00    +0.000 A 
ATOM     20  C   UNL     1       0.271   9.804  18.570  0.00  0.00    +0.000 A 
BRANCH  15  23
ATOM     21  O   UNL     1      -2.455  11.209  16.667  0.00  0.00    +0.000 OA
ATOM     22  C   UNL     1      -2.609  11.365  17.874  0.00  0.00    +0.000 C 
ATOM     23  N   UNL     1      -1.629  11.280  18.854  0.00  0.00    +0.000 N 
ATOM     24  H   UNL     1      -1.938  11.219  19.815  0.00  0.00    +0.000 HD
BRANCH  22  25
ATOM     25  C   UNL     1      -3.988  11.621  18.363  0.00  0.00    +0.000 A 
ATOM     26  C   UNL     1      -5.062  11.217  17.557  0.00  0.00    +0.000 A 
ATOM     27  C   UNL     1      -6.373  11.468  17.959  0.00  0.00    +0.000 A 
ATOM     28  C   UNL     1      -6.614  12.135  19.161  0.00  0.00    +0.000 A 
ATOM     29  C   UNL     1      -5.545  12.555  19.956  0.00  0.00    +0.000 A 
ATOM     30  C   UNL     1      -4.230  12.304  19.560  0.00  0.00    +0.000 A 
ENDBRANCH  22  25
ENDBRANCH  15  23
ENDBRANCH   1  19
BRANCH   3  31
ATOM     31  C   UNL     1       2.115   4.684  18.701  0.00  0.00    +0.000 A 
ATOM     32  C   UNL     1       1.653   4.338  19.972  0.00  0.00    +0.000 A 
ATOM     33  C   UNL     1       1.287   3.024  20.209  0.00  0.00    +0.000 A 
ATOM     34  N   UNL     1       1.383   2.042  19.291  0.00  0.00    +0.000 NA
ATOM     35  C   UNL     1       1.878   2.385  18.083  0.00  0.00    +0.000 A 
ATOM     36  C   UNL     1       2.248   3.676  17.742  0.00  0.00    +0.000 A 
ENDBRANCH   3  31
TORSDOF 6
ENDMDL
MODEL 4
REMARK VINA RESULT:      -9.2      2.911      4.560
REMARK  Name = 
REMARK  6 active torsions:
REMARK  status: ('A' for Active; 'I' for Inactive)
REMARK    1  A    between atoms: C_2  and  C_29
REMARK    2  A    between atoms: N_3  and  C_4
REMARK    3  A    between atoms: C_8  and  N_9
REMARK    4  A    between atoms: C_11  and  C_12
REMARK    5  A    between atoms: C_18  and  C_19
REMARK    6  A    between atoms: C_21  and  O_22
REMARK                            x       y       z     vdW  Elec       q    Type
REMARK                         _______ _______ _______ _____ _____    ______ ____
ROOT
ATOM      1  N   UNL     1       2.370   8.539  18.283  0.00  0.00    +0.000 N 
ATOM      2  C   UNL     1       3.536   8.252  17.614  0.00  0.00    +0.000 A 
ATOM      3  C   UNL     1       3.775   6.905  17.748  0.00  0.00    +0.000 A 
ATOM      4  C   UNL     1       2.651   6.415  18.485  0.00  0.00    +0.000 A 
ATOM      5  N   UNL     1       1.846   7.427  18.859  0.00  0.00    +0.000 NA
ENDROOT
BRANCH   4   6
ATOM      6  C   UNL     1       2.303   5.025  18.810  0.00  0.00    +0.000 A 
ATOM      7  C   UNL     1       2.259   4.046  17.804  0.00  0.00    +0.000 A 
ATOM      8  C   UNL     1       1.953   2.725  18.116  0.00  0.00    +0.000 A 
ATOM      9  C   UNL     1       1.642   2.358  19.417  0.00  0.00    +0.000 A 
ATOM     10  C   UNL     1       1.644   3.330  20.415  0.00  0.00    +0.000 A 
ATOM     11 CL   UNL     1       1.220   2.892  22.026  0.00  0.00    +0.000 Cl
ATOM     12  C   UNL     1       1.981   4.654  20.125  0.00  0.00    +0.000 A 
BRANCH   8  13
ATOM     13  O   UNL     1       1.947   1.757  17.156  0.00  0.00    +0.000 OA
ATOM     14  H   UNL     1       1.210   1.917  16.541  0.00  0.00    +0.000 HD
ENDBRANCH   8  13
ENDBRANCH   4   6
BRANCH   1  19
ATOM     15  C   UNL     1      -0.297  11.139  18.687  0.00  0.00    +0.000 A 
ATOM     16  C   UNL     1       0.456  12.295  18.470  0.00  0.00    +0.000 A 
ATOM     17  C   UNL     1       1.823  12.222  18.206  0.00  0.00    +0.000 A 
ATOM     18  C   UNL     1       2.454  10.984  18.155  0.00  0.00    +0.000 A 
ATOM     19  C   UNL     1       1.724   9.808  18.374  0.00  0.00    +0.000 A 
ATOM     20  C   UNL     1       0.347   9.890  18.657  0.00  0.00    +0.000 A 
BRANCH  15  23
ATOM     21  O   UNL     1      -2.535  11.521  16.799  0.00  0.00    +0.000 OA
ATOM     22  C   UNL     1      -2.681  11.410  18.012  0.00  0.00    +0.000 C 
ATOM     23  N   UNL     1      -1.685  11.177  18.951  0.00  0.00    +0.000 N 
ATOM     24  H   UNL     1      -1.977  10.898  19.878  0.00  0.00    +0.000 HD
BRANCH  22  25
ATOM     25  C   UNL     1      -4.066  11.479  18.546  0.00  0.00    +0.000 A 
ATOM     26  C   UNL     1      -5.071  10.770  17.873  0.00  0.00    +0.000 A 
ATOM     27  C   UNL     1      -6.391  10.833  18.319  0.00  0.00    +0.000 A 
ATOM     28  C   UNL     1      -6.711  11.615  19.428  0.00  0.00    +0.000 A 
ATOM     29  C   UNL     1      -5.715  12.337  20.088  0.00  0.00    +0.000 A 
ATOM     30  C   UNL     1      -4.391  12.276  19.649  0.00  0.00    +0.000 A 
ENDBRANCH  22  25
ENDBRANCH  15  23
ENDBRANCH   1  19
BRANCH   3  31
ATOM     31  C   UNL     1       4.946   6.252  17.177  0.00  0.00    +0.000 A 
ATOM     32  C   UNL     1       5.019   5.996  15.807  0.00  0.00    +0.000 A 
ATOM     33  C   UNL     1       6.185   5.452  15.295  0.00  0.00    +0.000 A 
ATOM     34  N   UNL     1       7.251   5.119  16.050  0.00  0.00    +0.000 NA
ATOM     35  C   UNL     1       7.144   5.328  17.379  0.00  0.00    +0.000 A 
ATOM     36  C   UNL     1       6.030   5.889  17.982  0.00  0.00    +0.000 A 
ENDBRANCH   3  31
TORSDOF 6
ENDMDL
MODEL 5
REMARK VINA RESULT:      -9.0      0.760      1.250
REMARK  Name = 
REMARK  6 active torsions:
REMARK  status: ('A' for Active; 'I' for Inactive)
REMARK    1  A    between atoms: C_2  and  C_29
REMARK    2  A    between atoms: N_3  and  C_4
REMARK    3  A    between atoms: C_8  and  N_9
REMARK    4  A    between atoms: C_11  and  C_12
REMARK    5  A    between atoms: C_18  and  C_19
REMARK    6  A    between atoms: C_21  and  O_22
REMARK                            x       y       z     vdW  Elec       q    Type
REMARK                         _______ _______ _______ _____ _____    ______ ____
ROOT
ATOM      1  N   UNL     1       2.278   8.385  18.739  0.00  0.00    +0.000 N 
ATOM      2  C   UNL     1       1.724   7.346  19.449  0.00  0.00    +0.000 A 
ATOM      3  C   UNL     1       2.424   6.205  19.135  0.00  0.00    +0.000 A 
ATOM      4  C   UNL     1       3.453   6.651  18.246  0.00  0.00    +0.000 A 
ATOM      5  N   UNL     1       3.307   7.960  17.965  0.00  0.00    +0.000 NA
ENDROOT
BRANCH   4   6
ATOM      6  C   UNL     1       4.580   5.889  17.692  0.00  0.00    +0.000 A 
ATOM      7  C   UNL     1       5.722   5.635  18.470  0.00  0.00    +0.000 A 
ATOM      8  C   UNL     1       6.779   4.893  17.952  0.00  0.00    +0.000 A 
ATOM      9  C   UNL     1       6.745   4.427  16.646  0.00  0.00    +0.000 A 
ATOM     10  C   UNL     1       5.634   4.707  15.854  0.00  0.00    +0.000 A 
ATOM     11 CL   UNL     1       5.600   4.168  14.219  0.00  0.00    +0.000 Cl
ATOM     12  C   UNL     1       4.550   5.424  16.369  0.00  0.00    +0.000 A 
BRANCH   8  13
ATOM     13  O   UNL     1       7.876   4.605  18.709  0.00  0.00    +0.000 OA
ATOM     14  H   UNL     1       8.673   4.934  18.261  0.00  0.00    +0.000 HD
ENDBRANCH   8  13
ENDBRANCH   4   6
BRANCH   1  19
ATOM     15  C   UNL     1       0.543  11.546  19.757  0.00  0.00    +0.000 A 
ATOM     16  C   UNL     1       1.082  12.431  18.821  0.00  0.00    +0.000 A 
ATOM     17  C   UNL     1       2.011  11.999  17.876  0.00  0.00    +0.000 A 
ATOM     18  C   UNL     1       2.412  10.667  17.856  0.00  0.00    +0.000 A 
ATOM     19  C   UNL     1       1.891   9.758  18.787  0.00  0.00    +0.000 A 
ATOM     20  C   UNL     1       0.965  10.206  19.750  0.00  0.00    +0.000 A 
BRANCH  15  23
ATOM     21  O   UNL     1       0.855  13.480  21.967  0.00  0.00    +0.000 OA
ATOM     22  C   UNL     1      -0.170  12.834  21.768  0.00  0.00    +0.000 C 
ATOM     23  N   UNL     1      -0.405  11.950  20.724  0.00  0.00    +0.000 N 
ATOM     24  H   UNL     1      -1.361  11.658  20.570  0.00  0.00    +0.000 HD
BRANCH  22  25
ATOM     25  C   UNL     1      -1.305  13.044  22.703  0.00  0.00    +0.000 A 
ATOM     26  C   UNL     1      -2.268  12.032  22.813  0.00  0.00    +0.000 A 
ATOM     27  C   UNL     1      -3.369  12.200  23.652  0.00  0.00    +0.000 A 
ATOM     28  C   UNL     1      -3.517  13.386  24.372  0.00  0.00    +0.000 A 
ATOM     29  C   UNL     1      -2.568  14.404  24.249  0.00  0.00    +0.000 A 
ATOM     30  C   UNL     1      -1.463  14.240  23.413  0.00  0.00    +0.000 A 
ENDBRANCH  22  25
ENDBRANCH  15  23
ENDBRANCH   1  19
BRANCH   3  31
ATOM     31  C   UNL     1       2.095   4.900  19.693  0.00  0.00    +0.000 A 
ATOM     32  C   UNL     1       1.594   3.884  18.877  0.00  0.00    +0.000 A 
ATOM     33  C   UNL     1       1.377   2.634  19.431  0.00  0.00    +0.000 A 
ATOM     34  N   UNL     1       1.587   2.344  20.731  0.00  0.00    +0.000 NA
ATOM     35  C   UNL     1       2.025   3.351  21.515  0.00  0.00    +0.000 A 
ATOM     36  C   UNL     1       2.295   4.627  21.049  0.00  0.00    +0.000 A 
ENDBRANCH   3  31
TORSDOF 6
ENDMDL
MODEL 6
REMARK VINA RESULT:      -9.0      2.358      2.953
REMARK  Name = 
REMARK  6 active torsions:
REMARK  status: ('A' for Active; 'I' for Inactive)
REMARK    1  A    between atoms: C_2  and  C_29
REMARK    2  A    between atoms: N_3  and  C_4
REMARK    3  A    between atoms: C_8  and  N_9
REMARK    4  A    between atoms: C_11  and  C_12
REMARK    5  A    between atoms: C_18  and  C_19
REMARK    6  A    between atoms: C_21  and  O_22
REMARK                            x       y       z     vdW  Elec       q    Type
REMARK                         _______ _______ _______ _____ _____    ______ ____
ROOT
ATOM      1  N   UNL     1       2.029   8.504  18.258  0.00  0.00    +0.000 N 
ATOM      2  C   UNL     1       1.476   7.318  18.681  0.00  0.00    +0.000 A 
ATOM      3  C   UNL     1       2.366   6.313  18.388  0.00  0.00    +0.000 A 
ATOM      4  C   UNL     1       3.494   6.989  17.823  0.00  0.00    +0.000 A 
ATOM      5  N   UNL     1       3.245   8.305  17.690  0.00  0.00    +0.000 NA
ENDROOT
BRANCH   4   6
ATOM      6  C   UNL     1       4.801   6.434  17.444  0.00  0.00    +0.000 A 
ATOM      7  C   UNL     1       5.071   6.092  16.108  0.00  0.00    +0.000 A 
ATOM      8  C   UNL     1       6.317   5.589  15.747  0.00  0.00    +0.000 A 
ATOM      9  C   UNL     1       7.299   5.374  16.702  0.00  0.00    +0.000 A 
ATOM     10  C   UNL     1       7.027   5.674  18.035  0.00  0.00    +0.000 A 
ATOM     11 CL   UNL     1       8.226   5.374  19.234  0.00  0.00    +0.000 Cl
ATOM     12  C   UNL     1       5.792   6.210  18.411  0.00  0.00    +0.000 A 
BRANCH   8  13
ATOM     13  O   UNL     1       6.606   5.291  14.448  0.00  0.00    +0.000 OA
ATOM     14  H   UNL     1       6.062   5.842  13.861  0.00  0.00    +0.000 HD
ENDBRANCH   8  13
ENDBRANCH   4   6
BRANCH   1  19
ATOM     15  C   UNL     1      -0.468  11.259  18.707  0.00  0.00    +0.000 A 
ATOM     16  C   UNL     1       0.370  12.370  18.588  0.00  0.00    +0.000 A 
ATOM     17  C   UNL     1       1.739  12.216  18.375  0.00  0.00    +0.000 A 
ATOM     18  C   UNL     1       2.286  10.941  18.276  0.00  0.00    +0.000 A 
ATOM     19  C   UNL     1       1.468   9.808  18.397  0.00  0.00    +0.000 A 
ATOM     20  C   UNL     1       0.089   9.972  18.630  0.00  0.00    +0.000 A 
BRANCH  15  23
ATOM     21  O   UNL     1      -2.650  11.293  16.717  0.00  0.00    +0.000 OA
ATOM     22  C   UNL     1      -2.828  11.437  17.923  0.00  0.00    +0.000 C 
ATOM     23  N   UNL     1      -1.861  11.381  18.918  0.00  0.00    +0.000 N 
ATOM     24  H   UNL     1      -2.183  11.305  19.874  0.00  0.00    +0.000 HD
BRANCH  22  25
ATOM     25  C   UNL     1      -4.222  11.644  18.391  0.00  0.00    +0.000 A 
ATOM     26  C   UNL     1      -4.420  12.294  19.618  0.00  0.00    +0.000 A 
ATOM     27  C   UNL     1      -5.710  12.480  20.113  0.00  0.00    +0.000 A 
ATOM     28  C   UNL     1      -6.804  12.004  19.391  0.00  0.00    +0.000 A 
ATOM     29  C   UNL     1      -6.610  11.340  18.178  0.00  0.00    +0.000 A 
ATOM     30  C   UNL     1      -5.320  11.153  17.676  0.00  0.00    +0.000 A 
ENDBRANCH  22  25
ENDBRANCH  15  23
ENDBRANCH   1  19
BRANCH   3  31
ATOM     31  C   UNL     1       2.097   4.910  18.680  0.00  0.00    +0.000 A 
ATOM     32  C   UNL     1       2.172   3.948  17.672  0.00  0.00    +0.000 A 
ATOM     33  C   UNL     1       1.994   2.617  18.011  0.00  0.00    +0.000 A 
ATOM     34  N   UNL     1       1.713   2.194  19.260  0.00  0.00    +0.000 NA
ATOM     35  C   UNL     1       1.595   3.143  20.212  0.00  0.00    +0.000 A 
ATOM     36  C   UNL     1       1.780   4.495  19.976  0.00  0.00    +0.000 A 
ENDBRANCH   3  31
TORSDOF 6
ENDMDL
MODEL 7
REMARK VINA RESULT:      -8.8      3.046      5.443
REMARK  Name = 
REMARK  6 active torsions:
REMARK  status: ('A' for Active; 'I' for Inactive)
REMARK    1  A    between atoms: C_2  and  C_29
REMARK    2  A    between atoms: N_3  and  C_4
REMARK    3  A    between atoms: C_8  and  N_9
REMARK    4  A    between atoms: C_11  and  C_12
REMARK    5  A    between atoms: C_18  and  C_19
REMARK    6  A    between atoms: C_21  and  O_22
REMARK                            x       y       z     vdW  Elec       q    Type
REMARK                         _______ _______ _______ _____ _____    ______ ____
ROOT
ATOM      1  N   UNL     1       2.150   8.164  18.756  0.00  0.00    +0.000 N 
ATOM      2  C   UNL     1       3.258   8.135  17.942  0.00  0.00    +0.000 A 
ATOM      3  C   UNL     1       3.717   6.840  17.906  0.00  0.00    +0.000 A 
ATOM      4  C   UNL     1       2.779   6.106  18.699  0.00  0.00    +0.000 A 
ATOM      5  N   UNL     1       1.878   6.934  19.261  0.00  0.00    +0.000 NA
ENDROOT
BRANCH   4   6
ATOM      6  C   UNL     1       2.691   4.654  18.908  0.00  0.00    +0.000 A 
ATOM      7  C   UNL     1       1.531   3.950  18.544  0.00  0.00    +0.000 A 
ATOM      8  C   UNL     1       1.458   2.572  18.720  0.00  0.00    +0.000 A 
ATOM      9  C   UNL     1       2.509   1.874  19.297  0.00  0.00    +0.000 A 
ATOM     10  C   UNL     1       3.647   2.570  19.697  0.00  0.00    +0.000 A 
ATOM     11 CL   UNL     1       4.941   1.719  20.450  0.00  0.00    +0.000 Cl
ATOM     12  C   UNL     1       3.750   3.949  19.498  0.00  0.00    +0.000 A 
BRANCH   8  13
ATOM     13  O   UNL     1       0.355   1.870  18.335  0.00  0.00    +0.000 OA
ATOM     14  H   UNL     1       0.541   1.406  17.501  0.00  0.00    +0.000 HD
ENDBRANCH   8  13
ENDBRANCH   4   6
BRANCH   1  19
ATOM     15  C   UNL     1       0.898  11.691  18.901  0.00  0.00    +0.000 A 
ATOM     16  C   UNL     1      -0.238  11.514  19.693  0.00  0.00    +0.000 A 
ATOM     17  C   UNL     1      -0.595  10.251  20.163  0.00  0.00    +0.000 A 
ATOM     18  C   UNL     1       0.188   9.146  19.846  0.00  0.00    +0.000 A 
ATOM     19  C   UNL     1       1.331   9.295  19.048  0.00  0.00    +0.000 A 
ATOM     20  C   UNL     1       1.676  10.571  18.562  0.00  0.00    +0.000 A 
BRANCH  15  23
ATOM     21  O   UNL     1       1.863  14.042  20.405  0.00  0.00    +0.000 OA
ATOM     22  C   UNL     1       1.691  14.037  19.190  0.00  0.00    +0.000 C 
ATOM     23  N   UNL     1       1.291  12.959  18.413  0.00  0.00    +0.000 N 
ATOM     24  H   UNL     1       1.397  13.044  17.411  0.00  0.00    +0.000 HD
BRANCH  22  25
ATOM     25  C   UNL     1       1.983  15.291  18.450  0.00  0.00    +0.000 A 
ATOM     26  C   UNL     1       1.070  16.351  18.556  0.00  0.00    +0.000 A 
ATOM     27  C   UNL     1       1.287  17.535  17.852  0.00  0.00    +0.000 A 
ATOM     28  C   UNL     1       2.407  17.658  17.030  0.00  0.00    +0.000 A 
ATOM     29  C   UNL     1       3.307  16.597  16.908  0.00  0.00    +0.000 A 
ATOM     30  C   UNL     1       3.098  15.410  17.613  0.00  0.00    +0.000 A 
ENDBRANCH  22  25
ENDBRANCH  15  23
ENDBRANCH   1  19
BRANCH   3  31
ATOM     31  C   UNL     1       4.899   6.443  17.150  0.00  0.00    +0.000 A 
ATOM     32  C   UNL     1       6.155   6.961  17.473  0.00  0.00    +0.000 A 
ATOM     33  C   UNL     1       7.261   6.491  16.786  0.00  0.00    +0.000 A 
ATOM     34  N   UNL     1       7.197   5.583  15.792  0.00  0.00    +0.000 NA
ATOM     35  C   UNL     1       5.969   5.130  15.461  0.00  0.00    +0.000 A 
ATOM     36  C   UNL     1       4.806   5.520  16.105  0.00  0.00    +0.000 A 
ENDBRANCH   3  31
TORSDOF 6
ENDMDL
MODEL 8
REMARK VINA RESULT:      -8.8      2.693      4.406
REMARK  Name = 
REMARK  6 active torsions:
REMARK  status: ('A' for Active; 'I' for Inactive)
REMARK    1  A    between atoms: C_2  and  C_29
REMARK    2  A    between atoms: N_3  and  C_4
REMARK    3  A    between atoms: C_8  and  N_9
REMARK    4  A    between atoms: C_11  and  C_12
REMARK    5  A    between atoms: C_18  and  C_19
REMARK    6  A    between atoms: C_21  and  O_22
REMARK                            x       y       z     vdW  Elec       q    Type
REMARK                         _______ _______ _______ _____ _____    ______ ____
ROOT
ATOM      1  N   UNL     1       2.292   8.893  18.373  0.00  0.00    +0.000 N 
ATOM      2  C   UNL     1       3.387   8.629  17.584  0.00  0.00    +0.000 A 
ATOM      3  C   UNL     1       3.735   7.313  17.778  0.00  0.00    +0.000 A 
ATOM      4  C   UNL     1       2.744   6.812  18.682  0.00  0.00    +0.000 A 
ATOM      5  N   UNL     1       1.921   7.798  19.084  0.00  0.00    +0.000 NA
ENDROOT
BRANCH   4   6
ATOM      6  C   UNL     1       2.536   5.432  19.141  0.00  0.00    +0.000 A 
ATOM      7  C   UNL     1       2.450   5.141  20.513  0.00  0.00    +0.000 A 
ATOM      8  C   UNL     1       2.229   3.838  20.946  0.00  0.00    +0.000 A 
ATOM      9  C   UNL     1       2.134   2.795  20.036  0.00  0.00    +0.000 A 
ATOM     10  C   UNL     1       2.257   3.068  18.676  0.00  0.00    +0.000 A 
ATOM     11 CL   UNL     1       2.180   1.775  17.541  0.00  0.00    +0.000 Cl
ATOM     12  C   UNL     1       2.447   4.376  18.222  0.00  0.00    +0.000 A 
BRANCH   8  13
ATOM     13  O   UNL     1       2.104   3.547  22.272  0.00  0.00    +0.000 OA
ATOM     14  H   UNL     1       2.962   3.671  22.712  0.00  0.00    +0.000 HD
ENDBRANCH   8  13
ENDBRANCH   4   6
BRANCH   1  19
ATOM     15  C   UNL     1      -0.522  11.337  18.749  0.00  0.00    +0.000 A 
ATOM     16  C   UNL     1       0.166  12.534  18.543  0.00  0.00    +0.000 A 
ATOM     17  C   UNL     1       1.538  12.540  18.295  0.00  0.00    +0.000 A 
ATOM     18  C   UNL     1       2.239  11.340  18.249  0.00  0.00    +0.000 A 
ATOM     19  C   UNL     1       1.574  10.123  18.458  0.00  0.00    +0.000 A 
ATOM     20  C   UNL     1       0.191  10.126  18.725  0.00  0.00    +0.000 A 
BRANCH  15  23
ATOM     21  O   UNL     1      -2.756  11.538  16.828  0.00  0.00    +0.000 OA
ATOM     22  C   UNL     1      -2.910  11.446  18.042  0.00  0.00    +0.000 C 
ATOM     23  N   UNL     1      -1.914  11.295  18.996  0.00  0.00    +0.000 N 
ATOM     24  H   UNL     1      -2.200  11.020  19.927  0.00  0.00    +0.000 HD
BRANCH  22  25
ATOM     25  C   UNL     1      -4.303  11.441  18.558  0.00  0.00    +0.000 A 
ATOM     26  C   UNL     1      -4.600  12.242  19.669  0.00  0.00    +0.000 A 
ATOM     27  C   UNL     1      -5.886  12.244  20.209  0.00  0.00    +0.000 A 
ATOM     28  C   UNL     1      -6.873  11.434  19.648  0.00  0.00    +0.000 A 
ATOM     29  C   UNL     1      -6.575  10.620  18.553  0.00  0.00    +0.000 A 
ATOM     30  C   UNL     1      -5.290  10.617  18.007  0.00  0.00    +0.000 A 
ENDBRANCH  22  25
ENDBRANCH  15  23
ENDBRANCH   1  19
BRANCH   3  31
ATOM     31  C   UNL     1       4.872   6.692  17.111  0.00  0.00    +0.000 A 
ATOM     32  C   UNL     1       4.740   6.167  15.824  0.00  0.00    +0.000 A 
ATOM     33  C   UNL     1       5.866   5.664  15.195  0.00  0.00    +0.000 A 
ATOM     34  N   UNL     1       7.086   5.617  15.767  0.00  0.00    +0.000 NA
ATOM     35  C   UNL     1       7.184   6.083  17.030  0.00  0.00    +0.000 A 
ATOM     36  C   UNL     1       6.122   6.628  17.733  0.00  0.00    +0.000 A 
ENDBRANCH   3  31
TORSDOF 6
ENDMDL
MODEL 9
REMARK VINA RESULT:      -8.8      0.766      1.262
REMARK  Name = 
REMARK  6 active torsions:
REMARK  status: ('A' for Active; 'I' for Inactive)
REMARK    1  A    between atoms: C_2  and  C_29
REMARK    2  A    between atoms: N_3  and  C_4
REMARK    3  A    between atoms: C_8  and  N_9
REMARK    4  A    between atoms: C_11  and  C_12
REMARK    5  A    between atoms: C_18  and  C_19
REMARK    6  A    between atoms: C_21  and  O_22
REMARK                            x       y       z     vdW  Elec       q    Type
REMARK                         _______ _______ _______ _____ _____    ______ ____
ROOT
ATOM      1  N   UNL     1       2.206   8.398  18.516  0.00  0.00    +0.000 N 
ATOM      2  C   UNL     1       1.669   7.364  19.248  0.00  0.00    +0.000 A 
ATOM      3  C   UNL     1       2.415   6.238  18.989  0.00  0.00    +0.000 A 
ATOM      4  C   UNL     1       3.449   6.690  18.110  0.00  0.00    +0.000 A 
ATOM      5  N   UNL     1       3.267   7.982  17.781  0.00  0.00    +0.000 NA
ENDROOT
BRANCH   4   6
ATOM      6  C   UNL     1       4.615   5.948  17.608  0.00  0.00    +0.000 A 
ATOM      7  C   UNL     1       5.734   5.735  18.430  0.00  0.00    +0.000 A 
ATOM      8  C   UNL     1       6.826   5.012  17.962  0.00  0.00    +0.000 A 
ATOM      9  C   UNL     1       6.851   4.527  16.662  0.00  0.00    +0.000 A 
ATOM     10  C   UNL     1       5.763   4.767  15.827  0.00  0.00    +0.000 A 
ATOM     11 CL   UNL     1       5.801   4.203  14.201  0.00  0.00    +0.000 Cl
ATOM     12  C   UNL     1       4.643   5.463  16.292  0.00  0.00    +0.000 A 
BRANCH   8  13
ATOM     13  O   UNL     1       7.902   4.764  18.762  0.00  0.00    +0.000 OA
ATOM     14  H   UNL     1       8.586   5.436  18.602  0.00  0.00    +0.000 HD
ENDBRANCH   8  13
ENDBRANCH   4   6
BRANCH   1  19
ATOM     15  C   UNL     1       0.014  11.422  18.814  0.00  0.00    +0.000 A 
ATOM     16  C   UNL     1       0.913  12.414  18.415  0.00  0.00    +0.000 A 
ATOM     17  C   UNL     1       2.224  12.095  18.065  0.00  0.00    +0.000 A 
ATOM     18  C   UNL     1       2.651  10.773  18.108  0.00  0.00    +0.000 A 
ATOM     19  C   UNL     1       1.772   9.757  18.509  0.00  0.00    +0.000 A 
ATOM     20  C   UNL     1       0.454  10.089  18.879  0.00  0.00    +0.000 A 
BRANCH  15  23
ATOM     21  O   UNL     1      -1.007  12.854  21.186  0.00  0.00    +0.000 OA
ATOM     22  C   UNL     1      -1.731  12.350  20.333  0.00  0.00    +0.000 C 
ATOM     23  N   UNL     1      -1.323  11.710  19.170  0.00  0.00    +0.000 N 
ATOM     24  H   UNL     1      -2.027  11.536  18.465  0.00  0.00    +0.000 HD
BRANCH  22  25
ATOM     25  C   UNL     1      -3.199  12.471  20.520  0.00  0.00    +0.000 A 
ATOM     26  C   UNL     1      -3.680  12.801  21.795  0.00  0.00    +0.000 A 
ATOM     27  C   UNL     1      -5.052  12.891  22.025  0.00  0.00    +0.000 A 
ATOM     28  C   UNL     1      -5.947  12.639  20.986  0.00  0.00    +0.000 A 
ATOM     29  C   UNL     1      -5.472  12.291  19.720  0.00  0.00    +0.000 A 
ATOM     30  C   UNL     1      -4.099  12.202  19.482  0.00  0.00    +0.000 A 
ENDBRANCH  22  25
ENDBRANCH  15  23
ENDBRANCH   1  19
BRANCH   3  31
ATOM     31  C   UNL     1       2.115   4.941  19.583  0.00  0.00    +0.000 A 
ATOM     32  C   UNL     1       2.369   4.704  20.935  0.00  0.00    +0.000 A 
ATOM     33  C   UNL     1       1.990   3.488  21.478  0.00  0.00    +0.000 A 
ATOM     34  N   UNL     1       1.418   2.496  20.766  0.00  0.00    +0.000 NA
ATOM     35  C   UNL     1       1.225   2.725  19.450  0.00  0.00    +0.000 A 
ATOM     36  C   UNL     1       1.547   3.917  18.822  0.00  0.00    +0.000 A 
ENDBRANCH   3  31
TORSDOF 6
ENDMDL
