MODEL 1
REMARK VINA RESULT:      -7.7      0.000      0.000
REMARK  Name = 
REMARK  5 active torsions:
REMARK  status: ('A' for Active; 'I' for Inactive)
REMARK    1  A    between atoms: C_1  and  O_2
REMARK    2  A    between atoms: O_2  and  C_3
REMARK    3  A    between atoms: C_3  and  C_5
REMARK    4  A    between atoms: C_11  and  C_12
REMARK    5  A    between atoms: C_15  and  C_16
REMARK                            x       y       z     vdW  Elec       q    Type
REMARK                         _______ _______ _______ _____ _____    ______ ____
ROOT
ATOM      1  C   UNL     1       6.131   3.689  12.581  0.00  0.00    +0.000 A 
ATOM      2  C   UNL     1       7.221   4.299  11.932  0.00  0.00    +0.000 A 
ATOM      3  C   UNL     1       8.043   5.204  12.610  0.00  0.00    +0.000 A 
ATOM      4  C   UNL     1       7.804   5.538  13.947  0.00  0.00    +0.000 A 
ATOM      5  C   UNL     1       6.706   4.930  14.562  0.00  0.00    +0.000 A 
ATOM      6  N   UNL     1       6.181   5.044  15.827  0.00  0.00    +0.000 N 
ATOM      7  C   UNL     1       5.063   4.250  15.917  0.00  0.00    +0.000 A 
ATOM      8  N   UNL     1       4.853   3.641  14.767  0.00  0.00    +0.000 NA
ATOM      9  C   UNL     1       5.865   4.026  13.919  0.00  0.00    +0.000 A 
ATOM     10  H   UNL     1       6.532   5.646  16.555  0.00  0.00    +0.000 HD
ENDROOT
BRANCH   7  11
ATOM     11  C   UNL     1       4.209   4.147  17.100  0.00  0.00    +0.000 A 
ATOM     12  C   UNL     1       3.989   2.885  17.670  0.00  0.00    +0.000 A 
ATOM     13  C   UNL     1       3.162   2.733  18.785  0.00  0.00    +0.000 A 
ATOM     14  C   UNL     1       2.544   3.848  19.364  0.00  0.00    +0.000 A 
ATOM     15  C   UNL     1       2.782   5.115  18.810  0.00  0.00    +0.000 A 
ATOM     16  C   UNL     1       3.606   5.265  17.689  0.00  0.00    +0.000 A 
BRANCH  14  17
ATOM     17  C   UNL     1       1.640   3.704  20.563  0.00  0.00    +0.000 C 
ATOM     18  F   UNL     1       0.466   4.387  20.450  0.00  0.00    +0.000 F 
ATOM     19  F   UNL     1       1.298   2.409  20.805  0.00  0.00    +0.000 F 
ATOM     20  F   UNL     1       2.224   4.155  21.708  0.00  0.00    +0.000 F 
ENDBRANCH  14  17
ENDBRANCH   7  11
BRANCH   1  21
ATOM     21  C   UNL     1       5.282   2.746  11.832  0.00  0.00    +0.000 C 
ATOM     22  O   UNL     1       5.683   1.666  11.423  0.00  0.00    +0.000 OA
BRANCH  21  24
ATOM     23  C   UNL     1       3.618   3.583  10.413  0.00  0.00    +0.000 C 
ATOM     24  O   UNL     1       4.018   3.218  11.731  0.00  0.00    +0.000 OA
ENDBRANCH  21  24
ENDBRANCH   1  21
TORSDOF 4
ENDMDL
MODEL 2
REMARK VINA RESULT:      -7.7      4.559      6.267
REMARK  Name = 
REMARK  5 active torsions:
REMARK  status: ('A' for Active; 'I' for Inactive)
REMARK    1  A    between atoms: C_1  and  O_2
REMARK    2  A    between atoms: O_2  and  C_3
REMARK    3  A    between atoms: C_3  and  C_5
REMARK    4  A    between atoms: C_11  and  C_12
REMARK    5  A    between atoms: C_15  and  C_16
REMARK                            x       y       z     vdW  Elec       q    Type
REMARK                         _______ _______ _______ _____ _____    ______ ____
ROOT
ATOM      1  C   UNL     1       3.831   4.005  17.296  0.00  0.00    +0.000 A 
ATOM      2  C   UNL     1       4.811   3.791  16.308  0.00  0.00    +0.000 A 
ATOM      3  C   UNL     1       5.495   4.866  15.734  0.00  0.00    +0.000 A 
ATOM      4  C   UNL     1       5.222   6.185  16.113  0.00  0.00    +0.000 A 
ATOM      5  C   UNL     1       4.233   6.370  17.084  0.00  0.00    +0.000 A 
ATOM      6  N   UNL     1       3.711   7.503  17.659  0.00  0.00    +0.000 N 
ATOM      7  C   UNL     1       2.725   7.137  18.544  0.00  0.00    +0.000 A 
ATOM      8  N   UNL     1       2.596   5.825  18.554  0.00  0.00    +0.000 NA
ATOM      9  C   UNL     1       3.531   5.325  17.677  0.00  0.00    +0.000 A 
ATOM     10  H   UNL     1       3.974   8.449  17.435  0.00  0.00    +0.000 HD
ENDROOT
BRANCH   7  11
ATOM     11  C   UNL     1       1.907   8.075  19.313  0.00  0.00    +0.000 A 
ATOM     12  C   UNL     1       1.411   9.221  18.675  0.00  0.00    +0.000 A 
ATOM     13  C   UNL     1       0.645  10.158  19.371  0.00  0.00    +0.000 A 
ATOM     14  C   UNL     1       0.347   9.961  20.726  0.00  0.00    +0.000 A 
ATOM     15  C   UNL     1       0.823   8.803  21.360  0.00  0.00    +0.000 A 
ATOM     16  C   UNL     1       1.594   7.868  20.661  0.00  0.00    +0.000 A 
BRANCH  14  17
ATOM     17  C   UNL     1      -0.470  10.965  21.500  0.00  0.00    +0.000 C 
ATOM     18  F   UNL     1      -0.948  10.489  22.683  0.00  0.00    +0.000 F 
ATOM     19  F   UNL     1       0.238  12.088  21.805  0.00  0.00    +0.000 F 
ATOM     20  F   UNL     1      -1.560  11.391  20.802  0.00  0.00    +0.000 F 
ENDBRANCH  14  17
ENDBRANCH   7  11
BRANCH   1  21
ATOM     21  C   UNL     1       3.125   2.849  17.874  0.00  0.00    +0.000 C 
ATOM     22  O   UNL     1       1.974   2.556  17.585  0.00  0.00    +0.000 OA
BRANCH  21  24
ATOM     23  C   UNL     1       3.887   2.530  20.065  0.00  0.00    +0.000 C 
ATOM     24  O   UNL     1       3.945   2.150  18.692  0.00  0.00    +0.000 OA
ENDBRANCH  21  24
ENDBRANCH   1  21
TORSDOF 4
ENDMDL
MODEL 3
REMARK VINA RESULT:      -7.7      4.433      6.038
REMARK  Name = 
REMARK  5 active torsions:
REMARK  status: ('A' for Active; 'I' for Inactive)
REMARK    1  A    between atoms: C_1  and  O_2
REMARK    2  A    between atoms: O_2  and  C_3
REMARK    3  A    between atoms: C_3  and  C_5
REMARK    4  A    between atoms: C_11  and  C_12
REMARK    5  A    between atoms: C_15  and  C_16
REMARK                            x       y       z     vdW  Elec       q    Type
REMARK                         _______ _______ _______ _____ _____    ______ ____
ROOT
ATOM      1  C   UNL     1       4.060   3.866  17.193  0.00  0.00    +0.000 A 
ATOM      2  C   UNL     1       5.110   3.573  16.303  0.00  0.00    +0.000 A 
ATOM      3  C   UNL     1       5.870   4.597  15.731  0.00  0.00    +0.000 A 
ATOM      4  C   UNL     1       5.608   5.941  16.017  0.00  0.00    +0.000 A 
ATOM      5  C   UNL     1       4.549   6.205  16.890  0.00  0.00    +0.000 A 
ATOM      6  N   UNL     1       4.016   7.380  17.359  0.00  0.00    +0.000 N 
ATOM      7  C   UNL     1       2.951   7.089  18.178  0.00  0.00    +0.000 A 
ATOM      8  N   UNL     1       2.782   5.784  18.246  0.00  0.00    +0.000 NA
ATOM      9  C   UNL     1       3.770   5.212  17.478  0.00  0.00    +0.000 A 
ATOM     10  H   UNL     1       4.325   8.306  17.109  0.00  0.00    +0.000 HD
ENDROOT
BRANCH   7  11
ATOM     11  C   UNL     1       2.102   8.089  18.826  0.00  0.00    +0.000 A 
ATOM     12  C   UNL     1       1.779   7.928  20.181  0.00  0.00    +0.000 A 
ATOM     13  C   UNL     1       0.953   8.842  20.838  0.00  0.00    +0.000 A 
ATOM     14  C   UNL     1       0.439   9.950  20.152  0.00  0.00    +0.000 A 
ATOM     15  C   UNL     1       0.781  10.127  18.802  0.00  0.00    +0.000 A 
ATOM     16  C   UNL     1       1.605   9.206  18.145  0.00  0.00    +0.000 A 
BRANCH  14  17
ATOM     17  C   UNL     1      -0.463  10.945  20.840  0.00  0.00    +0.000 C 
ATOM     18  F   UNL     1       0.144  12.132  21.123  0.00  0.00    +0.000 F 
ATOM     19  F   UNL     1      -1.561  11.253  20.096  0.00  0.00    +0.000 F 
ATOM     20  F   UNL     1      -0.937  10.476  22.028  0.00  0.00    +0.000 F 
ENDBRANCH  14  17
ENDBRANCH   7  11
BRANCH   1  21
ATOM     21  C   UNL     1       3.275   2.762  17.771  0.00  0.00    +0.000 C 
ATOM     22  O   UNL     1       2.148   2.475  17.394  0.00  0.00    +0.000 OA
BRANCH  21  24
ATOM     23  C   UNL     1       3.771   2.519  20.046  0.00  0.00    +0.000 C 
ATOM     24  O   UNL     1       3.998   2.099  18.703  0.00  0.00    +0.000 OA
ENDBRANCH  21  24
ENDBRANCH   1  21
TORSDOF 4
ENDMDL
MODEL 4
REMARK VINA RESULT:      -7.7      4.655      6.210
REMARK  Name = 
REMARK  5 active torsions:
REMARK  status: ('A' for Active; 'I' for Inactive)
REMARK    1  A    between atoms: C_1  and  O_2
REMARK    2  A    between atoms: O_2  and  C_3
REMARK    3  A    between atoms: C_3  and  C_5
REMARK    4  A    between atoms: C_11  and  C_12
REMARK    5  A    between atoms: C_15  and  C_16
REMARK                            x       y       z     vdW  Elec       q    Type
REMARK                         _______ _______ _______ _____ _____    ______ ____
ROOT
ATOM      1  C   UNL     1       3.758   4.013  17.510  0.00  0.00    +0.000 A 
ATOM      2  C   UNL     1       4.712   3.745  16.510  0.00  0.00    +0.000 A 
ATOM      3  C   UNL     1       5.368   4.788  15.849  0.00  0.00    +0.000 A 
ATOM      4  C   UNL     1       5.093   6.125  16.153  0.00  0.00    +0.000 A 
ATOM      5  C   UNL     1       4.130   6.363  17.138  0.00  0.00    +0.000 A 
ATOM      6  N   UNL     1       3.611   7.525  17.655  0.00  0.00    +0.000 N 
ATOM      7  C   UNL     1       2.655   7.207  18.590  0.00  0.00    +0.000 A 
ATOM      8  N   UNL     1       2.540   5.898  18.685  0.00  0.00    +0.000 NA
ATOM      9  C   UNL     1       3.455   5.351  17.815  0.00  0.00    +0.000 A 
ATOM     10  H   UNL     1       3.859   8.458  17.365  0.00  0.00    +0.000 HD
ENDROOT
BRANCH   7  11
ATOM     11  C   UNL     1       1.849   8.184  19.321  0.00  0.00    +0.000 A 
ATOM     12  C   UNL     1       1.538   7.935  20.666  0.00  0.00    +0.000 A 
ATOM     13  C   UNL     1       0.752   8.826  21.400  0.00  0.00    +0.000 A 
ATOM     14  C   UNL     1       0.269   9.998  20.805  0.00  0.00    +0.000 A 
ATOM     15  C   UNL     1       0.600  10.262  19.466  0.00  0.00    +0.000 A 
ATOM     16  C   UNL     1       1.383   9.365  18.731  0.00  0.00    +0.000 A 
BRANCH  14  17
ATOM     17  C   UNL     1      -0.589  10.970  21.576  0.00  0.00    +0.000 C 
ATOM     18  F   UNL     1      -1.636  11.466  20.860  0.00  0.00    +0.000 F 
ATOM     19  F   UNL     1      -1.131  10.411  22.694  0.00  0.00    +0.000 F 
ATOM     20  F   UNL     1       0.115  12.053  22.005  0.00  0.00    +0.000 F 
ENDBRANCH  14  17
ENDBRANCH   7  11
BRANCH   1  21
ATOM     21  C   UNL     1       3.081   2.889  18.179  0.00  0.00    +0.000 C 
ATOM     22  O   UNL     1       3.599   2.233  19.072  0.00  0.00    +0.000 OA
BRANCH  21  24
ATOM     23  C   UNL     1       0.852   2.398  18.701  0.00  0.00    +0.000 C 
ATOM     24  O   UNL     1       1.819   2.746  17.713  0.00  0.00    +0.000 OA
ENDBRANCH  21  24
ENDBRANCH   1  21
TORSDOF 4
ENDMDL
MODEL 5
REMARK VINA RESULT:      -7.7      0.318      1.053
REMARK  Name = 
REMARK  5 active torsions:
REMARK  status: ('A' for Active; 'I' for Inactive)
REMARK    1  A    between atoms: C_1  and  O_2
REMARK    2  A    between atoms: O_2  and  C_3
REMARK    3  A    between atoms: C_3  and  C_5
REMARK    4  A    between atoms: C_11  and  C_12
REMARK    5  A    between atoms: C_15  and  C_16
REMARK                            x       y       z     vdW  Elec       q    Type
REMARK                         _______ _______ _______ _____ _____    ______ ____
ROOT
ATOM      1  C   UNL     1       6.117   3.696  12.581  0.00  0.00    +0.000 A 
ATOM      2  C   UNL     1       7.215   4.295  11.935  0.00  0.00    +0.000 A 
ATOM      3  C   UNL     1       8.041   5.195  12.614  0.00  0.00    +0.000 A 
ATOM      4  C   UNL     1       7.798   5.536  13.949  0.00  0.00    +0.000 A 
ATOM      5  C   UNL     1       6.692   4.940  14.561  0.00  0.00    +0.000 A 
ATOM      6  N   UNL     1       6.162   5.064  15.822  0.00  0.00    +0.000 N 
ATOM      7  C   UNL     1       5.037   4.279  15.910  0.00  0.00    +0.000 A 
ATOM      8  N   UNL     1       4.827   3.668  14.761  0.00  0.00    +0.000 NA
ATOM      9  C   UNL     1       5.847   4.041  13.916  0.00  0.00    +0.000 A 
ATOM     10  H   UNL     1       6.514   5.665  16.550  0.00  0.00    +0.000 HD
ENDROOT
BRANCH   7  11
ATOM     11  C   UNL     1       4.176   4.188  17.088  0.00  0.00    +0.000 A 
ATOM     12  C   UNL     1       3.554   5.352  17.564  0.00  0.00    +0.000 A 
ATOM     13  C   UNL     1       2.741   5.322  18.699  0.00  0.00    +0.000 A 
ATOM     14  C   UNL     1       2.522   4.118  19.379  0.00  0.00    +0.000 A 
ATOM     15  C   UNL     1       3.123   2.947  18.891  0.00  0.00    +0.000 A 
ATOM     16  C   UNL     1       3.942   2.981  17.757  0.00  0.00    +0.000 A 
BRANCH  14  17
ATOM     17  C   UNL     1       1.655   4.065  20.613  0.00  0.00    +0.000 C 
ATOM     18  F   UNL     1       0.944   5.206  20.834  0.00  0.00    +0.000 F 
ATOM     19  F   UNL     1       0.741   3.057  20.564  0.00  0.00    +0.000 F 
ATOM     20  F   UNL     1       2.382   3.854  21.745  0.00  0.00    +0.000 F 
ENDBRANCH  14  17
ENDBRANCH   7  11
BRANCH   1  21
ATOM     21  C   UNL     1       5.264   2.758  11.831  0.00  0.00    +0.000 C 
ATOM     22  O   UNL     1       5.659   1.675  11.425  0.00  0.00    +0.000 OA
BRANCH  21  24
ATOM     23  C   UNL     1       3.618   3.631  10.412  0.00  0.00    +0.000 C 
ATOM     24  O   UNL     1       4.003   3.238  11.728  0.00  0.00    +0.000 OA
ENDBRANCH  21  24
ENDBRANCH   1  21
TORSDOF 4
ENDMDL
MODEL 6
REMARK VINA RESULT:      -7.7      4.698      6.375
REMARK  Name = 
REMARK  5 active torsions:
REMARK  status: ('A' for Active; 'I' for Inactive)
REMARK    1  A    between atoms: C_1  and  O_2
REMARK    2  A    between atoms: O_2  and  C_3
REMARK    3  A    between atoms: C_3  and  C_5
REMARK    4  A    between atoms: C_11  and  C_12
REMARK    5  A    between atoms: C_15  and  C_16
REMARK                            x       y       z     vdW  Elec       q    Type
REMARK                         _______ _______ _______ _____ _____    ______ ____
ROOT
ATOM      1  C   UNL     1       3.711   3.954  17.616  0.00  0.00    +0.000 A 
ATOM      2  C   UNL     1       4.646   3.710  16.592  0.00  0.00    +0.000 A 
ATOM      3  C   UNL     1       5.282   4.768  15.936  0.00  0.00    +0.000 A 
ATOM      4  C   UNL     1       5.005   6.098  16.269  0.00  0.00    +0.000 A 
ATOM      5  C   UNL     1       4.062   6.313  17.277  0.00  0.00    +0.000 A 
ATOM      6  N   UNL     1       3.548   7.463  17.826  0.00  0.00    +0.000 N 
ATOM      7  C   UNL     1       2.613   7.123  18.774  0.00  0.00    +0.000 A 
ATOM      8  N   UNL     1       2.507   5.811  18.849  0.00  0.00    +0.000 NA
ATOM      9  C   UNL     1       3.407   5.285  17.951  0.00  0.00    +0.000 A 
ATOM     10  H   UNL     1       3.784   8.402  17.547  0.00  0.00    +0.000 HD
ENDROOT
BRANCH   7  11
ATOM     11  C   UNL     1       1.817   8.082  19.539  0.00  0.00    +0.000 A 
ATOM     12  C   UNL     1       1.395   9.264  18.912  0.00  0.00    +0.000 A 
ATOM     13  C   UNL     1       0.653  10.222  19.607  0.00  0.00    +0.000 A 
ATOM     14  C   UNL     1       0.304  10.011  20.947  0.00  0.00    +0.000 A 
ATOM     15  C   UNL     1       0.705   8.818  21.569  0.00  0.00    +0.000 A 
ATOM     16  C   UNL     1       1.453   7.862  20.872  0.00  0.00    +0.000 A 
BRANCH  14  17
ATOM     17  C   UNL     1      -0.488  11.037  21.718  0.00  0.00    +0.000 C 
ATOM     18  F   UNL     1      -0.886  10.610  22.949  0.00  0.00    +0.000 F 
ATOM     19  F   UNL     1       0.213  12.185  21.929  0.00  0.00    +0.000 F 
ATOM     20  F   UNL     1      -1.625  11.408  21.066  0.00  0.00    +0.000 F 
ENDBRANCH  14  17
ENDBRANCH   7  11
BRANCH   1  21
ATOM     21  C   UNL     1       3.055   2.815  18.279  0.00  0.00    +0.000 C 
ATOM     22  O   UNL     1       3.560   2.201  19.208  0.00  0.00    +0.000 OA
BRANCH  21  24
ATOM     23  C   UNL     1       0.782   2.469  18.726  0.00  0.00    +0.000 C 
ATOM     24  O   UNL     1       1.822   2.606  17.761  0.00  0.00    +0.000 OA
ENDBRANCH  21  24
ENDBRANCH   1  21
TORSDOF 4
ENDMDL
MODEL 7
REMARK VINA RESULT:      -7.7      5.851      8.701
REMARK  Name = 
REMARK  5 active torsions:
REMARK  status: ('A' for Active; 'I' for Inactive)
REMARK    1  A    between atoms: C_1  and  O_2
REMARK    2  A    between atoms: O_2  and  C_3
REMARK    3  A    between atoms: C_3  and  C_5
REMARK    4  A    between atoms: C_11  and  C_12
REMARK    5  A    between atoms: C_15  and  C_16
REMARK                            x       y       z     vdW  Elec       q    Type
REMARK                         _______ _______ _______ _____ _____    ______ ____
ROOT
ATOM      1  C   UNL     1       0.191  10.004  19.736  0.00  0.00    +0.000 A 
ATOM      2  C   UNL     1      -0.354  10.233  21.014  0.00  0.00    +0.000 A 
ATOM      3  C   UNL     1       0.034   9.456  22.108  0.00  0.00    +0.000 A 
ATOM      4  C   UNL     1       0.966   8.422  21.968  0.00  0.00    +0.000 A 
ATOM      5  C   UNL     1       1.479   8.205  20.687  0.00  0.00    +0.000 A 
ATOM      6  N   UNL     1       2.374   7.283  20.199  0.00  0.00    +0.000 N 
ATOM      7  C   UNL     1       2.517   7.477  18.845  0.00  0.00    +0.000 A 
ATOM      8  N   UNL     1       1.751   8.475  18.453  0.00  0.00    +0.000 NA
ATOM      9  C   UNL     1       1.116   8.958  19.573  0.00  0.00    +0.000 A 
ATOM     10  H   UNL     1       2.818   6.555  20.736  0.00  0.00    +0.000 HD
ENDROOT
BRANCH   7  11
ATOM     11  C   UNL     1       3.352   6.654  17.971  0.00  0.00    +0.000 A 
ATOM     12  C   UNL     1       4.293   7.284  17.144  0.00  0.00    +0.000 A 
ATOM     13  C   UNL     1       5.097   6.544  16.274  0.00  0.00    +0.000 A 
ATOM     14  C   UNL     1       4.986   5.149  16.223  0.00  0.00    +0.000 A 
ATOM     15  C   UNL     1       4.061   4.514  17.068  0.00  0.00    +0.000 A 
ATOM     16  C   UNL     1       3.253   5.258  17.934  0.00  0.00    +0.000 A 
BRANCH  14  17
ATOM     17  C   UNL     1       5.838   4.332  15.284  0.00  0.00    +0.000 C 
ATOM     18  F   UNL     1       7.118   4.783  15.171  0.00  0.00    +0.000 F 
ATOM     19  F   UNL     1       5.932   3.029  15.668  0.00  0.00    +0.000 F 
ATOM     20  F   UNL     1       5.337   4.311  14.018  0.00  0.00    +0.000 F 
ENDBRANCH  14  17
ENDBRANCH   7  11
BRANCH   1  21
ATOM     21  C   UNL     1      -0.247  10.839  18.605  0.00  0.00    +0.000 C 
ATOM     22  O   UNL     1       0.041  12.022  18.497  0.00  0.00    +0.000 OA
BRANCH  21  24
ATOM     23  C   UNL     1      -2.345  10.308  17.711  0.00  0.00    +0.000 C 
ATOM     24  O   UNL     1      -0.935  10.100  17.704  0.00  0.00    +0.000 OA
ENDBRANCH  21  24
ENDBRANCH   1  21
TORSDOF 4
ENDMDL
MODEL 8
REMARK VINA RESULT:      -7.6      5.931      8.791
REMARK  Name = 
REMARK  5 active torsions:
REMARK  status: ('A' for Active; 'I' for Inactive)
REMARK    1  A    between atoms: C_1  and  O_2
REMARK    2  A    between atoms: O_2  and  C_3
REMARK    3  A    between atoms: C_3  and  C_5
REMARK    4  A    between atoms: C_11  and  C_12
REMARK    5  A    between atoms: C_15  and  C_16
REMARK                            x       y       z     vdW  Elec       q    Type
REMARK                         _______ _______ _______ _____ _____    ______ ____
ROOT
ATOM      1  C   UNL     1       0.252   9.983  19.696  0.00  0.00    +0.000 A 
ATOM      2  C   UNL     1      -0.309  10.199  20.969  0.00  0.00    +0.000 A 
ATOM      3  C   UNL     1       0.056   9.402  22.057  0.00  0.00    +0.000 A 
ATOM      4  C   UNL     1       0.980   8.361  21.915  0.00  0.00    +0.000 A 
ATOM      5  C   UNL     1       1.509   8.158  20.638  0.00  0.00    +0.000 A 
ATOM      6  N   UNL     1       2.402   7.235  20.149  0.00  0.00    +0.000 N 
ATOM      7  C   UNL     1       2.566   7.447  18.801  0.00  0.00    +0.000 A 
ATOM      8  N   UNL     1       1.816   8.458  18.412  0.00  0.00    +0.000 NA
ATOM      9  C   UNL     1       1.169   8.931  19.531  0.00  0.00    +0.000 A 
ATOM     10  H   UNL     1       2.831   6.495  20.682  0.00  0.00    +0.000 HD
ENDROOT
BRANCH   7  11
ATOM     11  C   UNL     1       3.406   6.629  17.927  0.00  0.00    +0.000 A 
ATOM     12  C   UNL     1       4.324   7.266  17.080  0.00  0.00    +0.000 A 
ATOM     13  C   UNL     1       5.132   6.530  16.210  0.00  0.00    +0.000 A 
ATOM     14  C   UNL     1       5.046   5.132  16.177  0.00  0.00    +0.000 A 
ATOM     15  C   UNL     1       4.145   4.491  17.042  0.00  0.00    +0.000 A 
ATOM     16  C   UNL     1       3.333   5.231  17.909  0.00  0.00    +0.000 A 
BRANCH  14  17
ATOM     17  C   UNL     1       5.902   4.319  15.238  0.00  0.00    +0.000 C 
ATOM     18  F   UNL     1       7.192   4.750  15.159  0.00  0.00    +0.000 F 
ATOM     19  F   UNL     1       5.966   3.007  15.597  0.00  0.00    +0.000 F 
ATOM     20  F   UNL     1       5.425   4.334  13.963  0.00  0.00    +0.000 F 
ENDBRANCH  14  17
ENDBRANCH   7  11
BRANCH   1  21
ATOM     21  C   UNL     1      -0.161  10.839  18.571  0.00  0.00    +0.000 C 
ATOM     22  O   UNL     1      -1.077  10.552  17.814  0.00  0.00    +0.000 OA
BRANCH  21  24
ATOM     23  C   UNL     1      -0.207  13.180  18.616  0.00  0.00    +0.000 C 
ATOM     24  O   UNL     1       0.563  11.982  18.550  0.00  0.00    +0.000 OA
ENDBRANCH  21  24
ENDBRANCH   1  21
TORSDOF 4
ENDMDL
MODEL 9
REMARK VINA RESULT:      -7.6      5.925      8.730
REMARK  Name = 
REMARK  5 active torsions:
REMARK  status: ('A' for Active; 'I' for Inactive)
REMARK    1  A    between atoms: C_1  and  O_2
REMARK    2  A    between atoms: O_2  and  C_3
REMARK    3  A    between atoms: C_3  and  C_5
REMARK    4  A    between atoms: C_11  and  C_12
REMARK    5  A    between atoms: C_15  and  C_16
REMARK                            x       y       z     vdW  Elec       q    Type
REMARK                         _______ _______ _______ _____ _____    ______ ____
ROOT
ATOM      1  C   UNL     1       0.193   9.981  19.685  0.00  0.00    +0.000 A 
ATOM      2  C   UNL     1      -0.358  10.192  20.963  0.00  0.00    +0.000 A 
ATOM      3  C   UNL     1       0.039   9.411  22.052  0.00  0.00    +0.000 A 
ATOM      4  C   UNL     1       0.987   8.392  21.905  0.00  0.00    +0.000 A 
ATOM      5  C   UNL     1       1.505   8.193  20.623  0.00  0.00    +0.000 A 
ATOM      6  N   UNL     1       2.414   7.289  20.130  0.00  0.00    +0.000 N 
ATOM      7  C   UNL     1       2.557   7.495  18.778  0.00  0.00    +0.000 A 
ATOM      8  N   UNL     1       1.778   8.485  18.392  0.00  0.00    +0.000 NA
ATOM      9  C   UNL     1       1.133   8.950  19.515  0.00  0.00    +0.000 A 
ATOM     10  H   UNL     1       2.868   6.563  20.662  0.00  0.00    +0.000 HD
ENDROOT
BRANCH   7  11
ATOM     11  C   UNL     1       3.406   6.692  17.899  0.00  0.00    +0.000 A 
ATOM     12  C   UNL     1       3.236   5.300  17.881  0.00  0.00    +0.000 A 
ATOM     13  C   UNL     1       4.038   4.487  17.076  0.00  0.00    +0.000 A 
ATOM     14  C   UNL     1       5.023   5.055  16.258  0.00  0.00    +0.000 A 
ATOM     15  C   UNL     1       5.179   6.450  16.257  0.00  0.00    +0.000 A 
ATOM     16  C   UNL     1       4.378   7.261  17.068  0.00  0.00    +0.000 A 
BRANCH  14  17
ATOM     17  C   UNL     1       5.907   4.195  15.389  0.00  0.00    +0.000 C 
ATOM     18  F   UNL     1       5.888   2.874  15.724  0.00  0.00    +0.000 F 
ATOM     19  F   UNL     1       5.558   4.252  14.074  0.00  0.00    +0.000 F 
ATOM     20  F   UNL     1       7.213   4.575  15.445  0.00  0.00    +0.000 F 
ENDBRANCH  14  17
ENDBRANCH   7  11
BRANCH   1  21
ATOM     21  C   UNL     1      -0.255  10.818  18.559  0.00  0.00    +0.000 C 
ATOM     22  O   UNL     1      -1.118  10.467  17.767  0.00  0.00    +0.000 OA
BRANCH  21  24
ATOM     23  C   UNL     1      -0.500  13.146  18.487  0.00  0.00    +0.000 C 
ATOM     24  O   UNL     1       0.368  12.019  18.580  0.00  0.00    +0.000 OA
ENDBRANCH  21  24
ENDBRANCH   1  21
TORSDOF 4
ENDMDL
