MODEL 1
REMARK VINA RESULT:      -8.5      0.000      0.000
REMARK  Name = 
REMARK  7 active torsions:
REMARK  status: ('A' for Active; 'I' for Inactive)
REMARK    1  A    between atoms: C_1  and  C_2
REMARK    2  A    between atoms: C_4  and  C_5
REMARK    3  A    between atoms: C_7  and  N_8
REMARK    4  A    between atoms: N_8  and  C_9
REMARK    5  A    between atoms: N_8  and  S_19
REMARK    6  A    between atoms: C_9  and  C_10
REMARK    7  A    between atoms: S_19  and  C_20
REMARK                            x       y       z     vdW  Elec       q    Type
REMARK                         _______ _______ _______ _____ _____    ______ ____
ROOT
ATOM      1  N   UNL     1       5.836   4.565  16.437  0.00  0.00    +0.000 N 
ENDROOT
BRANCH   1   8
ATOM      2  C   UNL     1       5.106   2.743  11.878  0.00  0.00    +0.000 C 
ATOM      3  C   UNL     1       5.914   3.577  12.826  0.00  0.00    +0.000 A 
ATOM      4  C   UNL     1       6.985   4.352  12.372  0.00  0.00    +0.000 A 
ATOM      5  C   UNL     1       7.692   5.181  13.254  0.00  0.00    +0.000 A 
ATOM      6  C   UNL     1       8.855   5.995  12.767  0.00  0.00    +0.000 C 
ATOM      7  C   UNL     1       7.304   5.239  14.599  0.00  0.00    +0.000 A 
ATOM      8  C   UNL     1       6.244   4.457  15.067  0.00  0.00    +0.000 A 
ATOM      9  C   UNL     1       5.574   3.608  14.185  0.00  0.00    +0.000 A 
ENDBRANCH   1   8
BRANCH   1  10
ATOM     10  S   UNL     1       7.009   4.739  17.626  0.00  0.00    +0.000 S 
ATOM     11  C   UNL     1       7.263   6.497  17.706  0.00  0.00    +0.000 C 
ATOM     12  O   UNL     1       6.433   4.327  18.892  0.00  0.00    +0.000 OA
ATOM     13  O   UNL     1       8.242   4.137  17.163  0.00  0.00    +0.000 OA
ENDBRANCH   1  10
BRANCH   1  14
ATOM     14  C   UNL     1       4.420   4.784  16.774  0.00  0.00    +0.000 C 
BRANCH  14  15
ATOM     15  C   UNL     1       3.663   3.586  17.335  0.00  0.00    +0.000 C 
ATOM     16  O   UNL     1       4.100   2.438  17.230  0.00  0.00    +0.000 OA
ATOM     17  N   UNL     1       2.438   3.842  17.971  0.00  0.00    +0.000 N 
ATOM     18  C   UNL     1       1.804   5.157  18.019  0.00  0.00    +0.000 C 
ATOM     19  C   UNL     1       2.325   5.978  19.197  0.00  0.00    +0.000 C 
ATOM     20  C   UNL     1       1.846   5.504  20.567  0.00  0.00    +0.000 C 
ATOM     21  C   UNL     1       2.057   4.016  20.854  0.00  0.00    +0.000 C 
ATOM     22  C   UNL     1       1.152   3.118  20.010  0.00  0.00    +0.000 C 
ATOM     23  C   UNL     1       1.757   2.740  18.653  0.00  0.00    +0.000 C 
ENDBRANCH  14  15
ENDBRANCH   1  14
TORSDOF 4
ENDMDL
MODEL 2
REMARK VINA RESULT:      -8.5      0.065      1.799
REMARK  Name = 
REMARK  7 active torsions:
REMARK  status: ('A' for Active; 'I' for Inactive)
REMARK    1  A    between atoms: C_1  and  C_2
REMARK    2  A    between atoms: C_4  and  C_5
REMARK    3  A    between atoms: C_7  and  N_8
REMARK    4  A    between atoms: N_8  and  C_9
REMARK    5  A    between atoms: N_8  and  S_19
REMARK    6  A    between atoms: C_9  and  C_10
REMARK    7  A    between atoms: S_19  and  C_20
REMARK                            x       y       z     vdW  Elec       q    Type
REMARK                         _______ _______ _______ _____ _____    ______ ____
ROOT
ATOM      1  N   UNL     1       5.809   4.602  16.409  0.00  0.00    +0.000 N 
ENDROOT
BRANCH   1   8
ATOM      2  C   UNL     1       8.897   5.979  12.775  0.00  0.00    +0.000 C 
ATOM      3  C   UNL     1       7.700   5.201  13.233  0.00  0.00    +0.000 A 
ATOM      4  C   UNL     1       7.040   4.321  12.372  0.00  0.00    +0.000 A 
ATOM      5  C   UNL     1       5.963   3.548  12.828  0.00  0.00    +0.000 A 
ATOM      6  C   UNL     1       5.242   2.620  11.894  0.00  0.00    +0.000 C 
ATOM      7  C   UNL     1       5.562   3.654  14.167  0.00  0.00    +0.000 A 
ATOM      8  C   UNL     1       6.206   4.542  15.033  0.00  0.00    +0.000 A 
ATOM      9  C   UNL     1       7.252   5.332  14.554  0.00  0.00    +0.000 A 
ENDBRANCH   1   8
BRANCH   1  10
ATOM     10  S   UNL     1       6.991   4.743  17.594  0.00  0.00    +0.000 S 
ATOM     11  C   UNL     1       7.256   6.498  17.710  0.00  0.00    +0.000 C 
ATOM     12  O   UNL     1       6.421   4.307  18.854  0.00  0.00    +0.000 OA
ATOM     13  O   UNL     1       8.217   4.144  17.109  0.00  0.00    +0.000 OA
ENDBRANCH   1  10
BRANCH   1  14
ATOM     14  C   UNL     1       4.395   4.801  16.764  0.00  0.00    +0.000 C 
BRANCH  14  15
ATOM     15  C   UNL     1       3.658   3.588  17.320  0.00  0.00    +0.000 C 
ATOM     16  O   UNL     1       4.107   2.447  17.199  0.00  0.00    +0.000 OA
ATOM     17  N   UNL     1       2.436   3.823  17.971  0.00  0.00    +0.000 N 
ATOM     18  C   UNL     1       1.787   5.129  18.038  0.00  0.00    +0.000 C 
ATOM     19  C   UNL     1       2.309   5.945  19.220  0.00  0.00    +0.000 C 
ATOM     20  C   UNL     1       1.849   5.451  20.589  0.00  0.00    +0.000 C 
ATOM     21  C   UNL     1       2.080   3.963  20.859  0.00  0.00    +0.000 C 
ATOM     22  C   UNL     1       1.178   3.062  20.013  0.00  0.00    +0.000 C 
ATOM     23  C   UNL     1       1.774   2.706  18.648  0.00  0.00    +0.000 C 
ENDBRANCH  14  15
ENDBRANCH   1  14
TORSDOF 4
ENDMDL
MODEL 3
REMARK VINA RESULT:      -8.1      1.624      2.100
REMARK  Name = 
REMARK  7 active torsions:
REMARK  status: ('A' for Active; 'I' for Inactive)
REMARK    1  A    between atoms: C_1  and  C_2
REMARK    2  A    between atoms: C_4  and  C_5
REMARK    3  A    between atoms: C_7  and  N_8
REMARK    4  A    between atoms: N_8  and  C_9
REMARK    5  A    between atoms: N_8  and  S_19
REMARK    6  A    between atoms: C_9  and  C_10
REMARK    7  A    between atoms: S_19  and  C_20
REMARK                            x       y       z     vdW  Elec       q    Type
REMARK                         _______ _______ _______ _____ _____    ______ ____
ROOT
ATOM      1  N   UNL     1       5.138   4.851  16.088  0.00  0.00    +0.000 N 
ENDROOT
BRANCH   1   8
ATOM      2  C   UNL     1       5.158   2.601  11.663  0.00  0.00    +0.000 C 
ATOM      3  C   UNL     1       5.827   3.490  12.668  0.00  0.00    +0.000 A 
ATOM      4  C   UNL     1       7.014   4.160  12.360  0.00  0.00    +0.000 A 
ATOM      5  C   UNL     1       7.597   5.042  13.281  0.00  0.00    +0.000 A 
ATOM      6  C   UNL     1       8.883   5.743  12.955  0.00  0.00    +0.000 C 
ATOM      7  C   UNL     1       6.968   5.258  14.515  0.00  0.00    +0.000 A 
ATOM      8  C   UNL     1       5.788   4.581  14.839  0.00  0.00    +0.000 A 
ATOM      9  C   UNL     1       5.241   3.679  13.926  0.00  0.00    +0.000 A 
ENDBRANCH   1   8
BRANCH   1  10
ATOM     10  S   UNL     1       5.081   6.432  16.653  0.00  0.00    +0.000 S 
ATOM     11  C   UNL     1       3.622   6.457  17.669  0.00  0.00    +0.000 C 
ATOM     12  O   UNL     1       6.220   6.640  17.526  0.00  0.00    +0.000 OA
ATOM     13  O   UNL     1       4.854   7.324  15.534  0.00  0.00    +0.000 OA
ENDBRANCH   1  10
BRANCH   1  14
ATOM     14  C   UNL     1       4.311   3.818  16.731  0.00  0.00    +0.000 C 
BRANCH  14  15
ATOM     15  C   UNL     1       4.675   3.454  18.166  0.00  0.00    +0.000 C 
ATOM     16  O   UNL     1       5.767   3.756  18.652  0.00  0.00    +0.000 OA
ATOM     17  N   UNL     1       3.717   2.751  18.913  0.00  0.00    +0.000 N 
ATOM     18  C   UNL     1       2.459   2.254  18.361  0.00  0.00    +0.000 C 
ATOM     19  C   UNL     1       1.373   3.328  18.409  0.00  0.00    +0.000 C 
ATOM     20  C   UNL     1       0.841   3.636  19.806  0.00  0.00    +0.000 C 
ATOM     21  C   UNL     1       1.907   3.947  20.858  0.00  0.00    +0.000 C 
ATOM     22  C   UNL     1       2.742   2.721  21.233  0.00  0.00    +0.000 C 
ATOM     23  C   UNL     1       3.968   2.517  20.336  0.00  0.00    +0.000 C 
ENDBRANCH  14  15
ENDBRANCH   1  14
TORSDOF 4
ENDMDL
MODEL 4
REMARK VINA RESULT:      -8.1      2.398      5.388
REMARK  Name = 
REMARK  7 active torsions:
REMARK  status: ('A' for Active; 'I' for Inactive)
REMARK    1  A    between atoms: C_1  and  C_2
REMARK    2  A    between atoms: C_4  and  C_5
REMARK    3  A    between atoms: C_7  and  N_8
REMARK    4  A    between atoms: N_8  and  C_9
REMARK    5  A    between atoms: N_8  and  S_19
REMARK    6  A    between atoms: C_9  and  C_10
REMARK    7  A    between atoms: S_19  and  C_20
REMARK                            x       y       z     vdW  Elec       q    Type
REMARK                         _______ _______ _______ _____ _____    ______ ____
ROOT
ATOM      1  N   UNL     1       4.309   5.717  17.205  0.00  0.00    +0.000 N 
ENDROOT
BRANCH   1   8
ATOM      2  C   UNL     1       2.014  10.100  17.604  0.00  0.00    +0.000 C 
ATOM      3  C   UNL     1       2.352   8.757  18.178  0.00  0.00    +0.000 A 
ATOM      4  C   UNL     1       1.775   8.319  19.373  0.00  0.00    +0.000 A 
ATOM      5  C   UNL     1       2.045   7.034  19.868  0.00  0.00    +0.000 A 
ATOM      6  C   UNL     1       1.441   6.575  21.163  0.00  0.00    +0.000 C 
ATOM      7  C   UNL     1       2.890   6.184  19.143  0.00  0.00    +0.000 A 
ATOM      8  C   UNL     1       3.483   6.618  17.954  0.00  0.00    +0.000 A 
ATOM      9  C   UNL     1       3.235   7.912  17.493  0.00  0.00    +0.000 A 
ENDBRANCH   1   8
BRANCH   1  10
ATOM     10  S   UNL     1       5.652   6.320  16.397  0.00  0.00    +0.000 S 
ATOM     11  C   UNL     1       6.552   4.857  15.936  0.00  0.00    +0.000 C 
ATOM     12  O   UNL     1       5.197   6.952  15.173  0.00  0.00    +0.000 OA
ATOM     13  O   UNL     1       6.470   7.062  17.334  0.00  0.00    +0.000 OA
ENDBRANCH   1  10
BRANCH   1  14
ATOM     14  C   UNL     1       4.141   4.262  17.352  0.00  0.00    +0.000 C 
BRANCH  14  15
ATOM     15  C   UNL     1       4.585   3.659  18.680  0.00  0.00    +0.000 C 
ATOM     16  O   UNL     1       5.650   3.980  19.212  0.00  0.00    +0.000 OA
ATOM     17  N   UNL     1       3.733   2.713  19.272  0.00  0.00    +0.000 N 
ATOM     18  C   UNL     1       2.523   2.197  18.636  0.00  0.00    +0.000 C 
ATOM     19  C   UNL     1       1.326   3.106  18.909  0.00  0.00    +0.000 C 
ATOM     20  C   UNL     1       0.803   3.061  20.343  0.00  0.00    +0.000 C 
ATOM     21  C   UNL     1       1.858   3.272  21.431  0.00  0.00    +0.000 C 
ATOM     22  C   UNL     1       2.835   2.101  21.542  0.00  0.00    +0.000 C 
ATOM     23  C   UNL     1       4.049   2.225  20.615  0.00  0.00    +0.000 C 
ENDBRANCH  14  15
ENDBRANCH   1  14
TORSDOF 4
ENDMDL
MODEL 5
REMARK VINA RESULT:      -8.1      2.444      5.261
REMARK  Name = 
REMARK  7 active torsions:
REMARK  status: ('A' for Active; 'I' for Inactive)
REMARK    1  A    between atoms: C_1  and  C_2
REMARK    2  A    between atoms: C_4  and  C_5
REMARK    3  A    between atoms: C_7  and  N_8
REMARK    4  A    between atoms: N_8  and  C_9
REMARK    5  A    between atoms: N_8  and  S_19
REMARK    6  A    between atoms: C_9  and  C_10
REMARK    7  A    between atoms: S_19  and  C_20
REMARK                            x       y       z     vdW  Elec       q    Type
REMARK                         _______ _______ _______ _____ _____    ______ ____
ROOT
ATOM      1  N   UNL     1       4.302   5.735  17.197  0.00  0.00    +0.000 N 
ENDROOT
BRANCH   1   8
ATOM      2  C   UNL     1       1.480   6.642  21.179  0.00  0.00    +0.000 C 
ATOM      3  C   UNL     1       2.028   7.076  19.852  0.00  0.00    +0.000 A 
ATOM      4  C   UNL     1       1.794   8.364  19.362  0.00  0.00    +0.000 A 
ATOM      5  C   UNL     1       2.366   8.783  18.153  0.00  0.00    +0.000 A 
ATOM      6  C   UNL     1       2.095  10.160  17.619  0.00  0.00    +0.000 C 
ATOM      7  C   UNL     1       3.191   7.901  17.442  0.00  0.00    +0.000 A 
ATOM      8  C   UNL     1       3.419   6.606  17.916  0.00  0.00    +0.000 A 
ATOM      9  C   UNL     1       2.813   6.190  19.103  0.00  0.00    +0.000 A 
ENDBRANCH   1   8
BRANCH   1  10
ATOM     10  S   UNL     1       5.646   6.388  16.429  0.00  0.00    +0.000 S 
ATOM     11  C   UNL     1       6.639   4.964  16.046  0.00  0.00    +0.000 C 
ATOM     12  O   UNL     1       5.211   6.963  15.171  0.00  0.00    +0.000 OA
ATOM     13  O   UNL     1       6.383   7.196  17.378  0.00  0.00    +0.000 OA
ENDBRANCH   1  10
BRANCH   1  14
ATOM     14  C   UNL     1       4.187   4.275  17.345  0.00  0.00    +0.000 C 
BRANCH  14  15
ATOM     15  C   UNL     1       4.581   3.698  18.700  0.00  0.00    +0.000 C 
ATOM     16  O   UNL     1       5.616   4.042  19.274  0.00  0.00    +0.000 OA
ATOM     17  N   UNL     1       3.718   2.747  19.267  0.00  0.00    +0.000 N 
ATOM     18  C   UNL     1       2.545   2.203  18.587  0.00  0.00    +0.000 C 
ATOM     19  C   UNL     1       1.323   3.096  18.794  0.00  0.00    +0.000 C 
ATOM     20  C   UNL     1       0.738   3.062  20.203  0.00  0.00    +0.000 C 
ATOM     21  C   UNL     1       1.741   3.305  21.333  0.00  0.00    +0.000 C 
ATOM     22  C   UNL     1       2.730   2.151  21.504  0.00  0.00    +0.000 C 
ATOM     23  C   UNL     1       3.982   2.282  20.630  0.00  0.00    +0.000 C 
ENDBRANCH  14  15
ENDBRANCH   1  14
TORSDOF 4
ENDMDL
MODEL 6
REMARK VINA RESULT:      -8.0      1.094      2.512
REMARK  Name = 
REMARK  7 active torsions:
REMARK  status: ('A' for Active; 'I' for Inactive)
REMARK    1  A    between atoms: C_1  and  C_2
REMARK    2  A    between atoms: C_4  and  C_5
REMARK    3  A    between atoms: C_7  and  N_8
REMARK    4  A    between atoms: N_8  and  C_9
REMARK    5  A    between atoms: N_8  and  S_19
REMARK    6  A    between atoms: C_9  and  C_10
REMARK    7  A    between atoms: S_19  and  C_20
REMARK                            x       y       z     vdW  Elec       q    Type
REMARK                         _______ _______ _______ _____ _____    ______ ____
ROOT
ATOM      1  N   UNL     1       5.962   4.182  16.395  0.00  0.00    +0.000 N 
ENDROOT
BRANCH   1   8
ATOM      2  C   UNL     1       8.787   5.988  12.734  0.00  0.00    +0.000 C 
ATOM      3  C   UNL     1       7.623   5.156  13.183  0.00  0.00    +0.000 A 
ATOM      4  C   UNL     1       6.901   4.377  12.275  0.00  0.00    +0.000 A 
ATOM      5  C   UNL     1       5.858   3.549  12.715  0.00  0.00    +0.000 A 
ATOM      6  C   UNL     1       5.071   2.730  11.733  0.00  0.00    +0.000 C 
ATOM      7  C   UNL     1       5.554   3.498  14.081  0.00  0.00    +0.000 A 
ATOM      8  C   UNL     1       6.260   4.284  14.996  0.00  0.00    +0.000 A 
ATOM      9  C   UNL     1       7.271   5.131  14.539  0.00  0.00    +0.000 A 
ENDBRANCH   1   8
BRANCH   1  10
ATOM     10  S   UNL     1       7.115   4.675  17.512  0.00  0.00    +0.000 S 
ATOM     11  C   UNL     1       7.127   6.445  17.343  0.00  0.00    +0.000 C 
ATOM     12  O   UNL     1       6.616   4.371  18.840  0.00  0.00    +0.000 OA
ATOM     13  O   UNL     1       8.413   4.185  17.097  0.00  0.00    +0.000 OA
ENDBRANCH   1  10
BRANCH   1  14
ATOM     14  C   UNL     1       4.588   3.903  16.842  0.00  0.00    +0.000 C 
BRANCH  14  15
ATOM     15  C   UNL     1       3.933   4.961  17.722  0.00  0.00    +0.000 C 
ATOM     16  O   UNL     1       3.756   6.114  17.324  0.00  0.00    +0.000 OA
ATOM     17  N   UNL     1       3.546   4.571  19.014  0.00  0.00    +0.000 N 
ATOM     18  C   UNL     1       3.839   3.261  19.591  0.00  0.00    +0.000 C 
ATOM     19  C   UNL     1       2.769   2.238  19.210  0.00  0.00    +0.000 C 
ATOM     20  C   UNL     1       1.422   2.436  19.900  0.00  0.00    +0.000 C 
ATOM     21  C   UNL     1       0.835   3.845  19.798  0.00  0.00    +0.000 C 
ATOM     22  C   UNL     1       1.623   4.874  20.610  0.00  0.00    +0.000 C 
ATOM     23  C   UNL     1       2.780   5.512  19.833  0.00  0.00    +0.000 C 
ENDBRANCH  14  15
ENDBRANCH   1  14
TORSDOF 4
ENDMDL
MODEL 7
REMARK VINA RESULT:      -7.9      1.636      2.768
REMARK  Name = 
REMARK  7 active torsions:
REMARK  status: ('A' for Active; 'I' for Inactive)
REMARK    1  A    between atoms: C_1  and  C_2
REMARK    2  A    between atoms: C_4  and  C_5
REMARK    3  A    between atoms: C_7  and  N_8
REMARK    4  A    between atoms: N_8  and  C_9
REMARK    5  A    between atoms: N_8  and  S_19
REMARK    6  A    between atoms: C_9  and  C_10
REMARK    7  A    between atoms: S_19  and  C_20
REMARK                            x       y       z     vdW  Elec       q    Type
REMARK                         _______ _______ _______ _____ _____    ______ ____
ROOT
ATOM      1  N   UNL     1       5.144   4.917  16.063  0.00  0.00    +0.000 N 
ENDROOT
BRANCH   1   8
ATOM      2  C   UNL     1       8.939   5.756  12.975  0.00  0.00    +0.000 C 
ATOM      3  C   UNL     1       7.625   5.094  13.264  0.00  0.00    +0.000 A 
ATOM      4  C   UNL     1       7.072   4.169  12.373  0.00  0.00    +0.000 A 
ATOM      5  C   UNL     1       5.877   3.505  12.683  0.00  0.00    +0.000 A 
ATOM      6  C   UNL     1       5.275   2.529  11.714  0.00  0.00    +0.000 C 
ATOM      7  C   UNL     1       5.245   3.765  13.906  0.00  0.00    +0.000 A 
ATOM      8  C   UNL     1       5.782   4.698  14.798  0.00  0.00    +0.000 A 
ATOM      9  C   UNL     1       6.952   5.380  14.459  0.00  0.00    +0.000 A 
ENDBRANCH   1   8
BRANCH   1  10
ATOM     10  S   UNL     1       5.067   6.477  16.680  0.00  0.00    +0.000 S 
ATOM     11  C   UNL     1       3.611   6.449  17.700  0.00  0.00    +0.000 C 
ATOM     12  O   UNL     1       6.206   6.672  17.556  0.00  0.00    +0.000 OA
ATOM     13  O   UNL     1       4.825   7.402  15.592  0.00  0.00    +0.000 OA
ENDBRANCH   1  10
BRANCH   1  14
ATOM     14  C   UNL     1       4.343   3.848  16.683  0.00  0.00    +0.000 C 
BRANCH  14  15
ATOM     15  C   UNL     1       4.713   3.467  18.112  0.00  0.00    +0.000 C 
ATOM     16  O   UNL     1       5.808   3.760  18.597  0.00  0.00    +0.000 OA
ATOM     17  N   UNL     1       3.755   2.759  18.855  0.00  0.00    +0.000 N 
ATOM     18  C   UNL     1       2.493   2.273  18.303  0.00  0.00    +0.000 C 
ATOM     19  C   UNL     1       1.411   3.349  18.368  0.00  0.00    +0.000 C 
ATOM     20  C   UNL     1       0.886   3.643  19.771  0.00  0.00    +0.000 C 
ATOM     21  C   UNL     1       1.958   3.939  20.822  0.00  0.00    +0.000 C 
ATOM     22  C   UNL     1       2.791   2.706  21.179  0.00  0.00    +0.000 C 
ATOM     23  C   UNL     1       4.011   2.507  20.275  0.00  0.00    +0.000 C 
ENDBRANCH  14  15
ENDBRANCH   1  14
TORSDOF 4
ENDMDL
MODEL 8
REMARK VINA RESULT:      -7.9      1.107      1.761
REMARK  Name = 
REMARK  7 active torsions:
REMARK  status: ('A' for Active; 'I' for Inactive)
REMARK    1  A    between atoms: C_1  and  C_2
REMARK    2  A    between atoms: C_4  and  C_5
REMARK    3  A    between atoms: C_7  and  N_8
REMARK    4  A    between atoms: N_8  and  C_9
REMARK    5  A    between atoms: N_8  and  S_19
REMARK    6  A    between atoms: C_9  and  C_10
REMARK    7  A    between atoms: S_19  and  C_20
REMARK                            x       y       z     vdW  Elec       q    Type
REMARK                         _______ _______ _______ _____ _____    ______ ____
ROOT
ATOM      1  N   UNL     1       5.971   4.140  16.492  0.00  0.00    +0.000 N 
ENDROOT
BRANCH   1   8
ATOM      2  C   UNL     1       4.707   3.087  11.809  0.00  0.00    +0.000 C 
ATOM      3  C   UNL     1       5.659   3.710  12.786  0.00  0.00    +0.000 A 
ATOM      4  C   UNL     1       6.746   4.471  12.347  0.00  0.00    +0.000 A 
ATOM      5  C   UNL     1       7.592   5.106  13.268  0.00  0.00    +0.000 A 
ATOM      6  C   UNL     1       8.771   5.904  12.793  0.00  0.00    +0.000 C 
ATOM      7  C   UNL     1       7.327   4.984  14.638  0.00  0.00    +0.000 A 
ATOM      8  C   UNL     1       6.250   4.215  15.088  0.00  0.00    +0.000 A 
ATOM      9  C   UNL     1       5.440   3.557  14.161  0.00  0.00    +0.000 A 
ENDBRANCH   1   8
BRANCH   1  10
ATOM     10  S   UNL     1       7.124   4.690  17.583  0.00  0.00    +0.000 S 
ATOM     11  C   UNL     1       7.131   6.449  17.329  0.00  0.00    +0.000 C 
ATOM     12  O   UNL     1       6.627   4.448  18.924  0.00  0.00    +0.000 OA
ATOM     13  O   UNL     1       8.423   4.183  17.190  0.00  0.00    +0.000 OA
ENDBRANCH   1  10
BRANCH   1  14
ATOM     14  C   UNL     1       4.610   3.838  16.963  0.00  0.00    +0.000 C 
BRANCH  14  15
ATOM     15  C   UNL     1       3.923   4.917  17.791  0.00  0.00    +0.000 C 
ATOM     16  O   UNL     1       3.746   6.055  17.352  0.00  0.00    +0.000 OA
ATOM     17  N   UNL     1       3.506   4.565  19.085  0.00  0.00    +0.000 N 
ATOM     18  C   UNL     1       3.796   3.278  19.711  0.00  0.00    +0.000 C 
ATOM     19  C   UNL     1       2.746   2.233  19.337  0.00  0.00    +0.000 C 
ATOM     20  C   UNL     1       1.380   2.439  19.987  0.00  0.00    +0.000 C 
ATOM     21  C   UNL     1       0.783   3.838  19.823  0.00  0.00    +0.000 C 
ATOM     22  C   UNL     1       1.541   4.901  20.621  0.00  0.00    +0.000 C 
ATOM     23  C   UNL     1       2.712   5.525  19.853  0.00  0.00    +0.000 C 
ENDBRANCH  14  15
ENDBRANCH   1  14
TORSDOF 4
ENDMDL
MODEL 9
REMARK VINA RESULT:      -7.5      2.758      6.790
REMARK  Name = 
REMARK  7 active torsions:
REMARK  status: ('A' for Active; 'I' for Inactive)
REMARK    1  A    between atoms: C_1  and  C_2
REMARK    2  A    between atoms: C_4  and  C_5
REMARK    3  A    between atoms: C_7  and  N_8
REMARK    4  A    between atoms: N_8  and  C_9
REMARK    5  A    between atoms: N_8  and  S_19
REMARK    6  A    between atoms: C_9  and  C_10
REMARK    7  A    between atoms: S_19  and  C_20
REMARK                            x       y       z     vdW  Elec       q    Type
REMARK                         _______ _______ _______ _____ _____    ______ ____
ROOT
ATOM      1  N   UNL     1       2.764   4.354  20.088  0.00  0.00    +0.000 N 
ENDROOT
BRANCH   1   8
ATOM      2  C   UNL     1       0.759   8.475  21.996  0.00  0.00    +0.000 C 
ATOM      3  C   UNL     1       1.394   7.756  20.843  0.00  0.00    +0.000 A 
ATOM      4  C   UNL     1       1.727   8.433  19.667  0.00  0.00    +0.000 A 
ATOM      5  C   UNL     1       2.382   7.768  18.621  0.00  0.00    +0.000 A 
ATOM      6  C   UNL     1       2.718   8.493  17.350  0.00  0.00    +0.000 C 
ATOM      7  C   UNL     1       2.715   6.415  18.771  0.00  0.00    +0.000 A 
ATOM      8  C   UNL     1       2.374   5.725  19.937  0.00  0.00    +0.000 A 
ATOM      9  C   UNL     1       1.689   6.391  20.955  0.00  0.00    +0.000 A 
ENDBRANCH   1   8
BRANCH   1  10
ATOM     10  S   UNL     1       1.653   3.252  20.699  0.00  0.00    +0.000 S 
ATOM     11  C   UNL     1       2.161   1.707  19.979  0.00  0.00    +0.000 C 
ATOM     12  O   UNL     1       1.860   3.151  22.131  0.00  0.00    +0.000 OA
ATOM     13  O   UNL     1       0.340   3.569  20.178  0.00  0.00    +0.000 OA
ENDBRANCH   1  10
BRANCH   1  14
ATOM     14  C   UNL     1       4.012   3.867  19.479  0.00  0.00    +0.000 C 
BRANCH  14  15
ATOM     15  C   UNL     1       4.009   3.707  17.963  0.00  0.00    +0.000 C 
ATOM     16  O   UNL     1       3.042   3.230  17.365  0.00  0.00    +0.000 OA
ATOM     17  N   UNL     1       5.161   4.117  17.272  0.00  0.00    +0.000 N 
ATOM     18  C   UNL     1       6.385   4.570  17.927  0.00  0.00    +0.000 C 
ATOM     19  C   UNL     1       6.321   6.064  18.242  0.00  0.00    +0.000 C 
ATOM     20  C   UNL     1       6.426   6.978  17.024  0.00  0.00    +0.000 C 
ATOM     21  C   UNL     1       5.459   6.660  15.882  0.00  0.00    +0.000 C 
ATOM     22  C   UNL     1       5.796   5.348  15.171  0.00  0.00    +0.000 C 
ATOM     23  C   UNL     1       5.139   4.119  15.808  0.00  0.00    +0.000 C 
ENDBRANCH  14  15
ENDBRANCH   1  14
TORSDOF 4
ENDMDL
