MODEL 1
REMARK VINA RESULT:      -6.8      0.000      0.000
REMARK  Name = 
REMARK  7 active torsions:
REMARK  status: ('A' for Active; 'I' for Inactive)
REMARK    1  A    between atoms: C_1  and  O_2
REMARK    2  A    between atoms: O_2  and  C_3
REMARK    3  A    between atoms: N_5  and  C_6
REMARK    4  A    between atoms: C_6  and  C_7
REMARK    5  A    between atoms: C_7  and  C_8
REMARK    6  A    between atoms: C_8  and  C_9
REMARK    7  A    between atoms: C_9  and  N_10
REMARK                            x       y       z     vdW  Elec       q    Type
REMARK                         _______ _______ _______ _____ _____    ______ ____
ROOT
ATOM      1  N   UNL     1       2.522   6.713  20.015  0.00  0.00    +0.000 N 
ATOM      2  C   UNL     1       3.335   6.456  18.869  0.00  0.00    +0.000 A 
ATOM      3  C   UNL     1       4.178   5.321  18.776  0.00  0.00    +0.000 A 
ATOM      4  C   UNL     1       4.971   5.054  17.652  0.00  0.00    +0.000 A 
ATOM      5  C   UNL     1       4.966   5.930  16.581  0.00  0.00    +0.000 A 
ATOM      6  C   UNL     1       4.164   7.062  16.639  0.00  0.00    +0.000 A 
ATOM      7  C   UNL     1       3.354   7.328  17.763  0.00  0.00    +0.000 A 
ATOM      8  S   UNL     1       2.365   8.799  17.645  0.00  0.00    +0.000 S 
ATOM      9  C   UNL     1       1.534   8.837  19.211  0.00  0.00    +0.000 A 
ATOM     10  C   UNL     1       0.665   9.934  19.399  0.00  0.00    +0.000 A 
ATOM     11  C   UNL     1      -0.045  10.093  20.583  0.00  0.00    +0.000 A 
ATOM     12  C   UNL     1       0.135   9.170  21.597  0.00  0.00    +0.000 A 
ATOM     13 CL   UNL     1      -0.721   9.354  23.080  0.00  0.00    +0.000 Cl
ATOM     14  C   UNL     1       1.000   8.085  21.425  0.00  0.00    +0.000 A 
ATOM     15  C   UNL     1       1.697   7.860  20.214  0.00  0.00    +0.000 A 
ENDROOT
BRANCH   1  16
ATOM     16  C   UNL     1       2.354   5.599  20.976  0.00  0.00    +0.000 C 
BRANCH  16  17
ATOM     17  C   UNL     1       1.232   4.645  20.531  0.00  0.00    +0.000 C 
BRANCH  17  18
ATOM     18  C   UNL     1       1.169   3.370  21.377  0.00  0.00    +0.000 C 
BRANCH  18  19
ATOM     19  C   UNL     1       2.404   2.485  21.204  0.00  0.00    +0.000 C 
BRANCH  19  22
ATOM     20  C   UNL     1       3.925   1.910  19.369  0.00  0.00    +0.000 C 
ATOM     21  O   UNL     1       4.937   1.910  20.054  0.00  0.00    +0.000 OA
ATOM     22  N   UNL     1       2.672   2.198  19.819  0.00  0.00    +0.000 N 
ATOM     23  H   UNL     1       1.930   2.176  19.135  0.00  0.00    +0.000 HD
BRANCH  20  25
ATOM     24  C   UNL     1       2.710   2.133  17.397  0.00  0.00    +0.000 C 
ATOM     25  O   UNL     1       3.867   1.610  18.050  0.00  0.00    +0.000 OA
ENDBRANCH  20  25
ENDBRANCH  19  22
ENDBRANCH  18  19
ENDBRANCH  17  18
ENDBRANCH  16  17
ENDBRANCH   1  16
TORSDOF 6
ENDMDL
MODEL 2
REMARK VINA RESULT:      -6.8      4.153      6.974
REMARK  Name = 
REMARK  7 active torsions:
REMARK  status: ('A' for Active; 'I' for Inactive)
REMARK    1  A    between atoms: C_1  and  O_2
REMARK    2  A    between atoms: O_2  and  C_3
REMARK    3  A    between atoms: N_5  and  C_6
REMARK    4  A    between atoms: C_6  and  C_7
REMARK    5  A    between atoms: C_7  and  C_8
REMARK    6  A    between atoms: C_8  and  C_9
REMARK    7  A    between atoms: C_9  and  N_10
REMARK                            x       y       z     vdW  Elec       q    Type
REMARK                         _______ _______ _______ _____ _____    ______ ____
ROOT
ATOM      1  N   UNL     1       3.500   5.573  18.715  0.00  0.00    +0.000 N 
ATOM      2  C   UNL     1       2.645   4.433  18.807  0.00  0.00    +0.000 A 
ATOM      3  C   UNL     1       1.438   4.448  19.548  0.00  0.00    +0.000 A 
ATOM      4  C   UNL     1       0.587   3.338  19.635  0.00  0.00    +0.000 A 
ATOM      5  C   UNL     1       0.925   2.158  18.997  0.00  0.00    +0.000 A 
ATOM      6  C   UNL     1       2.107   2.098  18.272  0.00  0.00    +0.000 A 
ATOM      7  C   UNL     1       2.961   3.217  18.170  0.00  0.00    +0.000 A 
ATOM      8  S   UNL     1       4.407   2.969  17.170  0.00  0.00    +0.000 S 
ATOM      9  C   UNL     1       5.245   4.527  17.303  0.00  0.00    +0.000 A 
ATOM     10  C   UNL     1       6.462   4.612  16.593  0.00  0.00    +0.000 A 
ATOM     11  C   UNL     1       7.226   5.772  16.615  0.00  0.00    +0.000 A 
ATOM     12  C   UNL     1       6.790   6.844  17.373  0.00  0.00    +0.000 A 
ATOM     13 CL   UNL     1       7.728   8.287  17.430  0.00  0.00    +0.000 Cl
ATOM     14  C   UNL     1       5.591   6.766  18.087  0.00  0.00    +0.000 A 
ATOM     15  C   UNL     1       4.759   5.622  18.044  0.00  0.00    +0.000 A 
ENDROOT
BRANCH   1  16
ATOM     16  C   UNL     1       2.937   6.866  19.166  0.00  0.00    +0.000 C 
BRANCH  16  17
ATOM     17  C   UNL     1       2.097   7.524  18.057  0.00  0.00    +0.000 C 
BRANCH  17  18
ATOM     18  C   UNL     1       2.208   9.051  18.056  0.00  0.00    +0.000 C 
BRANCH  18  19
ATOM     19  C   UNL     1       0.924   9.737  18.524  0.00  0.00    +0.000 C 
BRANCH  19  22
ATOM     20  C   UNL     1       0.993  10.938  20.661  0.00  0.00    +0.000 C 
ATOM     21  O   UNL     1       1.278  12.022  20.173  0.00  0.00    +0.000 OA
ATOM     22  N   UNL     1       0.829   9.781  19.959  0.00  0.00    +0.000 N 
ATOM     23  H   UNL     1       0.610   8.955  20.496  0.00  0.00    +0.000 HD
BRANCH  20  25
ATOM     24  C   UNL     1       0.700   9.308  22.295  0.00  0.00    +0.000 C 
ATOM     25  O   UNL     1       0.775  10.697  21.975  0.00  0.00    +0.000 OA
ENDBRANCH  20  25
ENDBRANCH  19  22
ENDBRANCH  18  19
ENDBRANCH  17  18
ENDBRANCH  16  17
ENDBRANCH   1  16
TORSDOF 6
ENDMDL
MODEL 3
REMARK VINA RESULT:      -6.8      4.221      7.065
REMARK  Name = 
REMARK  7 active torsions:
REMARK  status: ('A' for Active; 'I' for Inactive)
REMARK    1  A    between atoms: C_1  and  O_2
REMARK    2  A    between atoms: O_2  and  C_3
REMARK    3  A    between atoms: N_5  and  C_6
REMARK    4  A    between atoms: C_6  and  C_7
REMARK    5  A    between atoms: C_7  and  C_8
REMARK    6  A    between atoms: C_8  and  C_9
REMARK    7  A    between atoms: C_9  and  N_10
REMARK                            x       y       z     vdW  Elec       q    Type
REMARK                         _______ _______ _______ _____ _____    ______ ____
ROOT
ATOM      1  N   UNL     1       3.521   5.506  18.769  0.00  0.00    +0.000 N 
ATOM      2  C   UNL     1       2.652   4.377  18.878  0.00  0.00    +0.000 A 
ATOM      3  C   UNL     1       1.475   4.399  19.666  0.00  0.00    +0.000 A 
ATOM      4  C   UNL     1       0.610   3.302  19.772  0.00  0.00    +0.000 A 
ATOM      5  C   UNL     1       0.904   2.126  19.105  0.00  0.00    +0.000 A 
ATOM      6  C   UNL     1       2.056   2.059  18.332  0.00  0.00    +0.000 A 
ATOM      7  C   UNL     1       2.923   3.166  18.212  0.00  0.00    +0.000 A 
ATOM      8  S   UNL     1       4.324   2.911  17.152  0.00  0.00    +0.000 S 
ATOM      9  C   UNL     1       5.191   4.454  17.274  0.00  0.00    +0.000 A 
ATOM     10  C   UNL     1       6.380   4.531  16.518  0.00  0.00    +0.000 A 
ATOM     11  C   UNL     1       7.163   5.679  16.525  0.00  0.00    +0.000 A 
ATOM     12  C   UNL     1       6.774   6.746  17.316  0.00  0.00    +0.000 A 
ATOM     13 CL   UNL     1       7.737   8.173  17.356  0.00  0.00    +0.000 Cl
ATOM     14  C   UNL     1       5.603   6.676  18.075  0.00  0.00    +0.000 A 
ATOM     15  C   UNL     1       4.752   5.545  18.049  0.00  0.00    +0.000 A 
ENDROOT
BRANCH   1  16
ATOM     16  C   UNL     1       2.996   6.801  19.260  0.00  0.00    +0.000 C 
BRANCH  16  17
ATOM     17  C   UNL     1       1.993   7.408  18.263  0.00  0.00    +0.000 C 
BRANCH  17  18
ATOM     18  C   UNL     1       2.469   8.743  17.684  0.00  0.00    +0.000 C 
BRANCH  18  19
ATOM     19  C   UNL     1       1.754   9.944  18.303  0.00  0.00    +0.000 C 
BRANCH  19  22
ATOM     20  C   UNL     1      -0.660  10.129  18.690  0.00  0.00    +0.000 C 
ATOM     21  O   UNL     1      -0.588  10.042  19.907  0.00  0.00    +0.000 OA
ATOM     22  N   UNL     1       0.399  10.066  17.835  0.00  0.00    +0.000 N 
ATOM     23  H   UNL     1       0.189  10.136  16.849  0.00  0.00    +0.000 HD
BRANCH  20  25
ATOM     24  C   UNL     1      -2.037  11.682  17.638  0.00  0.00    +0.000 C 
ATOM     25  O   UNL     1      -1.797  10.317  17.978  0.00  0.00    +0.000 OA
ENDBRANCH  20  25
ENDBRANCH  19  22
ENDBRANCH  18  19
ENDBRANCH  17  18
ENDBRANCH  16  17
ENDBRANCH   1  16
TORSDOF 6
ENDMDL
MODEL 4
REMARK VINA RESULT:      -6.7      4.133      7.013
REMARK  Name = 
REMARK  7 active torsions:
REMARK  status: ('A' for Active; 'I' for Inactive)
REMARK    1  A    between atoms: C_1  and  O_2
REMARK    2  A    between atoms: O_2  and  C_3
REMARK    3  A    between atoms: N_5  and  C_6
REMARK    4  A    between atoms: C_6  and  C_7
REMARK    5  A    between atoms: C_7  and  C_8
REMARK    6  A    between atoms: C_8  and  C_9
REMARK    7  A    between atoms: C_9  and  N_10
REMARK                            x       y       z     vdW  Elec       q    Type
REMARK                         _______ _______ _______ _____ _____    ______ ____
ROOT
ATOM      1  N   UNL     1       3.553   5.502  18.834  0.00  0.00    +0.000 N 
ATOM      2  C   UNL     1       2.649   4.398  18.897  0.00  0.00    +0.000 A 
ATOM      3  C   UNL     1       1.512   4.396  19.742  0.00  0.00    +0.000 A 
ATOM      4  C   UNL     1       0.613   3.323  19.803  0.00  0.00    +0.000 A 
ATOM      5  C   UNL     1       0.832   2.196  19.032  0.00  0.00    +0.000 A 
ATOM      6  C   UNL     1       1.943   2.152  18.200  0.00  0.00    +0.000 A 
ATOM      7  C   UNL     1       2.844   3.236  18.125  0.00  0.00    +0.000 A 
ATOM      8  S   UNL     1       4.183   3.020  16.980  0.00  0.00    +0.000 S 
ATOM      9  C   UNL     1       5.112   4.518  17.180  0.00  0.00    +0.000 A 
ATOM     10  C   UNL     1       6.266   4.617  16.374  0.00  0.00    +0.000 A 
ATOM     11  C   UNL     1       7.091   5.733  16.433  0.00  0.00    +0.000 A 
ATOM     12  C   UNL     1       6.779   6.746  17.323  0.00  0.00    +0.000 A 
ATOM     13 CL   UNL     1       7.795   8.132  17.428  0.00  0.00    +0.000 Cl
ATOM     14  C   UNL     1       5.643   6.654  18.132  0.00  0.00    +0.000 A 
ATOM     15  C   UNL     1       4.750   5.558  18.060  0.00  0.00    +0.000 A 
ENDROOT
BRANCH   1  16
ATOM     16  C   UNL     1       3.101   6.770  19.451  0.00  0.00    +0.000 C 
BRANCH  16  17
ATOM     17  C   UNL     1       2.336   7.640  18.437  0.00  0.00    +0.000 C 
BRANCH  17  18
ATOM     18  C   UNL     1       1.684   8.865  19.082  0.00  0.00    +0.000 C 
BRANCH  18  19
ATOM     19  C   UNL     1       1.205   8.597  20.509  0.00  0.00    +0.000 C 
BRANCH  19  22
ATOM     20  C   UNL     1      -0.018   9.833  22.239  0.00  0.00    +0.000 C 
ATOM     21  O   UNL     1      -0.637   8.865  22.655  0.00  0.00    +0.000 OA
ATOM     22  N   UNL     1       0.865   9.813  21.201  0.00  0.00    +0.000 N 
ATOM     23  H   UNL     1       1.292  10.694  20.954  0.00  0.00    +0.000 HD
BRANCH  20  25
ATOM     24  C   UNL     1      -1.419  11.525  23.005  0.00  0.00    +0.000 C 
ATOM     25  O   UNL     1      -0.086  11.089  22.741  0.00  0.00    +0.000 OA
ENDBRANCH  20  25
ENDBRANCH  19  22
ENDBRANCH  18  19
ENDBRANCH  17  18
ENDBRANCH  16  17
ENDBRANCH   1  16
TORSDOF 6
ENDMDL
MODEL 5
REMARK VINA RESULT:      -6.6      3.194      4.878
REMARK  Name = 
REMARK  7 active torsions:
REMARK  status: ('A' for Active; 'I' for Inactive)
REMARK    1  A    between atoms: C_1  and  O_2
REMARK    2  A    between atoms: O_2  and  C_3
REMARK    3  A    between atoms: N_5  and  C_6
REMARK    4  A    between atoms: C_6  and  C_7
REMARK    5  A    between atoms: C_7  and  C_8
REMARK    6  A    between atoms: C_8  and  C_9
REMARK    7  A    between atoms: C_9  and  N_10
REMARK                            x       y       z     vdW  Elec       q    Type
REMARK                         _______ _______ _______ _____ _____    ______ ____
ROOT
ATOM      1  N   UNL     1       3.155   5.808  18.100  0.00  0.00    +0.000 N 
ATOM      2  C   UNL     1       3.178   4.420  18.434  0.00  0.00    +0.000 A 
ATOM      3  C   UNL     1       3.837   3.457  17.631  0.00  0.00    +0.000 A 
ATOM      4  C   UNL     1       3.875   2.095  17.956  0.00  0.00    +0.000 A 
ATOM      5  C   UNL     1       3.231   1.639  19.092  0.00  0.00    +0.000 A 
ATOM      6  C   UNL     1       2.561   2.548  19.899  0.00  0.00    +0.000 A 
ATOM      7  C   UNL     1       2.532   3.924  19.583  0.00  0.00    +0.000 A 
ATOM      8  S   UNL     1       1.663   4.943  20.749  0.00  0.00    +0.000 S 
ATOM      9  C   UNL     1       1.789   6.557  20.026  0.00  0.00    +0.000 A 
ATOM     10  C   UNL     1       1.163   7.590  20.757  0.00  0.00    +0.000 A 
ATOM     11  C   UNL     1       1.178   8.903  20.303  0.00  0.00    +0.000 A 
ATOM     12  C   UNL     1       1.795   9.184  19.098  0.00  0.00    +0.000 A 
ATOM     13 CL   UNL     1       1.813  10.801  18.505  0.00  0.00    +0.000 Cl
ATOM     14  C   UNL     1       2.411   8.168  18.361  0.00  0.00    +0.000 A 
ATOM     15  C   UNL     1       2.463   6.829  18.818  0.00  0.00    +0.000 A 
ENDROOT
BRANCH   1  16
ATOM     16  C   UNL     1       4.099   6.257  17.052  0.00  0.00    +0.000 C 
BRANCH  16  17
ATOM     17  C   UNL     1       5.502   6.503  17.635  0.00  0.00    +0.000 C 
BRANCH  17  18
ATOM     18  C   UNL     1       6.613   6.340  16.594  0.00  0.00    +0.000 C 
BRANCH  18  19
ATOM     19  C   UNL     1       7.092   4.894  16.463  0.00  0.00    +0.000 C 
BRANCH  19  22
ATOM     20  C   UNL     1       6.695   4.455  14.083  0.00  0.00    +0.000 C 
ATOM     21  O   UNL     1       7.472   5.307  13.678  0.00  0.00    +0.000 OA
ATOM     22  N   UNL     1       6.424   4.199  15.394  0.00  0.00    +0.000 N 
ATOM     23  H   UNL     1       5.746   3.475  15.583  0.00  0.00    +0.000 HD
BRANCH  20  25
ATOM     24  C   UNL     1       6.559   3.386  12.021  0.00  0.00    +0.000 C 
ATOM     25  O   UNL     1       5.980   3.607  13.307  0.00  0.00    +0.000 OA
ENDBRANCH  20  25
ENDBRANCH  19  22
ENDBRANCH  18  19
ENDBRANCH  17  18
ENDBRANCH  16  17
ENDBRANCH   1  16
TORSDOF 6
ENDMDL
MODEL 6
REMARK VINA RESULT:      -6.6      4.072      7.050
REMARK  Name = 
REMARK  7 active torsions:
REMARK  status: ('A' for Active; 'I' for Inactive)
REMARK    1  A    between atoms: C_1  and  O_2
REMARK    2  A    between atoms: O_2  and  C_3
REMARK    3  A    between atoms: N_5  and  C_6
REMARK    4  A    between atoms: C_6  and  C_7
REMARK    5  A    between atoms: C_7  and  C_8
REMARK    6  A    between atoms: C_8  and  C_9
REMARK    7  A    between atoms: C_9  and  N_10
REMARK                            x       y       z     vdW  Elec       q    Type
REMARK                         _______ _______ _______ _____ _____    ______ ____
ROOT
ATOM      1  N   UNL     1       3.578   5.552  18.815  0.00  0.00    +0.000 N 
ATOM      2  C   UNL     1       2.712   4.422  18.927  0.00  0.00    +0.000 A 
ATOM      3  C   UNL     1       1.526   4.448  19.700  0.00  0.00    +0.000 A 
ATOM      4  C   UNL     1       0.664   3.348  19.807  0.00  0.00    +0.000 A 
ATOM      5  C   UNL     1       0.972   2.166  19.158  0.00  0.00    +0.000 A 
ATOM      6  C   UNL     1       2.133   2.094  18.400  0.00  0.00    +0.000 A 
ATOM      7  C   UNL     1       2.997   3.204  18.279  0.00  0.00    +0.000 A 
ATOM      8  S   UNL     1       4.412   2.943  17.239  0.00  0.00    +0.000 S 
ATOM      9  C   UNL     1       5.271   4.490  17.354  0.00  0.00    +0.000 A 
ATOM     10  C   UNL     1       6.470   4.564  16.611  0.00  0.00    +0.000 A 
ATOM     11  C   UNL     1       7.248   5.715  16.616  0.00  0.00    +0.000 A 
ATOM     12  C   UNL     1       6.844   6.790  17.388  0.00  0.00    +0.000 A 
ATOM     13 CL   UNL     1       7.800   8.221  17.424  0.00  0.00    +0.000 Cl
ATOM     14  C   UNL     1       5.664   6.724  18.134  0.00  0.00    +0.000 A 
ATOM     15  C   UNL     1       4.818   5.589  18.111  0.00  0.00    +0.000 A 
ENDROOT
BRANCH   1  16
ATOM     16  C   UNL     1       3.041   6.851  19.284  0.00  0.00    +0.000 C 
BRANCH  16  17
ATOM     17  C   UNL     1       2.061   7.451  18.261  0.00  0.00    +0.000 C 
BRANCH  17  18
ATOM     18  C   UNL     1       2.414   8.890  17.876  0.00  0.00    +0.000 C 
BRANCH  18  19
ATOM     19  C   UNL     1       1.230   9.847  18.019  0.00  0.00    +0.000 C 
BRANCH  19  22
ATOM     20  C   UNL     1       0.684  10.313  20.363  0.00  0.00    +0.000 C 
ATOM     21  O   UNL     1      -0.060   9.353  20.500  0.00  0.00    +0.000 OA
ATOM     22  N   UNL     1       1.326  10.649  19.209  0.00  0.00    +0.000 N 
ATOM     23  H   UNL     1       1.898  11.481  19.237  0.00  0.00    +0.000 HD
BRANCH  20  25
ATOM     24  C   UNL     1       0.458  12.499  21.127  0.00  0.00    +0.000 C 
ATOM     25  O   UNL     1       1.013  11.200  21.332  0.00  0.00    +0.000 OA
ENDBRANCH  20  25
ENDBRANCH  19  22
ENDBRANCH  18  19
ENDBRANCH  17  18
ENDBRANCH  16  17
ENDBRANCH   1  16
TORSDOF 6
ENDMDL
MODEL 7
REMARK VINA RESULT:      -6.6      4.455      7.309
REMARK  Name = 
REMARK  7 active torsions:
REMARK  status: ('A' for Active; 'I' for Inactive)
REMARK    1  A    between atoms: C_1  and  O_2
REMARK    2  A    between atoms: O_2  and  C_3
REMARK    3  A    between atoms: N_5  and  C_6
REMARK    4  A    between atoms: C_6  and  C_7
REMARK    5  A    between atoms: C_7  and  C_8
REMARK    6  A    between atoms: C_8  and  C_9
REMARK    7  A    between atoms: C_9  and  N_10
REMARK                            x       y       z     vdW  Elec       q    Type
REMARK                         _______ _______ _______ _____ _____    ______ ____
ROOT
ATOM      1  N   UNL     1       3.503   5.570  18.773  0.00  0.00    +0.000 N 
ATOM      2  C   UNL     1       2.653   4.429  18.902  0.00  0.00    +0.000 A 
ATOM      3  C   UNL     1       1.453   4.459  19.654  0.00  0.00    +0.000 A 
ATOM      4  C   UNL     1       0.607   3.349  19.777  0.00  0.00    +0.000 A 
ATOM      5  C   UNL     1       0.943   2.154  19.166  0.00  0.00    +0.000 A 
ATOM      6  C   UNL     1       2.119   2.080  18.431  0.00  0.00    +0.000 A 
ATOM      7  C   UNL     1       2.968   3.199  18.293  0.00  0.00    +0.000 A 
ATOM      8  S   UNL     1       4.405   2.931  17.285  0.00  0.00    +0.000 S 
ATOM      9  C   UNL     1       5.238   4.494  17.371  0.00  0.00    +0.000 A 
ATOM     10  C   UNL     1       6.448   4.566  16.647  0.00  0.00    +0.000 A 
ATOM     11  C   UNL     1       7.208   5.729  16.632  0.00  0.00    +0.000 A 
ATOM     12  C   UNL     1       6.775   6.818  17.367  0.00  0.00    +0.000 A 
ATOM     13 CL   UNL     1       7.708   8.265  17.379  0.00  0.00    +0.000 Cl
ATOM     14  C   UNL     1       5.583   6.754  18.094  0.00  0.00    +0.000 A 
ATOM     15  C   UNL     1       4.755   5.606  18.089  0.00  0.00    +0.000 A 
ENDROOT
BRANCH   1  16
ATOM     16  C   UNL     1       2.939   6.872  19.196  0.00  0.00    +0.000 C 
BRANCH  16  17
ATOM     17  C   UNL     1       2.117   7.516  18.066  0.00  0.00    +0.000 C 
BRANCH  17  18
ATOM     18  C   UNL     1       2.293   9.035  17.997  0.00  0.00    +0.000 C 
BRANCH  18  19
ATOM     19  C   UNL     1       0.986   9.793  18.228  0.00  0.00    +0.000 C 
BRANCH  19  22
ATOM     20  C   UNL     1       1.246  11.879  19.491  0.00  0.00    +0.000 C 
ATOM     21  O   UNL     1       1.080  11.369  20.590  0.00  0.00    +0.000 OA
ATOM     22  N   UNL     1       1.194  11.215  18.302  0.00  0.00    +0.000 N 
ATOM     23  H   UNL     1       1.334  11.769  17.469  0.00  0.00    +0.000 HD
BRANCH  20  25
ATOM     24  C   UNL     1       2.429  13.390  18.175  0.00  0.00    +0.000 C 
ATOM     25  O   UNL     1       1.526  13.183  19.262  0.00  0.00    +0.000 OA
ENDBRANCH  20  25
ENDBRANCH  19  22
ENDBRANCH  18  19
ENDBRANCH  17  18
ENDBRANCH  16  17
ENDBRANCH   1  16
TORSDOF 6
ENDMDL
MODEL 8
REMARK VINA RESULT:      -6.6      3.534      5.844
REMARK  Name = 
REMARK  7 active torsions:
REMARK  status: ('A' for Active; 'I' for Inactive)
REMARK    1  A    between atoms: C_1  and  O_2
REMARK    2  A    between atoms: O_2  and  C_3
REMARK    3  A    between atoms: N_5  and  C_6
REMARK    4  A    between atoms: C_6  and  C_7
REMARK    5  A    between atoms: C_7  and  C_8
REMARK    6  A    between atoms: C_8  and  C_9
REMARK    7  A    between atoms: C_9  and  N_10
REMARK                            x       y       z     vdW  Elec       q    Type
REMARK                         _______ _______ _______ _____ _____    ______ ____
ROOT
ATOM      1  N   UNL     1       3.241   6.161  18.501  0.00  0.00    +0.000 N 
ATOM      2  C   UNL     1       2.590   7.424  18.645  0.00  0.00    +0.000 A 
ATOM      3  C   UNL     1       2.783   8.486  17.728  0.00  0.00    +0.000 A 
ATOM      4  C   UNL     1       2.141   9.725  17.854  0.00  0.00    +0.000 A 
ATOM      5  C   UNL     1       1.291   9.956  18.921  0.00  0.00    +0.000 A 
ATOM      6  C   UNL     1       1.085   8.945  19.850  0.00  0.00    +0.000 A 
ATOM      7  C   UNL     1       1.720   7.691  19.720  0.00  0.00    +0.000 A 
ATOM      8  S   UNL     1       1.307   6.507  20.977  0.00  0.00    +0.000 S 
ATOM      9  C   UNL     1       2.295   5.103  20.531  0.00  0.00    +0.000 A 
ATOM     10  C   UNL     1       2.168   3.988  21.386  0.00  0.00    +0.000 A 
ATOM     11  C   UNL     1       2.890   2.822  21.159  0.00  0.00    +0.000 A 
ATOM     12  C   UNL     1       3.768   2.779  20.091  0.00  0.00    +0.000 A 
ATOM     13 CL   UNL     1       4.687   1.353  19.798  0.00  0.00    +0.000 Cl
ATOM     14  C   UNL     1       3.908   3.882  19.243  0.00  0.00    +0.000 A 
ATOM     15  C   UNL     1       3.149   5.065  19.410  0.00  0.00    +0.000 A 
ENDROOT
BRANCH   1  16
ATOM     16  C   UNL     1       3.889   5.890  17.197  0.00  0.00    +0.000 C 
BRANCH  16  17
ATOM     17  C   UNL     1       5.195   6.689  17.048  0.00  0.00    +0.000 C 
BRANCH  17  18
ATOM     18  C   UNL     1       6.350   6.093  17.856  0.00  0.00    +0.000 C 
BRANCH  18  19
ATOM     19  C   UNL     1       7.088   4.985  17.105  0.00  0.00    +0.000 C 
BRANCH  19  22
ATOM     20  C   UNL     1       7.079   4.781  14.661  0.00  0.00    +0.000 C 
ATOM     21  O   UNL     1       6.361   3.793  14.631  0.00  0.00    +0.000 OA
ATOM     22  N   UNL     1       7.504   5.408  15.794  0.00  0.00    +0.000 N 
ATOM     23  H   UNL     1       8.110   6.207  15.668  0.00  0.00    +0.000 HD
BRANCH  20  25
ATOM     24  C   UNL     1       7.399   4.718  12.357  0.00  0.00    +0.000 C 
ATOM     25  O   UNL     1       7.566   5.435  13.580  0.00  0.00    +0.000 OA
ENDBRANCH  20  25
ENDBRANCH  19  22
ENDBRANCH  18  19
ENDBRANCH  17  18
ENDBRANCH  16  17
ENDBRANCH   1  16
TORSDOF 6
ENDMDL
MODEL 9
REMARK VINA RESULT:      -6.5      1.061      1.484
REMARK  Name = 
REMARK  7 active torsions:
REMARK  status: ('A' for Active; 'I' for Inactive)
REMARK    1  A    between atoms: C_1  and  O_2
REMARK    2  A    between atoms: O_2  and  C_3
REMARK    3  A    between atoms: N_5  and  C_6
REMARK    4  A    between atoms: C_6  and  C_7
REMARK    5  A    between atoms: C_7  and  C_8
REMARK    6  A    between atoms: C_8  and  C_9
REMARK    7  A    between atoms: C_9  and  N_10
REMARK                            x       y       z     vdW  Elec       q    Type
REMARK                         _______ _______ _______ _____ _____    ______ ____
ROOT
ATOM      1  N   UNL     1       2.830   6.253  20.105  0.00  0.00    +0.000 N 
ATOM      2  C   UNL     1       3.732   5.889  19.059  0.00  0.00    +0.000 A 
ATOM      3  C   UNL     1       4.573   4.753  19.145  0.00  0.00    +0.000 A 
ATOM      4  C   UNL     1       5.453   4.380  18.120  0.00  0.00    +0.000 A 
ATOM      5  C   UNL     1       5.539   5.148  16.973  0.00  0.00    +0.000 A 
ATOM      6  C   UNL     1       4.741   6.278  16.855  0.00  0.00    +0.000 A 
ATOM      7  C   UNL     1       3.844   6.649  17.879  0.00  0.00    +0.000 A 
ATOM      8  S   UNL     1       2.875   8.098  17.539  0.00  0.00    +0.000 S 
ATOM      9  C   UNL     1       1.920   8.286  19.022  0.00  0.00    +0.000 A 
ATOM     10  C   UNL     1       1.044   9.393  19.031  0.00  0.00    +0.000 A 
ATOM     11  C   UNL     1       0.241   9.664  20.132  0.00  0.00    +0.000 A 
ATOM     12  C   UNL     1       0.334   8.844  21.243  0.00  0.00    +0.000 A 
ATOM     13 CL   UNL     1      -0.638   9.169  22.626  0.00  0.00    +0.000 Cl
ATOM     14  C   UNL     1       1.204   7.751  21.247  0.00  0.00    +0.000 A 
ATOM     15  C   UNL     1       1.997   7.411  20.124  0.00  0.00    +0.000 A 
ENDROOT
BRANCH   1  16
ATOM     16  C   UNL     1       2.579   5.237  21.153  0.00  0.00    +0.000 C 
BRANCH  16  17
ATOM     17  C   UNL     1       2.201   3.880  20.534  0.00  0.00    +0.000 C 
BRANCH  17  18
ATOM     18  C   UNL     1       0.760   3.845  20.019  0.00  0.00    +0.000 C 
BRANCH  18  19
ATOM     19  C   UNL     1       0.493   2.661  19.090  0.00  0.00    +0.000 C 
BRANCH  19  22
ATOM     20  C   UNL     1       2.453   2.338  17.652  0.00  0.00    +0.000 C 
ATOM     21  O   UNL     1       2.165   3.227  16.864  0.00  0.00    +0.000 OA
ATOM     22  N   UNL     1       1.705   1.973  18.731  0.00  0.00    +0.000 N 
ATOM     23  H   UNL     1       2.058   1.208  19.287  0.00  0.00    +0.000 HD
BRANCH  20  25
ATOM     24  C   UNL     1       3.949   1.037  18.870  0.00  0.00    +0.000 C 
ATOM     25  O   UNL     1       3.568   1.571  17.602  0.00  0.00    +0.000 OA
ENDBRANCH  20  25
ENDBRANCH  19  22
ENDBRANCH  18  19
ENDBRANCH  17  18
ENDBRANCH  16  17
ENDBRANCH   1  16
TORSDOF 6
ENDMDL
