MODEL 1
REMARK VINA RESULT:      -8.5      0.000      0.000
REMARK  Name = 
REMARK  4 active torsions:
REMARK  status: ('A' for Active; 'I' for Inactive)
REMARK    1  A    between atoms: C_4  and  O_5
REMARK    2  A    between atoms: C_7  and  S_8
REMARK    3  A    between atoms: S_8  and  C_9
REMARK    4  A    between atoms: C_9  and  C_10
REMARK                            x       y       z     vdW  Elec       q    Type
REMARK                         _______ _______ _______ _____ _____    ______ ____
ROOT
ATOM      1  S   UNL     1       6.553   4.098  15.924  0.00  0.00    +0.000 S 
ENDROOT
BRANCH   1   7
ATOM      2  N   UNL     1       7.868   8.696  17.258  0.00  0.00    +0.000 N 
ATOM      3  C   UNL     1       7.776   7.371  17.655  0.00  0.00    +0.000 A 
ATOM      4  C   UNL     1       8.091   7.000  18.948  0.00  0.00    +0.000 A 
ATOM      5  C   UNL     1       7.916   5.680  19.238  0.00  0.00    +0.000 A 
ATOM      6  N   UNL     1       7.487   4.760  18.384  0.00  0.00    +0.000 NA
ATOM      7  C   UNL     1       7.193   5.222  17.151  0.00  0.00    +0.000 A 
ATOM      8  N   UNL     1       7.329   6.486  16.760  0.00  0.00    +0.000 NA
ATOM      9  H   UNL     1       8.788   9.100  17.419  0.00  0.00    +0.000 HD
ATOM     10  H   UNL     1       7.618   8.731  16.265  0.00  0.00    +0.000 HD
BRANCH   5  11
ATOM     11  O   UNL     1       8.187   5.200  20.499  0.00  0.00    +0.000 OA
ATOM     12  H   UNL     1       9.134   5.294  20.671  0.00  0.00    +0.000 HD
ENDBRANCH   5  11
ENDBRANCH   1   7
BRANCH   1  13
ATOM     13  C   UNL     1       4.855   4.723  15.723  0.00  0.00    +0.000 C 
BRANCH  13  14
ATOM     14  C   UNL     1       4.120   4.749  17.045  0.00  0.00    +0.000 A 
ATOM     15  C   UNL     1       3.676   5.971  17.565  0.00  0.00    +0.000 A 
ATOM     16  C   UNL     1       2.914   6.014  18.730  0.00  0.00    +0.000 A 
ATOM     17  C   UNL     1       2.672   4.848  19.468  0.00  0.00    +0.000 A 
ATOM     18  C   UNL     1       1.942   4.903  20.660  0.00  0.00    +0.000 A 
ATOM     19  C   UNL     1       1.991   3.844  21.553  0.00  0.00    +0.000 A 
ATOM     20  C   UNL     1       2.643   2.664  21.195  0.00  0.00    +0.000 A 
ATOM     21  C   UNL     1       3.179   2.530  19.912  0.00  0.00    +0.000 A 
ATOM     22  C   UNL     1       3.228   3.627  19.035  0.00  0.00    +0.000 A 
ATOM     23  C   UNL     1       3.877   3.576  17.779  0.00  0.00    +0.000 A 
ENDBRANCH  13  14
ENDBRANCH   1  13
TORSDOF 4
ENDMDL
MODEL 2
REMARK VINA RESULT:      -8.3      1.208      1.844
REMARK  Name = 
REMARK  4 active torsions:
REMARK  status: ('A' for Active; 'I' for Inactive)
REMARK    1  A    between atoms: C_4  and  O_5
REMARK    2  A    between atoms: C_7  and  S_8
REMARK    3  A    between atoms: S_8  and  C_9
REMARK    4  A    between atoms: C_9  and  C_10
REMARK                            x       y       z     vdW  Elec       q    Type
REMARK                         _______ _______ _______ _____ _____    ______ ____
ROOT
ATOM      1  S   UNL     1       6.623   4.090  15.874  0.00  0.00    +0.000 S 
ENDROOT
BRANCH   1   7
ATOM      2  N   UNL     1       8.401   5.235  20.366  0.00  0.00    +0.000 N 
ATOM      3  C   UNL     1       7.994   5.728  19.136  0.00  0.00    +0.000 A 
ATOM      4  C   UNL     1       8.111   7.073  18.843  0.00  0.00    +0.000 A 
ATOM      5  C   UNL     1       7.727   7.435  17.587  0.00  0.00    +0.000 A 
ATOM      6  N   UNL     1       7.253   6.608  16.665  0.00  0.00    +0.000 NA
ATOM      7  C   UNL     1       7.189   5.314  17.040  0.00  0.00    +0.000 A 
ATOM      8  N   UNL     1       7.534   4.852  18.240  0.00  0.00    +0.000 NA
ATOM      9  H   UNL     1       7.957   5.704  21.153  0.00  0.00    +0.000 HD
ATOM     10  H   UNL     1       8.195   4.231  20.371  0.00  0.00    +0.000 HD
BRANCH   5  11
ATOM     11  O   UNL     1       7.813   8.747  17.181  0.00  0.00    +0.000 OA
ATOM     12  H   UNL     1       8.149   8.771  16.275  0.00  0.00    +0.000 HD
ENDBRANCH   5  11
ENDBRANCH   1   7
BRANCH   1  13
ATOM     13  C   UNL     1       4.884   4.584  15.660  0.00  0.00    +0.000 C 
BRANCH  13  14
ATOM     14  C   UNL     1       4.158   4.623  16.986  0.00  0.00    +0.000 A 
ATOM     15  C   UNL     1       3.684   5.845  17.478  0.00  0.00    +0.000 A 
ATOM     16  C   UNL     1       2.929   5.896  18.647  0.00  0.00    +0.000 A 
ATOM     17  C   UNL     1       2.723   4.743  19.416  0.00  0.00    +0.000 A 
ATOM     18  C   UNL     1       2.000   4.807  20.611  0.00  0.00    +0.000 A 
ATOM     19  C   UNL     1       2.084   3.773  21.530  0.00  0.00    +0.000 A 
ATOM     20  C   UNL     1       2.765   2.603  21.196  0.00  0.00    +0.000 A 
ATOM     21  C   UNL     1       3.296   2.451  19.913  0.00  0.00    +0.000 A 
ATOM     22  C   UNL     1       3.310   3.527  19.009  0.00  0.00    +0.000 A 
ATOM     23  C   UNL     1       3.951   3.462  17.750  0.00  0.00    +0.000 A 
ENDBRANCH  13  14
ENDBRANCH   1  13
TORSDOF 4
ENDMDL
MODEL 3
REMARK VINA RESULT:      -8.3      0.716      1.659
REMARK  Name = 
REMARK  4 active torsions:
REMARK  status: ('A' for Active; 'I' for Inactive)
REMARK    1  A    between atoms: C_4  and  O_5
REMARK    2  A    between atoms: C_7  and  S_8
REMARK    3  A    between atoms: S_8  and  C_9
REMARK    4  A    between atoms: C_9  and  C_10
REMARK                            x       y       z     vdW  Elec       q    Type
REMARK                         _______ _______ _______ _____ _____    ______ ____
ROOT
ATOM      1  S   UNL     1       6.730   4.165  15.782  0.00  0.00    +0.000 S 
ENDROOT
BRANCH   1   7
ATOM      2  N   UNL     1       7.857   8.757  17.296  0.00  0.00    +0.000 N 
ATOM      3  C   UNL     1       7.786   7.420  17.653  0.00  0.00    +0.000 A 
ATOM      4  C   UNL     1       8.055   7.021  18.947  0.00  0.00    +0.000 A 
ATOM      5  C   UNL     1       7.904   5.690  19.194  0.00  0.00    +0.000 A 
ATOM      6  N   UNL     1       7.538   4.783  18.297  0.00  0.00    +0.000 NA
ATOM      7  C   UNL     1       7.285   5.271  17.066  0.00  0.00    +0.000 A 
ATOM      8  N   UNL     1       7.403   6.550  16.715  0.00  0.00    +0.000 NA
ATOM      9  H   UNL     1       8.758   9.181  17.508  0.00  0.00    +0.000 HD
ATOM     10  H   UNL     1       7.650   8.814  16.293  0.00  0.00    +0.000 HD
BRANCH   5  11
ATOM     11  O   UNL     1       8.133   5.182  20.452  0.00  0.00    +0.000 OA
ATOM     12  H   UNL     1       8.017   4.222  20.426  0.00  0.00    +0.000 HD
ENDBRANCH   5  11
ENDBRANCH   1   7
BRANCH   1  13
ATOM     13  C   UNL     1       4.972   4.621  15.659  0.00  0.00    +0.000 C 
BRANCH  13  14
ATOM     14  C   UNL     1       4.186   4.097  16.841  0.00  0.00    +0.000 A 
ATOM     15  C   UNL     1       3.987   2.719  16.982  0.00  0.00    +0.000 A 
ATOM     16  C   UNL     1       3.351   2.204  18.110  0.00  0.00    +0.000 A 
ATOM     17  C   UNL     1       2.798   3.059  19.071  0.00  0.00    +0.000 A 
ATOM     18  C   UNL     1       2.123   2.538  20.180  0.00  0.00    +0.000 A 
ATOM     19  C   UNL     1       1.294   3.353  20.934  0.00  0.00    +0.000 A 
ATOM     20  C   UNL     1       1.252   4.724  20.681  0.00  0.00    +0.000 A 
ATOM     21  C   UNL     1       2.099   5.278  19.718  0.00  0.00    +0.000 A 
ATOM     22  C   UNL     1       2.866   4.455  18.877  0.00  0.00    +0.000 A 
ATOM     23  C   UNL     1       3.636   4.961  17.804  0.00  0.00    +0.000 A 
ENDBRANCH  13  14
ENDBRANCH   1  13
TORSDOF 4
ENDMDL
MODEL 4
REMARK VINA RESULT:      -8.2      1.397      2.484
REMARK  Name = 
REMARK  4 active torsions:
REMARK  status: ('A' for Active; 'I' for Inactive)
REMARK    1  A    between atoms: C_4  and  O_5
REMARK    2  A    between atoms: C_7  and  S_8
REMARK    3  A    between atoms: S_8  and  C_9
REMARK    4  A    between atoms: C_9  and  C_10
REMARK                            x       y       z     vdW  Elec       q    Type
REMARK                         _______ _______ _______ _____ _____    ______ ____
ROOT
ATOM      1  S   UNL     1       6.740   4.116  15.805  0.00  0.00    +0.000 S 
ENDROOT
BRANCH   1   7
ATOM      2  N   UNL     1       8.424   5.234  20.340  0.00  0.00    +0.000 N 
ATOM      3  C   UNL     1       8.024   5.736  19.111  0.00  0.00    +0.000 A 
ATOM      4  C   UNL     1       8.115   7.087  18.840  0.00  0.00    +0.000 A 
ATOM      5  C   UNL     1       7.741   7.459  17.583  0.00  0.00    +0.000 A 
ATOM      6  N   UNL     1       7.301   6.635  16.642  0.00  0.00    +0.000 NA
ATOM      7  C   UNL     1       7.260   5.334  16.998  0.00  0.00    +0.000 A 
ATOM      8  N   UNL     1       7.598   4.863  18.195  0.00  0.00    +0.000 NA
ATOM      9  H   UNL     1       7.958   5.680  21.127  0.00  0.00    +0.000 HD
ATOM     10  H   UNL     1       8.241   4.225  20.328  0.00  0.00    +0.000 HD
BRANCH   5  11
ATOM     11  O   UNL     1       7.803   8.779  17.198  0.00  0.00    +0.000 OA
ATOM     12  H   UNL     1       8.339   8.843  16.396  0.00  0.00    +0.000 HD
ENDBRANCH   5  11
ENDBRANCH   1   7
BRANCH   1  13
ATOM     13  C   UNL     1       4.972   4.514  15.641  0.00  0.00    +0.000 C 
BRANCH  13  14
ATOM     14  C   UNL     1       4.186   4.025  16.837  0.00  0.00    +0.000 A 
ATOM     15  C   UNL     1       3.981   2.652  17.014  0.00  0.00    +0.000 A 
ATOM     16  C   UNL     1       3.345   2.168  18.155  0.00  0.00    +0.000 A 
ATOM     17  C   UNL     1       2.798   3.050  19.096  0.00  0.00    +0.000 A 
ATOM     18  C   UNL     1       2.124   2.561  20.219  0.00  0.00    +0.000 A 
ATOM     19  C   UNL     1       1.300   3.398  20.954  0.00  0.00    +0.000 A 
ATOM     20  C   UNL     1       1.264   4.762  20.666  0.00  0.00    +0.000 A 
ATOM     21  C   UNL     1       2.112   5.288  19.688  0.00  0.00    +0.000 A 
ATOM     22  C   UNL     1       2.873   4.440  18.866  0.00  0.00    +0.000 A 
ATOM     23  C   UNL     1       3.643   4.915  17.779  0.00  0.00    +0.000 A 
ENDBRANCH  13  14
ENDBRANCH   1  13
TORSDOF 4
ENDMDL
MODEL 5
REMARK VINA RESULT:      -7.9      1.940      3.354
REMARK  Name = 
REMARK  4 active torsions:
REMARK  status: ('A' for Active; 'I' for Inactive)
REMARK    1  A    between atoms: C_4  and  O_5
REMARK    2  A    between atoms: C_7  and  S_8
REMARK    3  A    between atoms: S_8  and  C_9
REMARK    4  A    between atoms: C_9  and  C_10
REMARK                            x       y       z     vdW  Elec       q    Type
REMARK                         _______ _______ _______ _____ _____    ______ ____
ROOT
ATOM      1  S   UNL     1       4.911   4.339  16.987  0.00  0.00    +0.000 S 
ENDROOT
BRANCH   1   7
ATOM      2  N   UNL     1       7.845   8.343  17.098  0.00  0.00    +0.000 N 
ATOM      3  C   UNL     1       7.511   7.151  17.722  0.00  0.00    +0.000 A 
ATOM      4  C   UNL     1       8.107   6.790  18.914  0.00  0.00    +0.000 A 
ATOM      5  C   UNL     1       7.664   5.622  19.460  0.00  0.00    +0.000 A 
ATOM      6  N   UNL     1       6.738   4.834  18.931  0.00  0.00    +0.000 NA
ATOM      7  C   UNL     1       6.206   5.278  17.773  0.00  0.00    +0.000 A 
ATOM      8  N   UNL     1       6.565   6.399  17.153  0.00  0.00    +0.000 NA
ATOM      9  H   UNL     1       8.842   8.437  16.920  0.00  0.00    +0.000 HD
ATOM     10  H   UNL     1       7.309   8.388  16.225  0.00  0.00    +0.000 HD
BRANCH   5  11
ATOM     11  O   UNL     1       8.178   5.171  20.655  0.00  0.00    +0.000 OA
ATOM     12  H   UNL     1       9.129   5.347  20.670  0.00  0.00    +0.000 HD
ENDBRANCH   5  11
ENDBRANCH   1   7
BRANCH   1  13
ATOM     13  C   UNL     1       3.830   3.972  18.404  0.00  0.00    +0.000 C 
BRANCH  13  14
ATOM     14  C   UNL     1       3.125   5.218  18.893  0.00  0.00    +0.000 A 
ATOM     15  C   UNL     1       2.482   5.205  20.136  0.00  0.00    +0.000 A 
ATOM     16  C   UNL     1       1.908   6.365  20.653  0.00  0.00    +0.000 A 
ATOM     17  C   UNL     1       1.863   7.540  19.892  0.00  0.00    +0.000 A 
ATOM     18  C   UNL     1       1.248   8.689  20.398  0.00  0.00    +0.000 A 
ATOM     19  C   UNL     1       0.899   9.723  19.544  0.00  0.00    +0.000 A 
ATOM     20  C   UNL     1       1.299   9.684  18.208  0.00  0.00    +0.000 A 
ATOM     21  C   UNL     1       2.109   8.639  17.757  0.00  0.00    +0.000 A 
ATOM     22  C   UNL     1       2.383   7.534  18.581  0.00  0.00    +0.000 A 
ATOM     23  C   UNL     1       3.086   6.395  18.126  0.00  0.00    +0.000 A 
ENDBRANCH  13  14
ENDBRANCH   1  13
TORSDOF 4
ENDMDL
MODEL 6
REMARK VINA RESULT:      -7.8      2.263      3.593
REMARK  Name = 
REMARK  4 active torsions:
REMARK  status: ('A' for Active; 'I' for Inactive)
REMARK    1  A    between atoms: C_4  and  O_5
REMARK    2  A    between atoms: C_7  and  S_8
REMARK    3  A    between atoms: S_8  and  C_9
REMARK    4  A    between atoms: C_9  and  C_10
REMARK                            x       y       z     vdW  Elec       q    Type
REMARK                         _______ _______ _______ _____ _____    ______ ____
ROOT
ATOM      1  S   UNL     1       4.160   3.129  18.333  0.00  0.00    +0.000 S 
ENDROOT
BRANCH   1   7
ATOM      2  N   UNL     1       7.290   6.014  15.778  0.00  0.00    +0.000 N 
ATOM      3  C   UNL     1       6.967   5.498  17.023  0.00  0.00    +0.000 A 
ATOM      4  C   UNL     1       7.672   5.879  18.148  0.00  0.00    +0.000 A 
ATOM      5  C   UNL     1       7.234   5.347  19.323  0.00  0.00    +0.000 A 
ATOM      6  N   UNL     1       6.215   4.506  19.448  0.00  0.00    +0.000 NA
ATOM      7  C   UNL     1       5.582   4.204  18.296  0.00  0.00    +0.000 A 
ATOM      8  N   UNL     1       5.927   4.664  17.095  0.00  0.00    +0.000 NA
ATOM      9  H   UNL     1       8.265   5.870  15.525  0.00  0.00    +0.000 HD
ATOM     10  H   UNL     1       6.663   5.574  15.096  0.00  0.00    +0.000 HD
BRANCH   5  11
ATOM     11  O   UNL     1       7.853   5.667  20.509  0.00  0.00    +0.000 OA
ATOM     12  H   UNL     1       7.984   4.856  21.020  0.00  0.00    +0.000 HD
ENDBRANCH   5  11
ENDBRANCH   1   7
BRANCH   1  13
ATOM     13  C   UNL     1       2.906   4.173  17.527  0.00  0.00    +0.000 C 
BRANCH  13  14
ATOM     14  C   UNL     1       2.460   5.296  18.437  0.00  0.00    +0.000 A 
ATOM     15  C   UNL     1       2.022   5.001  19.734  0.00  0.00    +0.000 A 
ATOM     16  C   UNL     1       1.698   6.022  20.624  0.00  0.00    +0.000 A 
ATOM     17  C   UNL     1       1.693   7.359  20.207  0.00  0.00    +0.000 A 
ATOM     18  C   UNL     1       1.325   8.377  21.092  0.00  0.00    +0.000 A 
ATOM     19  C   UNL     1       0.990   9.631  20.608  0.00  0.00    +0.000 A 
ATOM     20  C   UNL     1       1.168   9.922  19.256  0.00  0.00    +0.000 A 
ATOM     21  C   UNL     1       1.750   8.973  18.412  0.00  0.00    +0.000 A 
ATOM     22  C   UNL     1       1.997   7.666  18.864  0.00  0.00    +0.000 A 
ATOM     23  C   UNL     1       2.461   6.636  18.014  0.00  0.00    +0.000 A 
ENDBRANCH  13  14
ENDBRANCH   1  13
TORSDOF 4
ENDMDL
MODEL 7
REMARK VINA RESULT:      -7.8      1.010      1.042
REMARK  Name = 
REMARK  4 active torsions:
REMARK  status: ('A' for Active; 'I' for Inactive)
REMARK    1  A    between atoms: C_4  and  O_5
REMARK    2  A    between atoms: C_7  and  S_8
REMARK    3  A    between atoms: S_8  and  C_9
REMARK    4  A    between atoms: C_9  and  C_10
REMARK                            x       y       z     vdW  Elec       q    Type
REMARK                         _______ _______ _______ _____ _____    ______ ____
ROOT
ATOM      1  S   UNL     1       5.962   5.268  15.616  0.00  0.00    +0.000 S 
ENDROOT
BRANCH   1   7
ATOM      2  N   UNL     1       7.933   9.341  17.658  0.00  0.00    +0.000 N 
ATOM      3  C   UNL     1       7.772   7.969  17.768  0.00  0.00    +0.000 A 
ATOM      4  C   UNL     1       8.251   7.291  18.872  0.00  0.00    +0.000 A 
ATOM      5  C   UNL     1       7.991   5.953  18.896  0.00  0.00    +0.000 A 
ATOM      6  N   UNL     1       7.340   5.284  17.953  0.00  0.00    +0.000 NA
ATOM      7  C   UNL     1       6.901   6.036  16.923  0.00  0.00    +0.000 A 
ATOM      8  N   UNL     1       7.101   7.345  16.797  0.00  0.00    +0.000 NA
ATOM      9  H   UNL     1       8.903   9.639  17.735  0.00  0.00    +0.000 HD
ATOM     10  H   UNL     1       7.533   9.621  16.756  0.00  0.00    +0.000 HD
BRANCH   5  11
ATOM     11  O   UNL     1       8.410   5.179  19.954  0.00  0.00    +0.000 OA
ATOM     12  H   UNL     1       7.825   4.412  20.028  0.00  0.00    +0.000 HD
ENDBRANCH   5  11
ENDBRANCH   1   7
BRANCH   1  13
ATOM     13  C   UNL     1       5.606   3.639  16.347  0.00  0.00    +0.000 C 
BRANCH  13  14
ATOM     14  C   UNL     1       4.443   3.714  17.311  0.00  0.00    +0.000 A 
ATOM     15  C   UNL     1       3.376   4.578  17.040  0.00  0.00    +0.000 A 
ATOM     16  C   UNL     1       2.249   4.596  17.858  0.00  0.00    +0.000 A 
ATOM     17  C   UNL     1       2.206   3.832  19.032  0.00  0.00    +0.000 A 
ATOM     18  C   UNL     1       1.090   3.886  19.873  0.00  0.00    +0.000 A 
ATOM     19  C   UNL     1       1.178   3.417  21.174  0.00  0.00    +0.000 A 
ATOM     20  C   UNL     1       2.330   2.754  21.596  0.00  0.00    +0.000 A 
ATOM     21  C   UNL     1       3.358   2.502  20.684  0.00  0.00    +0.000 A 
ATOM     22  C   UNL     1       3.329   3.059  19.395  0.00  0.00    +0.000 A 
ATOM     23  C   UNL     1       4.404   2.942  18.484  0.00  0.00    +0.000 A 
ENDBRANCH  13  14
ENDBRANCH   1  13
TORSDOF 4
ENDMDL
MODEL 8
REMARK VINA RESULT:      -7.8      1.584      2.126
REMARK  Name = 
REMARK  4 active torsions:
REMARK  status: ('A' for Active; 'I' for Inactive)
REMARK    1  A    between atoms: C_4  and  O_5
REMARK    2  A    between atoms: C_7  and  S_8
REMARK    3  A    between atoms: S_8  and  C_9
REMARK    4  A    between atoms: C_9  and  C_10
REMARK                            x       y       z     vdW  Elec       q    Type
REMARK                         _______ _______ _______ _____ _____    ______ ____
ROOT
ATOM      1  S   UNL     1       5.884   5.350  15.653  0.00  0.00    +0.000 S 
ENDROOT
BRANCH   1   7
ATOM      2  N   UNL     1       8.374   5.219  19.946  0.00  0.00    +0.000 N 
ATOM      3  C   UNL     1       7.915   6.021  18.913  0.00  0.00    +0.000 A 
ATOM      4  C   UNL     1       8.236   7.364  18.869  0.00  0.00    +0.000 A 
ATOM      5  C   UNL     1       7.772   8.042  17.781  0.00  0.00    +0.000 A 
ATOM      6  N   UNL     1       7.049   7.514  16.803  0.00  0.00    +0.000 NA
ATOM      7  C   UNL     1       6.799   6.194  16.929  0.00  0.00    +0.000 A 
ATOM      8  N   UNL     1       7.199   5.438  17.948  0.00  0.00    +0.000 NA
ATOM      9  H   UNL     1       8.121   5.568  20.868  0.00  0.00    +0.000 HD
ATOM     10  H   UNL     1       7.993   4.280  19.791  0.00  0.00    +0.000 HD
BRANCH   5  11
ATOM     11  O   UNL     1       8.043   9.382  17.626  0.00  0.00    +0.000 OA
ATOM     12  H   UNL     1       8.431   9.521  16.752  0.00  0.00    +0.000 HD
ENDBRANCH   5  11
ENDBRANCH   1   7
BRANCH   1  13
ATOM     13  C   UNL     1       5.626   3.720  16.421  0.00  0.00    +0.000 C 
BRANCH  13  14
ATOM     14  C   UNL     1       4.444   3.740  17.365  0.00  0.00    +0.000 A 
ATOM     15  C   UNL     1       3.328   4.528  17.058  0.00  0.00    +0.000 A 
ATOM     16  C   UNL     1       2.189   4.490  17.859  0.00  0.00    +0.000 A 
ATOM     17  C   UNL     1       2.176   3.750  19.048  0.00  0.00    +0.000 A 
ATOM     18  C   UNL     1       1.044   3.750  19.870  0.00  0.00    +0.000 A 
ATOM     19  C   UNL     1       1.140   3.316  21.183  0.00  0.00    +0.000 A 
ATOM     20  C   UNL     1       2.325   2.738  21.637  0.00  0.00    +0.000 A 
ATOM     21  C   UNL     1       3.383   2.533  20.748  0.00  0.00    +0.000 A 
ATOM     22  C   UNL     1       3.339   3.060  19.446  0.00  0.00    +0.000 A 
ATOM     23  C   UNL     1       4.435   2.993  18.555  0.00  0.00    +0.000 A 
ENDBRANCH  13  14
ENDBRANCH   1  13
TORSDOF 4
ENDMDL
MODEL 9
REMARK VINA RESULT:      -7.8      3.132      4.013
REMARK  Name = 
REMARK  4 active torsions:
REMARK  status: ('A' for Active; 'I' for Inactive)
REMARK    1  A    between atoms: C_4  and  O_5
REMARK    2  A    between atoms: C_7  and  S_8
REMARK    3  A    between atoms: S_8  and  C_9
REMARK    4  A    between atoms: C_9  and  C_10
REMARK                            x       y       z     vdW  Elec       q    Type
REMARK                         _______ _______ _______ _____ _____    ______ ____
ROOT
ATOM      1  S   UNL     1       6.774   4.593  16.527  0.00  0.00    +0.000 S 
ENDROOT
BRANCH   1   7
ATOM      2  N   UNL     1       5.655   2.664  12.091  0.00  0.00    +0.000 N 
ATOM      3  C   UNL     1       6.411   3.605  12.772  0.00  0.00    +0.000 A 
ATOM      4  C   UNL     1       7.204   4.503  12.084  0.00  0.00    +0.000 A 
ATOM      5  C   UNL     1       7.862   5.414  12.855  0.00  0.00    +0.000 A 
ATOM      6  N   UNL     1       7.800   5.482  14.178  0.00  0.00    +0.000 NA
ATOM      7  C   UNL     1       6.990   4.572  14.757  0.00  0.00    +0.000 A 
ATOM      8  N   UNL     1       6.304   3.639  14.103  0.00  0.00    +0.000 NA
ATOM      9  H   UNL     1       6.207   2.083  11.464  0.00  0.00    +0.000 HD
ATOM     10  H   UNL     1       5.176   2.094  12.796  0.00  0.00    +0.000 HD
BRANCH   5  11
ATOM     11  O   UNL     1       8.671   6.364  12.275  0.00  0.00    +0.000 OA
ATOM     12  H   UNL     1       8.395   7.238  12.586  0.00  0.00    +0.000 HD
ENDBRANCH   5  11
ENDBRANCH   1   7
BRANCH   1  13
ATOM     13  C   UNL     1       5.519   5.898  16.714  0.00  0.00    +0.000 C 
BRANCH  13  14
ATOM     14  C   UNL     1       4.410   5.463  17.648  0.00  0.00    +0.000 A 
ATOM     15  C   UNL     1       3.278   6.271  17.799  0.00  0.00    +0.000 A 
ATOM     16  C   UNL     1       2.201   5.849  18.576  0.00  0.00    +0.000 A 
ATOM     17  C   UNL     1       2.275   4.660  19.313  0.00  0.00    +0.000 A 
ATOM     18  C   UNL     1       1.208   4.262  20.124  0.00  0.00    +0.000 A 
ATOM     19  C   UNL     1       1.400   3.296  21.099  0.00  0.00    +0.000 A 
ATOM     20  C   UNL     1       2.614   2.612  21.168  0.00  0.00    +0.000 A 
ATOM     21  C   UNL     1       3.601   2.854  20.210  0.00  0.00    +0.000 A 
ATOM     22  C   UNL     1       3.462   3.900  19.282  0.00  0.00    +0.000 A 
ATOM     23  C   UNL     1       4.488   4.266  18.381  0.00  0.00    +0.000 A 
ENDBRANCH  13  14
ENDBRANCH   1  13
TORSDOF 4
ENDMDL
