MODEL 1
REMARK VINA RESULT:      -6.1      0.000      0.000
REMARK  Name = 
REMARK  16 active torsions:
REMARK  status: ('A' for Active; 'I' for Inactive)
REMARK    1  A    between atoms: C_1  and  N_2
REMARK    2  A    between atoms: N_2  and  C_3
REMARK    3  A    between atoms: N_2  and  C_4
REMARK    4  A    between atoms: N_7  and  C_8
REMARK    5  A    between atoms: C_8  and  C_9
REMARK    6  A    between atoms: C_9  and  C_10
REMARK    7  A    between atoms: C_10  and  C_11
REMARK    8  A    between atoms: C_11  and  C_12
REMARK    9  A    between atoms: C_12  and  C_13
REMARK   10  A    between atoms: C_13  and  C_14
REMARK   11  A    between atoms: C_14  and  C_15
REMARK   12  A    between atoms: C_15  and  C_16
REMARK   13  A    between atoms: C_16  and  N_17
REMARK   14  A    between atoms: C_20  and  N_21
REMARK   15  A    between atoms: N_21  and  C_22
REMARK   16  A    between atoms: N_21  and  C_23
REMARK                            x       y       z     vdW  Elec       q    Type
REMARK                         _______ _______ _______ _____ _____    ______ ____
ROOT
ATOM      1  C   UNL     1       1.887   6.468  20.252  0.00  0.00    +0.000 C 
ENDROOT
BRANCH   1   2
ATOM      2  C   UNL     1       2.012   5.178  21.067  0.00  0.00    +0.000 C 
BRANCH   2   3
ATOM      3  C   UNL     1       1.258   3.996  20.443  0.00  0.00    +0.000 C 
BRANCH   3   4
ATOM      4  C   UNL     1       2.056   2.693  20.451  0.00  0.00    +0.000 C 
BRANCH   4   5
ATOM      5  C   UNL     1       2.346   2.211  19.033  0.00  0.00    +0.000 C 
BRANCH   5   9
ATOM      6  C   UNL     1       5.580   4.439  17.384  0.00  0.00    +0.000 A 
ATOM      7  C   UNL     1       4.482   4.036  16.611  0.00  0.00    +0.000 A 
ATOM      8  C   UNL     1       3.444   3.308  17.164  0.00  0.00    +0.000 A 
ATOM      9  N   UNL     1       3.468   2.976  18.469  0.00  0.00    +0.000 N 
ATOM     10  C   UNL     1       4.511   3.321  19.249  0.00  0.00    +0.000 A 
ATOM     11  C   UNL     1       5.578   4.040  18.722  0.00  0.00    +0.000 A 
BRANCH   6  13
ATOM     12  C   UNL     1       6.946   4.972  15.414  0.00  0.00    +0.000 C 
ATOM     13  N   UNL     1       6.612   5.177  16.826  0.00  0.00    +0.000 N 
ATOM     14  C   UNL     1       7.065   6.431  17.426  0.00  0.00    +0.000 C 
ENDBRANCH   6  13
ENDBRANCH   5   9
ENDBRANCH   4   5
ENDBRANCH   3   4
ENDBRANCH   2   3
ENDBRANCH   1   2
BRANCH   1  15
ATOM     15  C   UNL     1       2.744   6.459  18.983  0.00  0.00    +0.000 C 
BRANCH  15  16
ATOM     16  C   UNL     1       2.293   7.490  17.940  0.00  0.00    +0.000 C 
BRANCH  16  17
ATOM     17  C   UNL     1       2.262   8.923  18.472  0.00  0.00    +0.000 C 
BRANCH  17  18
ATOM     18  C   UNL     1       0.956   9.612  18.104  0.00  0.00    +0.000 C 
BRANCH  18  19
ATOM     19  N   UNL     1       0.482  10.422  19.235  0.00  0.00    +0.000 N 
ATOM     20  C   UNL     1       0.623   9.958  20.490  0.00  0.00    +0.000 A 
ATOM     21  C   UNL     1       0.088  10.662  21.561  0.00  0.00    +0.000 A 
ATOM     22  C   UNL     1      -0.616  11.853  21.374  0.00  0.00    +0.000 A 
ATOM     23  C   UNL     1      -0.700  12.316  20.057  0.00  0.00    +0.000 A 
ATOM     24  C   UNL     1      -0.146  11.595  19.004  0.00  0.00    +0.000 A 
BRANCH  22  25
ATOM     25  N   UNL     1      -1.237  12.509  22.414  0.00  0.00    +0.000 N 
ATOM     26  C   UNL     1      -0.847  13.852  22.848  0.00  0.00    +0.000 C 
ATOM     27  C   UNL     1      -2.196  11.846  23.304  0.00  0.00    +0.000 C 
ENDBRANCH  22  25
ENDBRANCH  18  19
ENDBRANCH  17  18
ENDBRANCH  16  17
ENDBRANCH  15  16
ENDBRANCH   1  15
TORSDOF 12
ENDMDL
MODEL 2
REMARK VINA RESULT:      -6.0      5.237     10.086
REMARK  Name = 
REMARK  16 active torsions:
REMARK  status: ('A' for Active; 'I' for Inactive)
REMARK    1  A    between atoms: C_1  and  N_2
REMARK    2  A    between atoms: N_2  and  C_3
REMARK    3  A    between atoms: N_2  and  C_4
REMARK    4  A    between atoms: N_7  and  C_8
REMARK    5  A    between atoms: C_8  and  C_9
REMARK    6  A    between atoms: C_9  and  C_10
REMARK    7  A    between atoms: C_10  and  C_11
REMARK    8  A    between atoms: C_11  and  C_12
REMARK    9  A    between atoms: C_12  and  C_13
REMARK   10  A    between atoms: C_13  and  C_14
REMARK   11  A    between atoms: C_14  and  C_15
REMARK   12  A    between atoms: C_15  and  C_16
REMARK   13  A    between atoms: C_16  and  N_17
REMARK   14  A    between atoms: C_20  and  N_21
REMARK   15  A    between atoms: N_21  and  C_22
REMARK   16  A    between atoms: N_21  and  C_23
REMARK                            x       y       z     vdW  Elec       q    Type
REMARK                         _______ _______ _______ _____ _____    ______ ____
ROOT
ATOM      1  C   UNL     1       8.102   9.541  17.835  0.00  0.00    +0.000 C 
ENDROOT
BRANCH   1   2
ATOM      2  C   UNL     1       9.242  10.450  18.303  0.00  0.00    +0.000 C 
BRANCH   2   3
ATOM      3  C   UNL     1       9.422  10.456  19.826  0.00  0.00    +0.000 C 
BRANCH   3   4
ATOM      4  C   UNL     1       9.688  11.847  20.401  0.00  0.00    +0.000 C 
BRANCH   4   5
ATOM      5  C   UNL     1       9.891  12.876  19.294  0.00  0.00    +0.000 C 
BRANCH   5   9
ATOM      6  C   UNL     1       6.586  15.562  19.216  0.00  0.00    +0.000 A 
ATOM      7  C   UNL     1       7.103  15.051  20.415  0.00  0.00    +0.000 A 
ATOM      8  C   UNL     1       8.174  14.176  20.419  0.00  0.00    +0.000 A 
ATOM      9  N   UNL     1       8.747  13.801  19.260  0.00  0.00    +0.000 N 
ATOM     10  C   UNL     1       8.273  14.246  18.080  0.00  0.00    +0.000 A 
ATOM     11  C   UNL     1       7.188  15.115  18.039  0.00  0.00    +0.000 A 
BRANCH   6  13
ATOM     12  C   UNL     1       4.204  15.972  18.782  0.00  0.00    +0.000 C 
ATOM     13  N   UNL     1       5.519  16.447  19.220  0.00  0.00    +0.000 N 
ATOM     14  C   UNL     1       5.533  17.656  20.041  0.00  0.00    +0.000 C 
ENDBRANCH   6  13
ENDBRANCH   5   9
ENDBRANCH   4   5
ENDBRANCH   3   4
ENDBRANCH   2   3
ENDBRANCH   1   2
BRANCH   1  15
ATOM     15  C   UNL     1       8.237   8.103  18.345  0.00  0.00    +0.000 C 
BRANCH  15  16
ATOM     16  C   UNL     1       7.426   7.091  17.524  0.00  0.00    +0.000 C 
BRANCH  16  17
ATOM     17  C   UNL     1       7.437   5.680  18.113  0.00  0.00    +0.000 C 
BRANCH  17  18
ATOM     18  C   UNL     1       6.779   4.688  17.165  0.00  0.00    +0.000 C 
BRANCH  18  19
ATOM     19  N   UNL     1       5.480   4.266  17.706  0.00  0.00    +0.000 N 
ATOM     20  C   UNL     1       4.495   3.900  16.864  0.00  0.00    +0.000 A 
ATOM     21  C   UNL     1       3.231   3.600  17.354  0.00  0.00    +0.000 A 
ATOM     22  C   UNL     1       2.938   3.678  18.716  0.00  0.00    +0.000 A 
ATOM     23  C   UNL     1       4.002   4.023  19.555  0.00  0.00    +0.000 A 
ATOM     24  C   UNL     1       5.261   4.309  19.038  0.00  0.00    +0.000 A 
BRANCH  22  25
ATOM     25  N   UNL     1       1.665   3.481  19.205  0.00  0.00    +0.000 N 
ATOM     26  C   UNL     1       1.138   4.210  20.360  0.00  0.00    +0.000 C 
ATOM     27  C   UNL     1       0.805   2.384  18.744  0.00  0.00    +0.000 C 
ENDBRANCH  22  25
ENDBRANCH  18  19
ENDBRANCH  17  18
ENDBRANCH  16  17
ENDBRANCH  15  16
ENDBRANCH   1  15
TORSDOF 12
ENDMDL
MODEL 3
REMARK VINA RESULT:      -5.9      2.008      2.696
REMARK  Name = 
REMARK  16 active torsions:
REMARK  status: ('A' for Active; 'I' for Inactive)
REMARK    1  A    between atoms: C_1  and  N_2
REMARK    2  A    between atoms: N_2  and  C_3
REMARK    3  A    between atoms: N_2  and  C_4
REMARK    4  A    between atoms: N_7  and  C_8
REMARK    5  A    between atoms: C_8  and  C_9
REMARK    6  A    between atoms: C_9  and  C_10
REMARK    7  A    between atoms: C_10  and  C_11
REMARK    8  A    between atoms: C_11  and  C_12
REMARK    9  A    between atoms: C_12  and  C_13
REMARK   10  A    between atoms: C_13  and  C_14
REMARK   11  A    between atoms: C_14  and  C_15
REMARK   12  A    between atoms: C_15  and  C_16
REMARK   13  A    between atoms: C_16  and  N_17
REMARK   14  A    between atoms: C_20  and  N_21
REMARK   15  A    between atoms: N_21  and  C_22
REMARK   16  A    between atoms: N_21  and  C_23
REMARK                            x       y       z     vdW  Elec       q    Type
REMARK                         _______ _______ _______ _____ _____    ______ ____
ROOT
ATOM      1  C   UNL     1       2.504   5.819  19.981  0.00  0.00    +0.000 C 
ENDROOT
BRANCH   1   2
ATOM      2  C   UNL     1       1.417   5.231  20.885  0.00  0.00    +0.000 C 
BRANCH   2   3
ATOM      3  C   UNL     1       1.170   3.737  20.639  0.00  0.00    +0.000 C 
BRANCH   3   4
ATOM      4  C   UNL     1       1.288   3.335  19.170  0.00  0.00    +0.000 C 
BRANCH   4   5
ATOM      5  C   UNL     1       2.472   2.401  18.942  0.00  0.00    +0.000 C 
BRANCH   5   9
ATOM      6  C   UNL     1       5.705   4.549  17.189  0.00  0.00    +0.000 A 
ATOM      7  C   UNL     1       5.729   4.127  18.526  0.00  0.00    +0.000 A 
ATOM      8  C   UNL     1       4.666   3.435  19.078  0.00  0.00    +0.000 A 
ATOM      9  N   UNL     1       3.583   3.147  18.332  0.00  0.00    +0.000 N 
ATOM     10  C   UNL     1       3.502   3.550  17.049  0.00  0.00    +0.000 A 
ATOM     11  C   UNL     1       4.545   4.261  16.467  0.00  0.00    +0.000 A 
BRANCH   6  13
ATOM     12  C   UNL     1       7.139   4.978  15.242  0.00  0.00    +0.000 C 
ATOM     13  N   UNL     1       6.777   5.234  16.639  0.00  0.00    +0.000 N 
ATOM     14  C   UNL     1       7.259   6.488  17.216  0.00  0.00    +0.000 C 
ENDBRANCH   6  13
ENDBRANCH   5   9
ENDBRANCH   4   5
ENDBRANCH   3   4
ENDBRANCH   2   3
ENDBRANCH   1   2
BRANCH   1  15
ATOM     15  C   UNL     1       2.242   7.280  19.604  0.00  0.00    +0.000 C 
BRANCH  15  16
ATOM     16  C   UNL     1       2.385   7.552  18.101  0.00  0.00    +0.000 C 
BRANCH  16  17
ATOM     17  C   UNL     1       2.080   8.999  17.711  0.00  0.00    +0.000 C 
BRANCH  17  18
ATOM     18  C   UNL     1       1.073   9.620  18.669  0.00  0.00    +0.000 C 
BRANCH  18  19
ATOM     19  N   UNL     1       1.279  11.073  18.737  0.00  0.00    +0.000 N 
ATOM     20  C   UNL     1       2.310  11.630  18.076  0.00  0.00    +0.000 A 
ATOM     21  C   UNL     1       2.581  12.986  18.215  0.00  0.00    +0.000 A 
ATOM     22  C   UNL     1       1.811  13.803  19.044  0.00  0.00    +0.000 A 
ATOM     23  C   UNL     1       0.727  13.188  19.678  0.00  0.00    +0.000 A 
ATOM     24  C   UNL     1       0.473  11.830  19.513  0.00  0.00    +0.000 A 
BRANCH  22  25
ATOM     25  N   UNL     1       2.127  15.125  19.269  0.00  0.00    +0.000 N 
ATOM     26  C   UNL     1       1.157  16.209  19.108  0.00  0.00    +0.000 C 
ATOM     27  C   UNL     1       3.505  15.580  19.486  0.00  0.00    +0.000 C 
ENDBRANCH  22  25
ENDBRANCH  18  19
ENDBRANCH  17  18
ENDBRANCH  16  17
ENDBRANCH  15  16
ENDBRANCH   1  15
TORSDOF 12
ENDMDL
MODEL 4
REMARK VINA RESULT:      -5.8      6.160      9.061
REMARK  Name = 
REMARK  16 active torsions:
REMARK  status: ('A' for Active; 'I' for Inactive)
REMARK    1  A    between atoms: C_1  and  N_2
REMARK    2  A    between atoms: N_2  and  C_3
REMARK    3  A    between atoms: N_2  and  C_4
REMARK    4  A    between atoms: N_7  and  C_8
REMARK    5  A    between atoms: C_8  and  C_9
REMARK    6  A    between atoms: C_9  and  C_10
REMARK    7  A    between atoms: C_10  and  C_11
REMARK    8  A    between atoms: C_11  and  C_12
REMARK    9  A    between atoms: C_12  and  C_13
REMARK   10  A    between atoms: C_13  and  C_14
REMARK   11  A    between atoms: C_14  and  C_15
REMARK   12  A    between atoms: C_15  and  C_16
REMARK   13  A    between atoms: C_16  and  N_17
REMARK   14  A    between atoms: C_20  and  N_21
REMARK   15  A    between atoms: N_21  and  C_22
REMARK   16  A    between atoms: N_21  and  C_23
REMARK                            x       y       z     vdW  Elec       q    Type
REMARK                         _______ _______ _______ _____ _____    ______ ____
ROOT
ATOM      1  C   UNL     1       8.080   7.060  18.375  0.00  0.00    +0.000 C 
ENDROOT
BRANCH   1   2
ATOM      2  C   UNL     1       6.747   6.306  18.380  0.00  0.00    +0.000 C 
BRANCH   2   3
ATOM      3  C   UNL     1       6.149   6.129  16.979  0.00  0.00    +0.000 C 
BRANCH   3   4
ATOM      4  C   UNL     1       4.787   6.801  16.809  0.00  0.00    +0.000 C 
BRANCH   4   5
ATOM      5  C   UNL     1       3.701   6.056  17.577  0.00  0.00    +0.000 C 
BRANCH   5   9
ATOM      6  C   UNL     1       1.354   8.826  19.805  0.00  0.00    +0.000 A 
ATOM      7  C   UNL     1       1.767   7.598  20.342  0.00  0.00    +0.000 A 
ATOM      8  C   UNL     1       2.524   6.709  19.600  0.00  0.00    +0.000 A 
ATOM      9  N   UNL     1       2.886   7.015  18.340  0.00  0.00    +0.000 N 
ATOM     10  C   UNL     1       2.497   8.172  17.771  0.00  0.00    +0.000 A 
ATOM     11  C   UNL     1       1.722   9.081  18.483  0.00  0.00    +0.000 A 
BRANCH   6  13
ATOM     12  C   UNL     1       0.084   9.283  21.857  0.00  0.00    +0.000 C 
ATOM     13  N   UNL     1       0.604   9.716  20.557  0.00  0.00    +0.000 N 
ATOM     14  C   UNL     1       0.688  11.159  20.339  0.00  0.00    +0.000 C 
ENDBRANCH   6  13
ENDBRANCH   5   9
ENDBRANCH   4   5
ENDBRANCH   3   4
ENDBRANCH   2   3
ENDBRANCH   1   2
BRANCH   1  15
ATOM     15  C   UNL     1       7.950   8.497  17.858  0.00  0.00    +0.000 C 
BRANCH  15  16
ATOM     16  C   UNL     1       8.769   9.509  18.671  0.00  0.00    +0.000 C 
BRANCH  16  17
ATOM     17  C   UNL     1       8.841  10.893  18.026  0.00  0.00    +0.000 C 
BRANCH  17  18
ATOM     18  C   UNL     1      10.285  11.303  17.777  0.00  0.00    +0.000 C 
BRANCH  18  19
ATOM     19  N   UNL     1      10.394  12.768  17.770  0.00  0.00    +0.000 N 
ATOM     20  C   UNL     1      11.318  13.363  16.992  0.00  0.00    +0.000 A 
ATOM     21  C   UNL     1      11.505  14.738  17.052  0.00  0.00    +0.000 A 
ATOM     22  C   UNL     1      10.759  15.539  17.919  0.00  0.00    +0.000 A 
ATOM     23  C   UNL     1       9.784  14.882  18.676  0.00  0.00    +0.000 A 
ATOM     24  C   UNL     1       9.612  13.504  18.589  0.00  0.00    +0.000 A 
BRANCH  22  25
ATOM     25  N   UNL     1      11.001  16.887  18.062  0.00  0.00    +0.000 N 
ATOM     26  C   UNL     1      10.060  17.913  17.606  0.00  0.00    +0.000 C 
ATOM     27  C   UNL     1      12.301  17.414  18.490  0.00  0.00    +0.000 C 
ENDBRANCH  22  25
ENDBRANCH  18  19
ENDBRANCH  17  18
ENDBRANCH  16  17
ENDBRANCH  15  16
ENDBRANCH   1  15
TORSDOF 12
ENDMDL
MODEL 5
REMARK VINA RESULT:      -5.8      5.310      7.348
REMARK  Name = 
REMARK  16 active torsions:
REMARK  status: ('A' for Active; 'I' for Inactive)
REMARK    1  A    between atoms: C_1  and  N_2
REMARK    2  A    between atoms: N_2  and  C_3
REMARK    3  A    between atoms: N_2  and  C_4
REMARK    4  A    between atoms: N_7  and  C_8
REMARK    5  A    between atoms: C_8  and  C_9
REMARK    6  A    between atoms: C_9  and  C_10
REMARK    7  A    between atoms: C_10  and  C_11
REMARK    8  A    between atoms: C_11  and  C_12
REMARK    9  A    between atoms: C_12  and  C_13
REMARK   10  A    between atoms: C_13  and  C_14
REMARK   11  A    between atoms: C_14  and  C_15
REMARK   12  A    between atoms: C_15  and  C_16
REMARK   13  A    between atoms: C_16  and  N_17
REMARK   14  A    between atoms: C_20  and  N_21
REMARK   15  A    between atoms: N_21  and  C_22
REMARK   16  A    between atoms: N_21  and  C_23
REMARK                            x       y       z     vdW  Elec       q    Type
REMARK                         _______ _______ _______ _____ _____    ______ ____
ROOT
ATOM      1  C   UNL     1       7.896   7.403  18.235  0.00  0.00    +0.000 C 
ENDROOT
BRANCH   1   2
ATOM      2  C   UNL     1       7.355   6.473  17.145  0.00  0.00    +0.000 C 
BRANCH   2   3
ATOM      3  C   UNL     1       5.949   6.858  16.667  0.00  0.00    +0.000 C 
BRANCH   3   4
ATOM      4  C   UNL     1       5.337   5.845  15.701  0.00  0.00    +0.000 C 
BRANCH   4   5
ATOM      5  C   UNL     1       5.585   4.414  16.165  0.00  0.00    +0.000 C 
BRANCH   5   9
ATOM      6  C   UNL     1       2.845   3.417  19.270  0.00  0.00    +0.000 A 
ATOM      7  C   UNL     1       4.233   3.346  19.450  0.00  0.00    +0.000 A 
ATOM      8  C   UNL     1       5.107   3.669  18.428  0.00  0.00    +0.000 A 
ATOM      9  N   UNL     1       4.633   4.066  17.231  0.00  0.00    +0.000 N 
ATOM     10  C   UNL     1       3.308   4.129  17.001  0.00  0.00    +0.000 A 
ATOM     11  C   UNL     1       2.402   3.796  18.001  0.00  0.00    +0.000 A 
BRANCH   6  13
ATOM     12  C   UNL     1       0.582   2.778  19.979  0.00  0.00    +0.000 C 
ATOM     13  N   UNL     1       1.975   3.101  20.301  0.00  0.00    +0.000 N 
ATOM     14  C   UNL     1       2.465   2.641  21.599  0.00  0.00    +0.000 C 
ENDBRANCH   6  13
ENDBRANCH   5   9
ENDBRANCH   4   5
ENDBRANCH   3   4
ENDBRANCH   2   3
ENDBRANCH   1   2
BRANCH   1  15
ATOM     15  C   UNL     1       7.954   8.869  17.794  0.00  0.00    +0.000 C 
BRANCH  15  16
ATOM     16  C   UNL     1       8.874   9.729  18.671  0.00  0.00    +0.000 C 
BRANCH  16  17
ATOM     17  C   UNL     1       9.324  11.025  17.995  0.00  0.00    +0.000 C 
BRANCH  17  18
ATOM     18  C   UNL     1      10.325  11.772  18.864  0.00  0.00    +0.000 C 
BRANCH  18  19
ATOM     19  N   UNL     1       9.618  12.504  19.924  0.00  0.00    +0.000 N 
ATOM     20  C   UNL     1       8.710  13.441  19.594  0.00  0.00    +0.000 A 
ATOM     21  C   UNL     1       8.110  14.213  20.580  0.00  0.00    +0.000 A 
ATOM     22  C   UNL     1       8.434  14.056  21.928  0.00  0.00    +0.000 A 
ATOM     23  C   UNL     1       9.352  13.044  22.226  0.00  0.00    +0.000 A 
ATOM     24  C   UNL     1       9.930  12.278  21.218  0.00  0.00    +0.000 A 
BRANCH  22  25
ATOM     25  N   UNL     1       7.923  14.881  22.906  0.00  0.00    +0.000 N 
ATOM     26  C   UNL     1       6.633  15.562  22.773  0.00  0.00    +0.000 C 
ATOM     27  C   UNL     1       8.711  15.311  24.066  0.00  0.00    +0.000 C 
ENDBRANCH  22  25
ENDBRANCH  18  19
ENDBRANCH  17  18
ENDBRANCH  16  17
ENDBRANCH  15  16
ENDBRANCH   1  15
TORSDOF 12
ENDMDL
MODEL 6
REMARK VINA RESULT:      -5.8      2.185      8.935
REMARK  Name = 
REMARK  16 active torsions:
REMARK  status: ('A' for Active; 'I' for Inactive)
REMARK    1  A    between atoms: C_1  and  N_2
REMARK    2  A    between atoms: N_2  and  C_3
REMARK    3  A    between atoms: N_2  and  C_4
REMARK    4  A    between atoms: N_7  and  C_8
REMARK    5  A    between atoms: C_8  and  C_9
REMARK    6  A    between atoms: C_9  and  C_10
REMARK    7  A    between atoms: C_10  and  C_11
REMARK    8  A    between atoms: C_11  and  C_12
REMARK    9  A    between atoms: C_12  and  C_13
REMARK   10  A    between atoms: C_13  and  C_14
REMARK   11  A    between atoms: C_14  and  C_15
REMARK   12  A    between atoms: C_15  and  C_16
REMARK   13  A    between atoms: C_16  and  N_17
REMARK   14  A    between atoms: C_20  and  N_21
REMARK   15  A    between atoms: N_21  and  C_22
REMARK   16  A    between atoms: N_21  and  C_23
REMARK                            x       y       z     vdW  Elec       q    Type
REMARK                         _______ _______ _______ _____ _____    ______ ____
ROOT
ATOM      1  C   UNL     1       4.317   6.916  17.774  0.00  0.00    +0.000 C 
ENDROOT
BRANCH   1   2
ATOM      2  C   UNL     1       2.804   7.079  17.603  0.00  0.00    +0.000 C 
BRANCH   2   3
ATOM      3  C   UNL     1       2.167   7.968  18.678  0.00  0.00    +0.000 C 
BRANCH   3   4
ATOM      4  C   UNL     1       1.780   9.356  18.168  0.00  0.00    +0.000 C 
BRANCH   4   5
ATOM      5  C   UNL     1       1.179  10.209  19.281  0.00  0.00    +0.000 C 
BRANCH   5   9
ATOM      6  C   UNL     1      -2.791  11.333  18.224  0.00  0.00    +0.000 A 
ATOM      7  C   UNL     1      -2.073  10.367  17.505  0.00  0.00    +0.000 A 
ATOM      8  C   UNL     1      -0.783  10.020  17.860  0.00  0.00    +0.000 A 
ATOM      9  N   UNL     1      -0.190  10.605  18.918  0.00  0.00    +0.000 N 
ATOM     10  C   UNL     1      -0.830  11.554  19.629  0.00  0.00    +0.000 A 
ATOM     11  C   UNL     1      -2.122  11.938  19.289  0.00  0.00    +0.000 A 
BRANCH   6  13
ATOM     12  C   UNL     1      -4.586  11.272  16.549  0.00  0.00    +0.000 C 
ATOM     13  N   UNL     1      -4.088  11.669  17.869  0.00  0.00    +0.000 N 
ATOM     14  C   UNL     1      -5.098  11.985  18.877  0.00  0.00    +0.000 C 
ENDBRANCH   6  13
ENDBRANCH   5   9
ENDBRANCH   4   5
ENDBRANCH   3   4
ENDBRANCH   2   3
ENDBRANCH   1   2
BRANCH   1  15
ATOM     15  C   UNL     1       5.103   7.284  16.512  0.00  0.00    +0.000 C 
BRANCH  15  16
ATOM     16  C   UNL     1       5.225   6.124  15.515  0.00  0.00    +0.000 C 
BRANCH  16  17
ATOM     17  C   UNL     1       6.343   5.139  15.860  0.00  0.00    +0.000 C 
BRANCH  17  18
ATOM     18  C   UNL     1       5.792   3.731  16.038  0.00  0.00    +0.000 C 
BRANCH  18  19
ATOM     19  N   UNL     1       4.828   3.708  17.146  0.00  0.00    +0.000 N 
ATOM     20  C   UNL     1       5.267   3.832  18.413  0.00  0.00    +0.000 A 
ATOM     21  C   UNL     1       4.382   3.708  19.476  0.00  0.00    +0.000 A 
ATOM     22  C   UNL     1       3.028   3.440  19.271  0.00  0.00    +0.000 A 
ATOM     23  C   UNL     1       2.612   3.359  17.939  0.00  0.00    +0.000 A 
ATOM     24  C   UNL     1       3.518   3.498  16.893  0.00  0.00    +0.000 A 
BRANCH  22  25
ATOM     25  N   UNL     1       2.159   3.215  20.316  0.00  0.00    +0.000 N 
ATOM     26  C   UNL     1       0.770   3.679  20.306  0.00  0.00    +0.000 C 
ATOM     27  C   UNL     1       2.601   2.678  21.608  0.00  0.00    +0.000 C 
ENDBRANCH  22  25
ENDBRANCH  18  19
ENDBRANCH  17  18
ENDBRANCH  16  17
ENDBRANCH  15  16
ENDBRANCH   1  15
TORSDOF 12
ENDMDL
MODEL 7
REMARK VINA RESULT:      -5.8      6.914      9.268
REMARK  Name = 
REMARK  16 active torsions:
REMARK  status: ('A' for Active; 'I' for Inactive)
REMARK    1  A    between atoms: C_1  and  N_2
REMARK    2  A    between atoms: N_2  and  C_3
REMARK    3  A    between atoms: N_2  and  C_4
REMARK    4  A    between atoms: N_7  and  C_8
REMARK    5  A    between atoms: C_8  and  C_9
REMARK    6  A    between atoms: C_9  and  C_10
REMARK    7  A    between atoms: C_10  and  C_11
REMARK    8  A    between atoms: C_11  and  C_12
REMARK    9  A    between atoms: C_12  and  C_13
REMARK   10  A    between atoms: C_13  and  C_14
REMARK   11  A    between atoms: C_14  and  C_15
REMARK   12  A    between atoms: C_15  and  C_16
REMARK   13  A    between atoms: C_16  and  N_17
REMARK   14  A    between atoms: C_20  and  N_21
REMARK   15  A    between atoms: N_21  and  C_22
REMARK   16  A    between atoms: N_21  and  C_23
REMARK                            x       y       z     vdW  Elec       q    Type
REMARK                         _______ _______ _______ _____ _____    ______ ____
ROOT
ATOM      1  C   UNL     1       7.831   9.187  17.983  0.00  0.00    +0.000 C 
ENDROOT
BRANCH   1   2
ATOM      2  C   UNL     1       7.952   7.727  17.536  0.00  0.00    +0.000 C 
BRANCH   2   3
ATOM      3  C   UNL     1       6.604   6.996  17.493  0.00  0.00    +0.000 C 
BRANCH   3   4
ATOM      4  C   UNL     1       6.624   5.734  16.631  0.00  0.00    +0.000 C 
BRANCH   4   5
ATOM      5  C   UNL     1       5.275   5.497  15.962  0.00  0.00    +0.000 C 
BRANCH   5   9
ATOM      6  C   UNL     1       2.561   3.752  18.743  0.00  0.00    +0.000 A 
ATOM      7  C   UNL     1       2.533   5.118  18.431  0.00  0.00    +0.000 A 
ATOM      8  C   UNL     1       3.426   5.667  17.529  0.00  0.00    +0.000 A 
ATOM      9  N   UNL     1       4.344   4.889  16.925  0.00  0.00    +0.000 N 
ATOM     10  C   UNL     1       4.427   3.574  17.207  0.00  0.00    +0.000 A 
ATOM     11  C   UNL     1       3.555   2.993  18.121  0.00  0.00    +0.000 A 
BRANCH   6  13
ATOM     12  C   UNL     1       0.666   2.245  19.151  0.00  0.00    +0.000 C 
ATOM     13  N   UNL     1       1.657   3.206  19.641  0.00  0.00    +0.000 N 
ATOM     14  C   UNL     1       1.924   3.189  21.078  0.00  0.00    +0.000 C 
ENDBRANCH   6  13
ENDBRANCH   5   9
ENDBRANCH   4   5
ENDBRANCH   3   4
ENDBRANCH   2   3
ENDBRANCH   1   2
BRANCH   1  15
ATOM     15  C   UNL     1       8.969   9.624  18.910  0.00  0.00    +0.000 C 
BRANCH  15  16
ATOM     16  C   UNL     1       9.364  11.096  18.732  0.00  0.00    +0.000 C 
BRANCH  16  17
ATOM     17  C   UNL     1      10.619  11.489  19.512  0.00  0.00    +0.000 C 
BRANCH  17  18
ATOM     18  C   UNL     1      11.667  12.094  18.588  0.00  0.00    +0.000 C 
BRANCH  18  19
ATOM     19  N   UNL     1      11.523  13.555  18.558  0.00  0.00    +0.000 N 
ATOM     20  C   UNL     1      11.404  14.188  17.375  0.00  0.00    +0.000 A 
ATOM     21  C   UNL     1      11.372  15.576  17.323  0.00  0.00    +0.000 A 
ATOM     22  C   UNL     1      11.474  16.352  18.479  0.00  0.00    +0.000 A 
ATOM     23  C   UNL     1      11.554  15.650  19.686  0.00  0.00    +0.000 A 
ATOM     24  C   UNL     1      11.574  14.259  19.709  0.00  0.00    +0.000 A 
BRANCH  22  25
ATOM     25  N   UNL     1      11.544  17.727  18.434  0.00  0.00    +0.000 N 
ATOM     26  C   UNL     1      11.013  18.511  17.317  0.00  0.00    +0.000 C 
ATOM     27  C   UNL     1      12.333  18.508  19.393  0.00  0.00    +0.000 C 
ENDBRANCH  22  25
ENDBRANCH  18  19
ENDBRANCH  17  18
ENDBRANCH  16  17
ENDBRANCH  15  16
ENDBRANCH   1  15
TORSDOF 12
ENDMDL
MODEL 8
REMARK VINA RESULT:      -5.7      1.572      9.830
REMARK  Name = 
REMARK  16 active torsions:
REMARK  status: ('A' for Active; 'I' for Inactive)
REMARK    1  A    between atoms: C_1  and  N_2
REMARK    2  A    between atoms: N_2  and  C_3
REMARK    3  A    between atoms: N_2  and  C_4
REMARK    4  A    between atoms: N_7  and  C_8
REMARK    5  A    between atoms: C_8  and  C_9
REMARK    6  A    between atoms: C_9  and  C_10
REMARK    7  A    between atoms: C_10  and  C_11
REMARK    8  A    between atoms: C_11  and  C_12
REMARK    9  A    between atoms: C_12  and  C_13
REMARK   10  A    between atoms: C_13  and  C_14
REMARK   11  A    between atoms: C_14  and  C_15
REMARK   12  A    between atoms: C_15  and  C_16
REMARK   13  A    between atoms: C_16  and  N_17
REMARK   14  A    between atoms: C_20  and  N_21
REMARK   15  A    between atoms: N_21  and  C_22
REMARK   16  A    between atoms: N_21  and  C_23
REMARK                            x       y       z     vdW  Elec       q    Type
REMARK                         _______ _______ _______ _____ _____    ______ ____
ROOT
ATOM      1  C   UNL     1       2.851   6.797  18.803  0.00  0.00    +0.000 C 
ENDROOT
BRANCH   1   2
ATOM      2  C   UNL     1       2.599   8.149  18.129  0.00  0.00    +0.000 C 
BRANCH   2   3
ATOM      3  C   UNL     1       1.469   8.950  18.788  0.00  0.00    +0.000 C 
BRANCH   3   4
ATOM      4  C   UNL     1       1.408  10.406  18.329  0.00  0.00    +0.000 C 
BRANCH   4   5
ATOM      5  C   UNL     1       1.312  11.359  19.516  0.00  0.00    +0.000 C 
BRANCH   5   9
ATOM      6  C   UNL     1      -2.761  12.366  20.252  0.00  0.00    +0.000 A 
ATOM      7  C   UNL     1      -1.809  12.310  21.281  0.00  0.00    +0.000 A 
ATOM      8  C   UNL     1      -0.493  11.975  21.022  0.00  0.00    +0.000 A 
ATOM      9  N   UNL     1      -0.097  11.701  19.764  0.00  0.00    +0.000 N 
ATOM     10  C   UNL     1      -0.977  11.721  18.745  0.00  0.00    +0.000 A 
ATOM     11  C   UNL     1      -2.312  12.038  18.972  0.00  0.00    +0.000 A 
BRANCH   6  13
ATOM     12  C   UNL     1      -5.075  12.563  19.455  0.00  0.00    +0.000 C 
ATOM     13  N   UNL     1      -4.077  12.712  20.517  0.00  0.00    +0.000 N 
ATOM     14  C   UNL     1      -4.588  12.778  21.884  0.00  0.00    +0.000 C 
ENDBRANCH   6  13
ENDBRANCH   5   9
ENDBRANCH   4   5
ENDBRANCH   3   4
ENDBRANCH   2   3
ENDBRANCH   1   2
BRANCH   1  15
ATOM     15  C   UNL     1       2.157   6.669  20.163  0.00  0.00    +0.000 C 
BRANCH  15  16
ATOM     16  C   UNL     1       1.412   5.339  20.340  0.00  0.00    +0.000 C 
BRANCH  16  17
ATOM     17  C   UNL     1       2.218   4.286  21.101  0.00  0.00    +0.000 C 
BRANCH  17  18
ATOM     18  C   UNL     1       2.444   3.048  20.245  0.00  0.00    +0.000 C 
BRANCH  18  19
ATOM     19  N   UNL     1       3.409   3.349  19.178  0.00  0.00    +0.000 N 
ATOM     20  C   UNL     1       4.650   3.757  19.500  0.00  0.00    +0.000 A 
ATOM     21  C   UNL     1       5.540   4.145  18.506  0.00  0.00    +0.000 A 
ATOM     22  C   UNL     1       5.177   4.137  17.158  0.00  0.00    +0.000 A 
ATOM     23  C   UNL     1       3.892   3.667  16.870  0.00  0.00    +0.000 A 
ATOM     24  C   UNL     1       3.025   3.275  17.886  0.00  0.00    +0.000 A 
BRANCH  22  25
ATOM     25  N   UNL     1       6.013   4.612  16.171  0.00  0.00    +0.000 N 
ATOM     26  C   UNL     1       6.145   3.964  14.865  0.00  0.00    +0.000 C 
ATOM     27  C   UNL     1       6.990   5.680  16.412  0.00  0.00    +0.000 C 
ENDBRANCH  22  25
ENDBRANCH  18  19
ENDBRANCH  17  18
ENDBRANCH  16  17
ENDBRANCH  15  16
ENDBRANCH   1  15
TORSDOF 12
ENDMDL
MODEL 9
REMARK VINA RESULT:      -5.7      5.914     10.057
REMARK  Name = 
REMARK  16 active torsions:
REMARK  status: ('A' for Active; 'I' for Inactive)
REMARK    1  A    between atoms: C_1  and  N_2
REMARK    2  A    between atoms: N_2  and  C_3
REMARK    3  A    between atoms: N_2  and  C_4
REMARK    4  A    between atoms: N_7  and  C_8
REMARK    5  A    between atoms: C_8  and  C_9
REMARK    6  A    between atoms: C_9  and  C_10
REMARK    7  A    between atoms: C_10  and  C_11
REMARK    8  A    between atoms: C_11  and  C_12
REMARK    9  A    between atoms: C_12  and  C_13
REMARK   10  A    between atoms: C_13  and  C_14
REMARK   11  A    between atoms: C_14  and  C_15
REMARK   12  A    between atoms: C_15  and  C_16
REMARK   13  A    between atoms: C_16  and  N_17
REMARK   14  A    between atoms: C_20  and  N_21
REMARK   15  A    between atoms: N_21  and  C_22
REMARK   16  A    between atoms: N_21  and  C_23
REMARK                            x       y       z     vdW  Elec       q    Type
REMARK                         _______ _______ _______ _____ _____    ______ ____
ROOT
ATOM      1  C   UNL     1       8.003   8.128  17.492  0.00  0.00    +0.000 C 
ENDROOT
BRANCH   1   2
ATOM      2  C   UNL     1       8.040   9.552  18.054  0.00  0.00    +0.000 C 
BRANCH   2   3
ATOM      3  C   UNL     1       9.239   9.806  18.976  0.00  0.00    +0.000 C 
BRANCH   3   4
ATOM      4  C   UNL     1       9.956  11.126  18.693  0.00  0.00    +0.000 C 
BRANCH   4   5
ATOM      5  C   UNL     1       9.105  12.045  17.824  0.00  0.00    +0.000 C 
BRANCH   5   9
ATOM      6  C   UNL     1       8.862  15.891  19.639  0.00  0.00    +0.000 A 
ATOM      7  C   UNL     1       9.623  14.852  20.193  0.00  0.00    +0.000 A 
ATOM      8  C   UNL     1       9.685  13.608  19.591  0.00  0.00    +0.000 A 
ATOM      9  N   UNL     1       9.013  13.374  18.448  0.00  0.00    +0.000 N 
ATOM     10  C   UNL     1       8.250  14.332  17.888  0.00  0.00    +0.000 A 
ATOM     11  C   UNL     1       8.153  15.589  18.475  0.00  0.00    +0.000 A 
BRANCH   6  13
ATOM     12  C   UNL     1       8.951  17.226  21.698  0.00  0.00    +0.000 C 
ATOM     13  N   UNL     1       8.813  17.137  20.242  0.00  0.00    +0.000 N 
ATOM     14  C   UNL     1       9.080  18.361  19.488  0.00  0.00    +0.000 C 
ENDBRANCH   6  13
ENDBRANCH   5   9
ENDBRANCH   4   5
ENDBRANCH   3   4
ENDBRANCH   2   3
ENDBRANCH   1   2
BRANCH   1  15
ATOM     15  C   UNL     1       8.145   7.055  18.576  0.00  0.00    +0.000 C 
BRANCH  15  16
ATOM     16  C   UNL     1       7.128   5.914  18.435  0.00  0.00    +0.000 C 
BRANCH  16  17
ATOM     17  C   UNL     1       7.093   5.298  17.036  0.00  0.00    +0.000 C 
BRANCH  17  18
ATOM     18  C   UNL     1       5.829   5.706  16.293  0.00  0.00    +0.000 C 
BRANCH  18  19
ATOM     19  N   UNL     1       4.652   5.134  16.958  0.00  0.00    +0.000 N 
ATOM     20  C   UNL     1       3.732   5.952  17.504  0.00  0.00    +0.000 A 
ATOM     21  C   UNL     1       2.669   5.427  18.227  0.00  0.00    +0.000 A 
ATOM     22  C   UNL     1       2.526   4.052  18.421  0.00  0.00    +0.000 A 
ATOM     23  C   UNL     1       3.482   3.241  17.802  0.00  0.00    +0.000 A 
ATOM     24  C   UNL     1       4.531   3.794  17.075  0.00  0.00    +0.000 A 
BRANCH  22  25
ATOM     25  N   UNL     1       1.534   3.524  19.218  0.00  0.00    +0.000 N 
ATOM     26  C   UNL     1       0.707   2.388  18.806  0.00  0.00    +0.000 C 
ATOM     27  C   UNL     1       1.083   4.176  20.453  0.00  0.00    +0.000 C 
ENDBRANCH  22  25
ENDBRANCH  18  19
ENDBRANCH  17  18
ENDBRANCH  16  17
ENDBRANCH  15  16
ENDBRANCH   1  15
TORSDOF 12
ENDMDL
