MODEL 1
REMARK VINA RESULT:      -6.9      0.000      0.000
REMARK  Name = 
REMARK  13 active torsions:
REMARK  status: ('A' for Active; 'I' for Inactive)
REMARK    1  A    between atoms: C_1  and  O_2
REMARK    2  A    between atoms: O_2  and  C_3
REMARK    3  A    between atoms: C_6  and  C_7
REMARK    4  A    between atoms: C_7  and  C_8
REMARK    5  A    between atoms: C_8  and  C_9
REMARK    6  A    between atoms: C_9  and  C_12
REMARK    7  A    between atoms: N_10  and  O_11
REMARK    8  A    between atoms: C_13  and  O_14
REMARK    9  A    between atoms: C_16  and  O_17
REMARK   10  A    between atoms: O_17  and  C_18
REMARK   11  A    between atoms: C_18  and  C_19
REMARK   12  A    between atoms: C_23  and  O_24
REMARK   13  A    between atoms: C_26  and  O_27
REMARK                            x       y       z     vdW  Elec       q    Type
REMARK                         _______ _______ _______ _____ _____    ______ ____
ROOT
ATOM      1  C   UNL     1       6.029   5.846  17.049  0.00  0.00    +0.000 C 
ATOM      2  N   UNL     1       7.243   5.581  16.653  0.00  0.00    +0.000 NA
ENDROOT
BRANCH   1   3
ATOM      3  C   UNL     1       5.283   4.688  17.694  0.00  0.00    +0.000 A 
ATOM      4  C   UNL     1       5.351   4.398  19.066  0.00  0.00    +0.000 A 
ATOM      5  C   UNL     1       4.605   3.365  19.635  0.00  0.00    +0.000 A 
ATOM      6  C   UNL     1       3.715   2.634  18.857  0.00  0.00    +0.000 A 
ATOM      7  C   UNL     1       3.659   2.862  17.487  0.00  0.00    +0.000 A 
ATOM      8  C   UNL     1       4.447   3.864  16.908  0.00  0.00    +0.000 A 
BRANCH   4   9
ATOM      9  O   UNL     1       6.070   5.134  19.969  0.00  0.00    +0.000 OA
ATOM     10  H   UNL     1       5.789   4.795  20.838  0.00  0.00    +0.000 HD
ENDBRANCH   4   9
BRANCH   8  11
ATOM     11  O   UNL     1       4.395   3.996  15.545  0.00  0.00    +0.000 OA
ATOM     12  H   UNL     1       3.562   3.618  15.220  0.00  0.00    +0.000 HD
ENDBRANCH   8  11
BRANCH   6  13
ATOM     13  O   UNL     1       2.863   1.680  19.340  0.00  0.00    +0.000 OA
BRANCH  13  14
ATOM     14  C   UNL     1       1.517   2.147  19.571  0.00  0.00    +0.000 C 
BRANCH  14  15
ATOM     15  C   UNL     1       1.440   2.991  20.854  0.00  0.00    +0.000 C 
ATOM     16  O   UNL     1       1.706   2.385  21.929  0.00  0.00    +0.000 OA
ATOM     17  O   UNL     1       1.029   4.177  20.678  0.00  0.00    +0.000 OA
ENDBRANCH  14  15
ENDBRANCH  13  14
ENDBRANCH   6  13
ENDBRANCH   1   3
BRANCH   2  18
ATOM     18  O   UNL     1       7.984   6.676  16.243  0.00  0.00    +0.000 OA
ATOM     19  H   UNL     1       8.158   7.131  17.086  0.00  0.00    +0.000 HD
ENDBRANCH   2  18
BRANCH   1  20
ATOM     20  C   UNL     1       5.290   7.192  16.945  0.00  0.00    +0.000 C 
BRANCH  20  21
ATOM     21  C   UNL     1       3.777   7.282  16.743  0.00  0.00    +0.000 C 
BRANCH  21  25
ATOM     22  C   UNL     1       1.198   8.837  19.877  0.00  0.00    +0.000 A 
ATOM     23  C   UNL     1       1.422   9.535  18.688  0.00  0.00    +0.000 A 
ATOM     24  C   UNL     1       2.292   9.044  17.715  0.00  0.00    +0.000 A 
ATOM     25  C   UNL     1       2.944   7.817  17.893  0.00  0.00    +0.000 A 
ATOM     26  C   UNL     1       2.751   7.132  19.101  0.00  0.00    +0.000 A 
ATOM     27  C   UNL     1       1.880   7.634  20.081  0.00  0.00    +0.000 A 
BRANCH  22  29
ATOM     28  C   UNL     1      -0.611  10.387  20.109  0.00  0.00    +0.000 C 
ATOM     29  O   UNL     1       0.292   9.461  20.692  0.00  0.00    +0.000 OA
ENDBRANCH  22  29
BRANCH  27  30
ATOM     30  O   UNL     1       1.717   6.909  21.230  0.00  0.00    +0.000 OA
ATOM     31  H   UNL     1       2.028   6.001  21.077  0.00  0.00    +0.000 HD
ENDBRANCH  27  30
ENDBRANCH  21  25
ENDBRANCH  20  21
ENDBRANCH   1  20
TORSDOF 12
ENDMDL
MODEL 2
REMARK VINA RESULT:      -6.8      2.393      5.287
REMARK  Name = 
REMARK  13 active torsions:
REMARK  status: ('A' for Active; 'I' for Inactive)
REMARK    1  A    between atoms: C_1  and  O_2
REMARK    2  A    between atoms: O_2  and  C_3
REMARK    3  A    between atoms: C_6  and  C_7
REMARK    4  A    between atoms: C_7  and  C_8
REMARK    5  A    between atoms: C_8  and  C_9
REMARK    6  A    between atoms: C_9  and  C_12
REMARK    7  A    between atoms: N_10  and  O_11
REMARK    8  A    between atoms: C_13  and  O_14
REMARK    9  A    between atoms: C_16  and  O_17
REMARK   10  A    between atoms: O_17  and  C_18
REMARK   11  A    between atoms: C_18  and  C_19
REMARK   12  A    between atoms: C_23  and  O_24
REMARK   13  A    between atoms: C_26  and  O_27
REMARK                            x       y       z     vdW  Elec       q    Type
REMARK                         _______ _______ _______ _____ _____    ______ ____
ROOT
ATOM      1  C   UNL     1       3.849   3.989  19.448  0.00  0.00    +0.000 C 
ATOM      2  N   UNL     1       4.240   2.928  20.096  0.00  0.00    +0.000 NA
ENDROOT
BRANCH   1   3
ATOM      3  C   UNL     1       4.793   4.476  18.359  0.00  0.00    +0.000 A 
ATOM      4  C   UNL     1       6.026   5.090  18.628  0.00  0.00    +0.000 A 
ATOM      5  C   UNL     1       6.895   5.469  17.603  0.00  0.00    +0.000 A 
ATOM      6  C   UNL     1       6.585   5.180  16.280  0.00  0.00    +0.000 A 
ATOM      7  C   UNL     1       5.352   4.616  15.975  0.00  0.00    +0.000 A 
ATOM      8  C   UNL     1       4.458   4.285  16.999  0.00  0.00    +0.000 A 
BRANCH   4   9
ATOM      9  O   UNL     1       6.521   5.296  19.887  0.00  0.00    +0.000 OA
ATOM     10  H   UNL     1       6.016   6.056  20.227  0.00  0.00    +0.000 HD
ENDBRANCH   4   9
BRANCH   8  11
ATOM     11  O   UNL     1       3.233   3.792  16.631  0.00  0.00    +0.000 OA
ATOM     12  H   UNL     1       2.563   4.101  17.262  0.00  0.00    +0.000 HD
ENDBRANCH   8  11
BRANCH   6  13
ATOM     13  O   UNL     1       7.416   5.409  15.219  0.00  0.00    +0.000 OA
BRANCH  13  14
ATOM     14  C   UNL     1       7.049   4.708  14.012  0.00  0.00    +0.000 C 
BRANCH  14  15
ATOM     15  C   UNL     1       7.862   5.215  12.811  0.00  0.00    +0.000 C 
ATOM     16  O   UNL     1       7.526   4.756  11.683  0.00  0.00    +0.000 OA
ATOM     17  O   UNL     1       8.834   5.969  13.116  0.00  0.00    +0.000 OA
ENDBRANCH  14  15
ENDBRANCH  13  14
ENDBRANCH   6  13
ENDBRANCH   1   3
BRANCH   2  18
ATOM     18  O   UNL     1       3.301   2.377  20.951  0.00  0.00    +0.000 OA
ATOM     19  H   UNL     1       2.596   2.110  20.333  0.00  0.00    +0.000 HD
ENDBRANCH   2  18
BRANCH   1  20
ATOM     20  C   UNL     1       2.545   4.779  19.656  0.00  0.00    +0.000 C 
BRANCH  20  21
ATOM     21  C   UNL     1       2.430   5.916  20.673  0.00  0.00    +0.000 C 
BRANCH  21  25
ATOM     22  C   UNL     1       0.980   9.833  19.470  0.00  0.00    +0.000 A 
ATOM     23  C   UNL     1       0.685   9.285  20.721  0.00  0.00    +0.000 A 
ATOM     24  C   UNL     1       1.117   8.007  21.070  0.00  0.00    +0.000 A 
ATOM     25  C   UNL     1       1.887   7.245  20.183  0.00  0.00    +0.000 A 
ATOM     26  C   UNL     1       2.154   7.776  18.912  0.00  0.00    +0.000 A 
ATOM     27  C   UNL     1       1.711   9.061  18.562  0.00  0.00    +0.000 A 
BRANCH  22  29
ATOM     28  C   UNL     1       1.354  12.190  19.650  0.00  0.00    +0.000 C 
ATOM     29  O   UNL     1       0.499  11.106  19.324  0.00  0.00    +0.000 OA
ENDBRANCH  22  29
BRANCH  27  30
ATOM     30  O   UNL     1       2.021   9.531  17.315  0.00  0.00    +0.000 OA
ATOM     31  H   UNL     1       2.742  10.177  17.392  0.00  0.00    +0.000 HD
ENDBRANCH  27  30
ENDBRANCH  21  25
ENDBRANCH  20  21
ENDBRANCH   1  20
TORSDOF 12
ENDMDL
MODEL 3
REMARK VINA RESULT:      -6.8      2.538      4.941
REMARK  Name = 
REMARK  13 active torsions:
REMARK  status: ('A' for Active; 'I' for Inactive)
REMARK    1  A    between atoms: C_1  and  O_2
REMARK    2  A    between atoms: O_2  and  C_3
REMARK    3  A    between atoms: C_6  and  C_7
REMARK    4  A    between atoms: C_7  and  C_8
REMARK    5  A    between atoms: C_8  and  C_9
REMARK    6  A    between atoms: C_9  and  C_12
REMARK    7  A    between atoms: N_10  and  O_11
REMARK    8  A    between atoms: C_13  and  O_14
REMARK    9  A    between atoms: C_16  and  O_17
REMARK   10  A    between atoms: O_17  and  C_18
REMARK   11  A    between atoms: C_18  and  C_19
REMARK   12  A    between atoms: C_23  and  O_24
REMARK   13  A    between atoms: C_26  and  O_27
REMARK                            x       y       z     vdW  Elec       q    Type
REMARK                         _______ _______ _______ _____ _____    ______ ____
ROOT
ATOM      1  C   UNL     1       6.309   5.224  18.571  0.00  0.00    +0.000 C 
ATOM      2  N   UNL     1       7.488   5.226  19.127  0.00  0.00    +0.000 NA
ENDROOT
BRANCH   1   3
ATOM      3  C   UNL     1       6.283   4.866  17.093  0.00  0.00    +0.000 A 
ATOM      4  C   UNL     1       6.919   5.634  16.104  0.00  0.00    +0.000 A 
ATOM      5  C   UNL     1       6.926   5.242  14.765  0.00  0.00    +0.000 A 
ATOM      6  C   UNL     1       6.355   4.033  14.386  0.00  0.00    +0.000 A 
ATOM      7  C   UNL     1       5.676   3.273  15.330  0.00  0.00    +0.000 A 
ATOM      8  C   UNL     1       5.623   3.692  16.665  0.00  0.00    +0.000 A 
BRANCH   4   9
ATOM      9  O   UNL     1       7.645   6.764  16.362  0.00  0.00    +0.000 OA
ATOM     10  H   UNL     1       7.272   7.111  17.192  0.00  0.00    +0.000 HD
ENDBRANCH   4   9
BRANCH   8  11
ATOM     11  O   UNL     1       4.884   2.933  17.534  0.00  0.00    +0.000 OA
ATOM     12  H   UNL     1       5.355   2.870  18.380  0.00  0.00    +0.000 HD
ENDBRANCH   8  11
BRANCH   6  13
ATOM     13  O   UNL     1       6.408   3.511  13.123  0.00  0.00    +0.000 OA
BRANCH  13  14
ATOM     14  C   UNL     1       5.324   3.922  12.263  0.00  0.00    +0.000 C 
BRANCH  14  15
ATOM     15  C   UNL     1       4.771   2.730  11.467  0.00  0.00    +0.000 C 
ATOM     16  O   UNL     1       5.540   1.734  11.358  0.00  0.00    +0.000 OA
ATOM     17  O   UNL     1       3.637   2.933  10.938  0.00  0.00    +0.000 OA
ENDBRANCH  14  15
ENDBRANCH  13  14
ENDBRANCH   6  13
ENDBRANCH   1   3
BRANCH   2  18
ATOM     18  O   UNL     1       7.492   5.363  20.505  0.00  0.00    +0.000 OA
ATOM     19  H   UNL     1       6.990   6.189  20.628  0.00  0.00    +0.000 HD
ENDBRANCH   2  18
BRANCH   1  20
ATOM     20  C   UNL     1       4.960   5.527  19.249  0.00  0.00    +0.000 C 
BRANCH  20  21
ATOM     21  C   UNL     1       3.668   5.716  18.453  0.00  0.00    +0.000 C 
BRANCH  21  25
ATOM     22  C   UNL     1       1.352   9.212  19.594  0.00  0.00    +0.000 A 
ATOM     23  C   UNL     1       1.531   8.127  20.457  0.00  0.00    +0.000 A 
ATOM     24  C   UNL     1       2.235   6.993  20.055  0.00  0.00    +0.000 A 
ATOM     25  C   UNL     1       2.810   6.923  18.780  0.00  0.00    +0.000 A 
ATOM     26  C   UNL     1       2.601   7.994  17.898  0.00  0.00    +0.000 A 
ATOM     27  C   UNL     1       1.886   9.131  18.304  0.00  0.00    +0.000 A 
BRANCH  22  29
ATOM     28  C   UNL     1      -0.307   9.928  21.164  0.00  0.00    +0.000 C 
ATOM     29  O   UNL     1       0.663  10.241  20.176  0.00  0.00    +0.000 OA
ENDBRANCH  22  29
BRANCH  27  30
ATOM     30  O   UNL     1       1.733  10.151  17.405  0.00  0.00    +0.000 OA
ATOM     31  H   UNL     1       1.038   9.910  16.771  0.00  0.00    +0.000 HD
ENDBRANCH  27  30
ENDBRANCH  21  25
ENDBRANCH  20  21
ENDBRANCH   1  20
TORSDOF 12
ENDMDL
MODEL 4
REMARK VINA RESULT:      -6.7      2.289      5.354
REMARK  Name = 
REMARK  13 active torsions:
REMARK  status: ('A' for Active; 'I' for Inactive)
REMARK    1  A    between atoms: C_1  and  O_2
REMARK    2  A    between atoms: O_2  and  C_3
REMARK    3  A    between atoms: C_6  and  C_7
REMARK    4  A    between atoms: C_7  and  C_8
REMARK    5  A    between atoms: C_8  and  C_9
REMARK    6  A    between atoms: C_9  and  C_12
REMARK    7  A    between atoms: N_10  and  O_11
REMARK    8  A    between atoms: C_13  and  O_14
REMARK    9  A    between atoms: C_16  and  O_17
REMARK   10  A    between atoms: O_17  and  C_18
REMARK   11  A    between atoms: C_18  and  C_19
REMARK   12  A    between atoms: C_23  and  O_24
REMARK   13  A    between atoms: C_26  and  O_27
REMARK                            x       y       z     vdW  Elec       q    Type
REMARK                         _______ _______ _______ _____ _____    ______ ____
ROOT
ATOM      1  C   UNL     1       3.892   4.156  19.577  0.00  0.00    +0.000 C 
ATOM      2  N   UNL     1       3.947   2.993  20.165  0.00  0.00    +0.000 NA
ENDROOT
BRANCH   1   3
ATOM      3  C   UNL     1       4.817   4.328  18.381  0.00  0.00    +0.000 A 
ATOM      4  C   UNL     1       4.445   4.005  17.067  0.00  0.00    +0.000 A 
ATOM      5  C   UNL     1       5.298   4.234  15.986  0.00  0.00    +0.000 A 
ATOM      6  C   UNL     1       6.523   4.858  16.182  0.00  0.00    +0.000 A 
ATOM      7  C   UNL     1       6.943   5.148  17.475  0.00  0.00    +0.000 A 
ATOM      8  C   UNL     1       6.110   4.870  18.564  0.00  0.00    +0.000 A 
BRANCH   4   9
ATOM      9  O   UNL     1       3.212   3.525  16.717  0.00  0.00    +0.000 OA
ATOM     10  H   UNL     1       3.081   3.834  15.802  0.00  0.00    +0.000 HD
ENDBRANCH   4   9
BRANCH   8  11
ATOM     11  O   UNL     1       6.607   5.119  19.817  0.00  0.00    +0.000 OA
ATOM     12  H   UNL     1       6.536   4.313  20.353  0.00  0.00    +0.000 HD
ENDBRANCH   8  11
BRANCH   6  13
ATOM     13  O   UNL     1       7.377   5.225  15.179  0.00  0.00    +0.000 OA
BRANCH  13  14
ATOM     14  C   UNL     1       7.082   4.630  13.898  0.00  0.00    +0.000 C 
BRANCH  14  15
ATOM     15  C   UNL     1       7.938   5.260  12.788  0.00  0.00    +0.000 C 
ATOM     16  O   UNL     1       8.877   6.011  13.175  0.00  0.00    +0.000 OA
ATOM     17  O   UNL     1       7.535   5.016  11.612  0.00  0.00    +0.000 OA
ENDBRANCH  14  15
ENDBRANCH  13  14
ENDBRANCH   6  13
ENDBRANCH   1   3
BRANCH   2  18
ATOM     18  O   UNL     1       2.976   2.770  21.126  0.00  0.00    +0.000 OA
ATOM     19  H   UNL     1       3.410   3.101  21.933  0.00  0.00    +0.000 HD
ENDBRANCH   2  18
BRANCH   1  20
ATOM     20  C   UNL     1       2.992   5.347  19.952  0.00  0.00    +0.000 C 
BRANCH  20  21
ATOM     21  C   UNL     1       2.537   6.384  18.924  0.00  0.00    +0.000 C 
BRANCH  21  25
ATOM     22  C   UNL     1       0.762  10.125  20.245  0.00  0.00    +0.000 A 
ATOM     23  C   UNL     1       1.186   9.930  18.928  0.00  0.00    +0.000 A 
ATOM     24  C   UNL     1       1.799   8.741  18.535  0.00  0.00    +0.000 A 
ATOM     25  C   UNL     1       1.980   7.694  19.447  0.00  0.00    +0.000 A 
ATOM     26  C   UNL     1       1.590   7.900  20.779  0.00  0.00    +0.000 A 
ATOM     27  C   UNL     1       0.980   9.101  21.172  0.00  0.00    +0.000 A 
BRANCH  22  29
ATOM     28  C   UNL     1       0.919  12.513  20.194  0.00  0.00    +0.000 C 
ATOM     29  O   UNL     1       0.158  11.339  20.431  0.00  0.00    +0.000 OA
ENDBRANCH  22  29
BRANCH  27  30
ATOM     30  O   UNL     1       0.603   9.234  22.481  0.00  0.00    +0.000 OA
ATOM     31  H   UNL     1       1.375   9.502  23.005  0.00  0.00    +0.000 HD
ENDBRANCH  27  30
ENDBRANCH  21  25
ENDBRANCH  20  21
ENDBRANCH   1  20
TORSDOF 12
ENDMDL
MODEL 5
REMARK VINA RESULT:      -6.7      2.277      4.918
REMARK  Name = 
REMARK  13 active torsions:
REMARK  status: ('A' for Active; 'I' for Inactive)
REMARK    1  A    between atoms: C_1  and  O_2
REMARK    2  A    between atoms: O_2  and  C_3
REMARK    3  A    between atoms: C_6  and  C_7
REMARK    4  A    between atoms: C_7  and  C_8
REMARK    5  A    between atoms: C_8  and  C_9
REMARK    6  A    between atoms: C_9  and  C_12
REMARK    7  A    between atoms: N_10  and  O_11
REMARK    8  A    between atoms: C_13  and  O_14
REMARK    9  A    between atoms: C_16  and  O_17
REMARK   10  A    between atoms: O_17  and  C_18
REMARK   11  A    between atoms: C_18  and  C_19
REMARK   12  A    between atoms: C_23  and  O_24
REMARK   13  A    between atoms: C_26  and  O_27
REMARK                            x       y       z     vdW  Elec       q    Type
REMARK                         _______ _______ _______ _____ _____    ______ ____
ROOT
ATOM      1  C   UNL     1       2.735   4.358  20.191  0.00  0.00    +0.000 C 
ATOM      2  N   UNL     1       2.815   3.355  21.020  0.00  0.00    +0.000 NA
ENDROOT
BRANCH   1   3
ATOM      3  C   UNL     1       3.583   4.237  18.934  0.00  0.00    +0.000 A 
ATOM      4  C   UNL     1       4.899   4.718  18.845  0.00  0.00    +0.000 A 
ATOM      5  C   UNL     1       5.670   4.535  17.695  0.00  0.00    +0.000 A 
ATOM      6  C   UNL     1       5.168   3.805  16.625  0.00  0.00    +0.000 A 
ATOM      7  C   UNL     1       3.852   3.357  16.661  0.00  0.00    +0.000 A 
ATOM      8  C   UNL     1       3.062   3.586  17.793  0.00  0.00    +0.000 A 
BRANCH   4   9
ATOM      9  O   UNL     1       5.566   5.320  19.877  0.00  0.00    +0.000 OA
ATOM     10  H   UNL     1       6.498   5.326  19.595  0.00  0.00    +0.000 HD
ENDBRANCH   4   9
BRANCH   8  11
ATOM     11  O   UNL     1       1.755   3.177  17.741  0.00  0.00    +0.000 OA
ATOM     12  H   UNL     1       1.522   2.750  18.581  0.00  0.00    +0.000 HD
ENDBRANCH   8  11
BRANCH   6  13
ATOM     13  O   UNL     1       5.880   3.478  15.505  0.00  0.00    +0.000 OA
BRANCH  13  14
ATOM     14  C   UNL     1       5.621   4.325  14.366  0.00  0.00    +0.000 C 
BRANCH  14  15
ATOM     15  C   UNL     1       6.934   4.803  13.725  0.00  0.00    +0.000 C 
ATOM     16  O   UNL     1       7.133   4.434  12.534  0.00  0.00    +0.000 OA
ATOM     17  O   UNL     1       7.701   5.438  14.510  0.00  0.00    +0.000 OA
ENDBRANCH  14  15
ENDBRANCH  13  14
ENDBRANCH   6  13
ENDBRANCH   1   3
BRANCH   2  18
ATOM     18  O   UNL     1       1.905   3.376  22.063  0.00  0.00    +0.000 OA
ATOM     19  H   UNL     1       1.434   2.532  21.938  0.00  0.00    +0.000 HD
ENDBRANCH   2  18
BRANCH   1  20
ATOM     20  C   UNL     1       1.873   5.624  20.343  0.00  0.00    +0.000 C 
BRANCH  20  21
ATOM     21  C   UNL     1       2.326   6.989  19.823  0.00  0.00    +0.000 C 
BRANCH  21  25
ATOM     22  C   UNL     1       0.085  10.447  21.208  0.00  0.00    +0.000 A 
ATOM     23  C   UNL     1       0.333  10.219  19.852  0.00  0.00    +0.000 A 
ATOM     24  C   UNL     1       1.096   9.131  19.430  0.00  0.00    +0.000 A 
ATOM     25  C   UNL     1       1.612   8.217  20.357  0.00  0.00    +0.000 A 
ATOM     26  C   UNL     1       1.398   8.463  21.722  0.00  0.00    +0.000 A 
ATOM     27  C   UNL     1       0.635   9.564  22.142  0.00  0.00    +0.000 A 
BRANCH  22  29
ATOM     28  C   UNL     1      -1.527  11.999  20.360  0.00  0.00    +0.000 C 
ATOM     29  O   UNL     1      -0.706  11.543  21.423  0.00  0.00    +0.000 OA
ENDBRANCH  22  29
BRANCH  27  30
ATOM     30  O   UNL     1       0.445   9.739  23.486  0.00  0.00    +0.000 OA
ATOM     31  H   UNL     1      -0.057  10.558  23.629  0.00  0.00    +0.000 HD
ENDBRANCH  27  30
ENDBRANCH  21  25
ENDBRANCH  20  21
ENDBRANCH   1  20
TORSDOF 12
ENDMDL
MODEL 6
REMARK VINA RESULT:      -6.6      2.268      6.208
REMARK  Name = 
REMARK  13 active torsions:
REMARK  status: ('A' for Active; 'I' for Inactive)
REMARK    1  A    between atoms: C_1  and  O_2
REMARK    2  A    between atoms: O_2  and  C_3
REMARK    3  A    between atoms: C_6  and  C_7
REMARK    4  A    between atoms: C_7  and  C_8
REMARK    5  A    between atoms: C_8  and  C_9
REMARK    6  A    between atoms: C_9  and  C_12
REMARK    7  A    between atoms: N_10  and  O_11
REMARK    8  A    between atoms: C_13  and  O_14
REMARK    9  A    between atoms: C_16  and  O_17
REMARK   10  A    between atoms: O_17  and  C_18
REMARK   11  A    between atoms: C_18  and  C_19
REMARK   12  A    between atoms: C_23  and  O_24
REMARK   13  A    between atoms: C_26  and  O_27
REMARK                            x       y       z     vdW  Elec       q    Type
REMARK                         _______ _______ _______ _____ _____    ______ ____
ROOT
ATOM      1  C   UNL     1       2.583   3.820  18.269  0.00  0.00    +0.000 C 
ATOM      2  N   UNL     1       1.499   3.213  17.875  0.00  0.00    +0.000 NA
ENDROOT
BRANCH   1   3
ATOM      3  C   UNL     1       2.368   5.119  19.029  0.00  0.00    +0.000 A 
ATOM      4  C   UNL     1       2.620   6.385  18.477  0.00  0.00    +0.000 A 
ATOM      5  C   UNL     1       2.352   7.559  19.184  0.00  0.00    +0.000 A 
ATOM      6  C   UNL     1       1.759   7.501  20.439  0.00  0.00    +0.000 A 
ATOM      7  C   UNL     1       1.540   6.264  21.034  0.00  0.00    +0.000 A 
ATOM      8  C   UNL     1       1.858   5.087  20.347  0.00  0.00    +0.000 A 
BRANCH   4   9
ATOM      9  O   UNL     1       3.060   6.588  17.198  0.00  0.00    +0.000 OA
ATOM     10  H   UNL     1       2.253   6.555  16.653  0.00  0.00    +0.000 HD
ENDBRANCH   4   9
BRANCH   8  11
ATOM     11  O   UNL     1       1.680   3.902  21.013  0.00  0.00    +0.000 OA
ATOM     12  H   UNL     1       2.541   3.581  21.326  0.00  0.00    +0.000 HD
ENDBRANCH   8  11
BRANCH   6  13
ATOM     13  O   UNL     1       1.357   8.591  21.160  0.00  0.00    +0.000 OA
BRANCH  13  14
ATOM     14  C   UNL     1       0.382   9.420  20.493  0.00  0.00    +0.000 C 
BRANCH  14  15
ATOM     15  C   UNL     1       0.785  10.902  20.554  0.00  0.00    +0.000 C 
ATOM     16  O   UNL     1       1.356  11.361  19.526  0.00  0.00    +0.000 OA
ATOM     17  O   UNL     1       0.573  11.458  21.673  0.00  0.00    +0.000 OA
ENDBRANCH  14  15
ENDBRANCH  13  14
ENDBRANCH   6  13
ENDBRANCH   1   3
BRANCH   2  18
ATOM     18  O   UNL     1       1.686   1.944  17.354  0.00  0.00    +0.000 OA
ATOM     19  H   UNL     1       1.111   1.961  16.567  0.00  0.00    +0.000 HD
ENDBRANCH   2  18
BRANCH   1  20
ATOM     20  C   UNL     1       4.036   3.356  18.060  0.00  0.00    +0.000 C 
BRANCH  20  21
ATOM     21  C   UNL     1       4.956   3.992  17.016  0.00  0.00    +0.000 C 
BRANCH  21  25
ATOM     22  C   UNL     1       7.813   6.954  18.414  0.00  0.00    +0.000 A 
ATOM     23  C   UNL     1       7.116   7.106  17.213  0.00  0.00    +0.000 A 
ATOM     24  C   UNL     1       6.241   6.121  16.756  0.00  0.00    +0.000 A 
ATOM     25  C   UNL     1       6.013   4.962  17.508  0.00  0.00    +0.000 A 
ATOM     26  C   UNL     1       6.739   4.789  18.696  0.00  0.00    +0.000 A 
ATOM     27  C   UNL     1       7.624   5.779  19.149  0.00  0.00    +0.000 A 
BRANCH  22  29
ATOM     28  C   UNL     1       8.339   9.258  18.037  0.00  0.00    +0.000 C 
ATOM     29  O   UNL     1       8.598   8.036  18.709  0.00  0.00    +0.000 OA
ENDBRANCH  22  29
BRANCH  27  30
ATOM     30  O   UNL     1       8.287   5.561  20.326  0.00  0.00    +0.000 OA
ATOM     31  H   UNL     1       7.652   5.611  21.059  0.00  0.00    +0.000 HD
ENDBRANCH  27  30
ENDBRANCH  21  25
ENDBRANCH  20  21
ENDBRANCH   1  20
TORSDOF 12
ENDMDL
MODEL 7
REMARK VINA RESULT:      -6.6      2.286      5.149
REMARK  Name = 
REMARK  13 active torsions:
REMARK  status: ('A' for Active; 'I' for Inactive)
REMARK    1  A    between atoms: C_1  and  O_2
REMARK    2  A    between atoms: O_2  and  C_3
REMARK    3  A    between atoms: C_6  and  C_7
REMARK    4  A    between atoms: C_7  and  C_8
REMARK    5  A    between atoms: C_8  and  C_9
REMARK    6  A    between atoms: C_9  and  C_12
REMARK    7  A    between atoms: N_10  and  O_11
REMARK    8  A    between atoms: C_13  and  O_14
REMARK    9  A    between atoms: C_16  and  O_17
REMARK   10  A    between atoms: O_17  and  C_18
REMARK   11  A    between atoms: C_18  and  C_19
REMARK   12  A    between atoms: C_23  and  O_24
REMARK   13  A    between atoms: C_26  and  O_27
REMARK                            x       y       z     vdW  Elec       q    Type
REMARK                         _______ _______ _______ _____ _____    ______ ____
ROOT
ATOM      1  C   UNL     1       4.016   4.367  19.563  0.00  0.00    +0.000 C 
ATOM      2  N   UNL     1       4.016   3.119  19.939  0.00  0.00    +0.000 NA
ENDROOT
BRANCH   1   3
ATOM      3  C   UNL     1       4.981   4.713  18.439  0.00  0.00    +0.000 A 
ATOM      4  C   UNL     1       6.267   5.229  18.661  0.00  0.00    +0.000 A 
ATOM      5  C   UNL     1       7.149   5.477  17.608  0.00  0.00    +0.000 A 
ATOM      6  C   UNL     1       6.793   5.150  16.305  0.00  0.00    +0.000 A 
ATOM      7  C   UNL     1       5.510   4.682  16.045  0.00  0.00    +0.000 A 
ATOM      8  C   UNL     1       4.608   4.483  17.096  0.00  0.00    +0.000 A 
BRANCH   4   9
ATOM      9  O   UNL     1       6.799   5.454  19.902  0.00  0.00    +0.000 OA
ATOM     10  H   UNL     1       7.752   5.576  19.741  0.00  0.00    +0.000 HD
ENDBRANCH   4   9
BRANCH   8  11
ATOM     11  O   UNL     1       3.339   4.082  16.768  0.00  0.00    +0.000 OA
ATOM     12  H   UNL     1       3.202   3.174  17.081  0.00  0.00    +0.000 HD
ENDBRANCH   8  11
BRANCH   6  13
ATOM     13  O   UNL     1       7.624   5.251  15.224  0.00  0.00    +0.000 OA
BRANCH  13  14
ATOM     14  C   UNL     1       7.087   4.691  14.007  0.00  0.00    +0.000 C 
BRANCH  14  15
ATOM     15  C   UNL     1       7.864   5.195  12.780  0.00  0.00    +0.000 C 
ATOM     16  O   UNL     1       7.494   4.732  11.665  0.00  0.00    +0.000 OA
ATOM     17  O   UNL     1       8.845   5.949  13.053  0.00  0.00    +0.000 OA
ENDBRANCH  14  15
ENDBRANCH  13  14
ENDBRANCH   6  13
ENDBRANCH   1   3
BRANCH   2  18
ATOM     18  O   UNL     1       3.011   2.767  20.823  0.00  0.00    +0.000 OA
ATOM     19  H   UNL     1       2.209   2.928  20.293  0.00  0.00    +0.000 HD
ENDBRANCH   2  18
BRANCH   1  20
ATOM     20  C   UNL     1       3.143   5.506  20.120  0.00  0.00    +0.000 C 
BRANCH  20  21
ATOM     21  C   UNL     1       2.301   6.409  19.217  0.00  0.00    +0.000 C 
BRANCH  21  25
ATOM     22  C   UNL     1       0.825  10.232  20.664  0.00  0.00    +0.000 A 
ATOM     23  C   UNL     1       1.118  10.013  19.316  0.00  0.00    +0.000 A 
ATOM     24  C   UNL     1       1.638   8.796  18.878  0.00  0.00    +0.000 A 
ATOM     25  C   UNL     1       1.854   7.745  19.778  0.00  0.00    +0.000 A 
ATOM     26  C   UNL     1       1.596   7.973  21.139  0.00  0.00    +0.000 A 
ATOM     27  C   UNL     1       1.079   9.202  21.576  0.00  0.00    +0.000 A 
BRANCH  22  29
ATOM     28  C   UNL     1      -1.037  11.724  20.480  0.00  0.00    +0.000 C 
ATOM     29  O   UNL     1       0.297  11.473  20.895  0.00  0.00    +0.000 OA
ENDBRANCH  22  29
BRANCH  27  30
ATOM     30  O   UNL     1       0.829   9.357  22.913  0.00  0.00    +0.000 OA
ATOM     31  H   UNL     1      -0.121   9.511  23.039  0.00  0.00    +0.000 HD
ENDBRANCH  27  30
ENDBRANCH  21  25
ENDBRANCH  20  21
ENDBRANCH   1  20
TORSDOF 12
ENDMDL
MODEL 8
REMARK VINA RESULT:      -6.6      2.735      5.134
REMARK  Name = 
REMARK  13 active torsions:
REMARK  status: ('A' for Active; 'I' for Inactive)
REMARK    1  A    between atoms: C_1  and  O_2
REMARK    2  A    between atoms: O_2  and  C_3
REMARK    3  A    between atoms: C_6  and  C_7
REMARK    4  A    between atoms: C_7  and  C_8
REMARK    5  A    between atoms: C_8  and  C_9
REMARK    6  A    between atoms: C_9  and  C_12
REMARK    7  A    between atoms: N_10  and  O_11
REMARK    8  A    between atoms: C_13  and  O_14
REMARK    9  A    between atoms: C_16  and  O_17
REMARK   10  A    between atoms: O_17  and  C_18
REMARK   11  A    between atoms: C_18  and  C_19
REMARK   12  A    between atoms: C_23  and  O_24
REMARK   13  A    between atoms: C_26  and  O_27
REMARK                            x       y       z     vdW  Elec       q    Type
REMARK                         _______ _______ _______ _____ _____    ______ ____
ROOT
ATOM      1  C   UNL     1       6.113   5.128  18.104  0.00  0.00    +0.000 C 
ATOM      2  N   UNL     1       7.223   5.107  18.788  0.00  0.00    +0.000 NA
ENDROOT
BRANCH   1   3
ATOM      3  C   UNL     1       6.232   4.694  16.651  0.00  0.00    +0.000 A 
ATOM      4  C   UNL     1       5.586   3.561  16.131  0.00  0.00    +0.000 A 
ATOM      5  C   UNL     1       5.668   3.228  14.778  0.00  0.00    +0.000 A 
ATOM      6  C   UNL     1       6.342   4.058  13.892  0.00  0.00    +0.000 A 
ATOM      7  C   UNL     1       7.033   5.161  14.380  0.00  0.00    +0.000 A 
ATOM      8  C   UNL     1       6.995   5.466  15.746  0.00  0.00    +0.000 A 
BRANCH   4   9
ATOM      9  O   UNL     1       4.767   2.744  16.862  0.00  0.00    +0.000 OA
ATOM     10  H   UNL     1       4.683   3.190  17.724  0.00  0.00    +0.000 HD
ENDBRANCH   4   9
BRANCH   8  11
ATOM     11  O   UNL     1       7.748   6.528  16.174  0.00  0.00    +0.000 OA
ATOM     12  H   UNL     1       7.451   6.791  17.060  0.00  0.00    +0.000 HD
ENDBRANCH   8  11
BRANCH   6  13
ATOM     13  O   UNL     1       6.385   3.878  12.537  0.00  0.00    +0.000 OA
BRANCH  13  14
ATOM     14  C   UNL     1       5.564   2.794  12.055  0.00  0.00    +0.000 C 
BRANCH  14  15
ATOM     15  C   UNL     1       6.416   1.731  11.343  0.00  0.00    +0.000 C 
ATOM     16  O   UNL     1       5.865   0.609  11.167  0.00  0.00    +0.000 OA
ATOM     17  O   UNL     1       7.608   2.090  11.101  0.00  0.00    +0.000 OA
ENDBRANCH  14  15
ENDBRANCH  13  14
ENDBRANCH   6  13
ENDBRANCH   1   3
BRANCH   2  18
ATOM     18  O   UNL     1       7.083   5.316  20.149  0.00  0.00    +0.000 OA
ATOM     19  H   UNL     1       6.240   4.867  20.338  0.00  0.00    +0.000 HD
ENDBRANCH   2  18
BRANCH   1  20
ATOM     20  C   UNL     1       4.716   5.526  18.611  0.00  0.00    +0.000 C 
BRANCH  20  21
ATOM     21  C   UNL     1       3.720   6.299  17.745  0.00  0.00    +0.000 C 
BRANCH  21  25
ATOM     22  C   UNL     1       1.094   9.277  19.512  0.00  0.00    +0.000 A 
ATOM     23  C   UNL     1       1.521   9.360  18.184  0.00  0.00    +0.000 A 
ATOM     24  C   UNL     1       2.403   8.422  17.649  0.00  0.00    +0.000 A 
ATOM     25  C   UNL     1       2.864   7.350  18.424  0.00  0.00    +0.000 A 
ATOM     26  C   UNL     1       2.468   7.284  19.768  0.00  0.00    +0.000 A 
ATOM     27  C   UNL     1       1.585   8.235  20.305  0.00  0.00    +0.000 A 
BRANCH  22  29
ATOM     28  C   UNL     1       0.705  11.417  20.512  0.00  0.00    +0.000 C 
ATOM     29  O   UNL     1       0.209  10.267  19.845  0.00  0.00    +0.000 OA
ENDBRANCH  22  29
BRANCH  27  30
ATOM     30  O   UNL     1       1.219   8.105  21.617  0.00  0.00    +0.000 OA
ATOM     31  H   UNL     1       1.295   8.970  22.052  0.00  0.00    +0.000 HD
ENDBRANCH  27  30
ENDBRANCH  21  25
ENDBRANCH  20  21
ENDBRANCH   1  20
TORSDOF 12
ENDMDL
MODEL 9
REMARK VINA RESULT:      -6.6      2.172      4.841
REMARK  Name = 
REMARK  13 active torsions:
REMARK  status: ('A' for Active; 'I' for Inactive)
REMARK    1  A    between atoms: C_1  and  O_2
REMARK    2  A    between atoms: O_2  and  C_3
REMARK    3  A    between atoms: C_6  and  C_7
REMARK    4  A    between atoms: C_7  and  C_8
REMARK    5  A    between atoms: C_8  and  C_9
REMARK    6  A    between atoms: C_9  and  C_12
REMARK    7  A    between atoms: N_10  and  O_11
REMARK    8  A    between atoms: C_13  and  O_14
REMARK    9  A    between atoms: C_16  and  O_17
REMARK   10  A    between atoms: O_17  and  C_18
REMARK   11  A    between atoms: C_18  and  C_19
REMARK   12  A    between atoms: C_23  and  O_24
REMARK   13  A    between atoms: C_26  and  O_27
REMARK                            x       y       z     vdW  Elec       q    Type
REMARK                         _______ _______ _______ _____ _____    ______ ____
ROOT
ATOM      1  C   UNL     1       2.277   4.167  20.358  0.00  0.00    +0.000 C 
ATOM      2  N   UNL     1       2.526   3.063  21.004  0.00  0.00    +0.000 NA
ENDROOT
BRANCH   1   3
ATOM      3  C   UNL     1       2.983   4.316  19.019  0.00  0.00    +0.000 A 
ATOM      4  C   UNL     1       4.135   5.097  18.839  0.00  0.00    +0.000 A 
ATOM      5  C   UNL     1       4.792   5.161  17.609  0.00  0.00    +0.000 A 
ATOM      6  C   UNL     1       4.353   4.390  16.540  0.00  0.00    +0.000 A 
ATOM      7  C   UNL     1       3.188   3.643  16.670  0.00  0.00    +0.000 A 
ATOM      8  C   UNL     1       2.499   3.620  17.888  0.00  0.00    +0.000 A 
BRANCH   4   9
ATOM      9  O   UNL     1       4.759   5.785  19.844  0.00  0.00    +0.000 OA
ATOM     10  H   UNL     1       4.802   6.703  19.521  0.00  0.00    +0.000 HD
ENDBRANCH   4   9
BRANCH   8  11
ATOM     11  O   UNL     1       1.324   2.917  17.933  0.00  0.00    +0.000 OA
ATOM     12  H   UNL     1       0.800   3.222  18.691  0.00  0.00    +0.000 HD
ENDBRANCH   8  11
BRANCH   6  13
ATOM     13  O   UNL     1       4.990   4.299  15.334  0.00  0.00    +0.000 OA
BRANCH  13  14
ATOM     14  C   UNL     1       6.282   3.657  15.390  0.00  0.00    +0.000 C 
BRANCH  14  15
ATOM     15  C   UNL     1       7.367   4.644  15.850  0.00  0.00    +0.000 C 
ATOM     16  O   UNL     1       7.511   5.677  15.137  0.00  0.00    +0.000 OA
ATOM     17  O   UNL     1       8.047   4.250  16.844  0.00  0.00    +0.000 OA
ENDBRANCH  14  15
ENDBRANCH  13  14
ENDBRANCH   6  13
ENDBRANCH   1   3
BRANCH   2  18
ATOM     18  O   UNL     1       1.743   2.842  22.124  0.00  0.00    +0.000 OA
ATOM     19  H   UNL     1       1.058   2.243  21.778  0.00  0.00    +0.000 HD
ENDBRANCH   2  18
BRANCH   1  20
ATOM     20  C   UNL     1       1.346   5.312  20.797  0.00  0.00    +0.000 C 
BRANCH  20  21
ATOM     21  C   UNL     1       1.877   6.677  21.236  0.00  0.00    +0.000 C 
BRANCH  21  25
ATOM     22  C   UNL     1       0.665  10.304  19.170  0.00  0.00    +0.000 A 
ATOM     23  C   UNL     1       0.171   9.970  20.433  0.00  0.00    +0.000 A 
ATOM     24  C   UNL     1       0.532   8.777  21.059  0.00  0.00    +0.000 A 
ATOM     25  C   UNL     1       1.429   7.893  20.447  0.00  0.00    +0.000 A 
ATOM     26  C   UNL     1       1.899   8.206  19.163  0.00  0.00    +0.000 A 
ATOM     27  C   UNL     1       1.527   9.404  18.534  0.00  0.00    +0.000 A 
BRANCH  22  29
ATOM     28  C   UNL     1      -1.106  11.909  19.052  0.00  0.00    +0.000 C 
ATOM     29  O   UNL     1       0.222  11.523  18.735  0.00  0.00    +0.000 OA
ENDBRANCH  22  29
BRANCH  27  30
ATOM     30  O   UNL     1       2.034   9.663  17.290  0.00  0.00    +0.000 OA
ATOM     31  H   UNL     1       1.299   9.831  16.678  0.00  0.00    +0.000 HD
ENDBRANCH  27  30
ENDBRANCH  21  25
ENDBRANCH  20  21
ENDBRANCH   1  20
TORSDOF 12
ENDMDL
