MODEL 1
REMARK VINA RESULT:      -7.5      0.000      0.000
REMARK  Name = 
REMARK  3 active torsions:
REMARK  status: ('A' for Active; 'I' for Inactive)
REMARK    1  A    between atoms: C_4  and  O_5
REMARK    2  A    between atoms: C_7  and  C_8
REMARK    3  A    between atoms: C_9  and  C_10
REMARK                            x       y       z     vdW  Elec       q    Type
REMARK                         _______ _______ _______ _____ _____    ______ ____
ROOT
ATOM      1  C   UNL     1       2.277   8.039  18.239  0.00  0.00    +0.000 C 
ATOM      2  C   UNL     1       2.941   7.011  18.797  0.00  0.00    +0.000 C 
ENDROOT
BRANCH   2   3
ATOM      3  C   UNL     1       3.516   5.921  18.002  0.00  0.00    +0.000 A 
ATOM      4  C   UNL     1       4.349   6.351  16.954  0.00  0.00    +0.000 A 
ATOM      5  C   UNL     1       4.987   5.436  16.137  0.00  0.00    +0.000 A 
ATOM      6  C   UNL     1       4.817   4.079  16.378  0.00  0.00    +0.000 A 
ATOM      7  C   UNL     1       3.999   3.616  17.421  0.00  0.00    +0.000 A 
ATOM      8  C   UNL     1       3.907   2.226  17.609  0.00  0.00    +0.000 A 
ATOM      9  C   UNL     1       3.121   1.683  18.615  0.00  0.00    +0.000 A 
ATOM     10  C   UNL     1       2.381   2.525  19.427  0.00  0.00    +0.000 A 
ATOM     11  C   UNL     1       2.437   3.915  19.247  0.00  0.00    +0.000 A 
ATOM     12 BR   UNL     1       1.220   4.872  20.366  0.00  0.00    +0.000 Br
ATOM     13  C   UNL     1       3.289   4.523  18.259  0.00  0.00    +0.000 A 
ENDBRANCH   2   3
BRANCH   1  19
ATOM     14  O   UNL     1      -1.251  10.915  17.910  0.00  0.00    +0.000 OA
ATOM     15  C   UNL     1      -0.475  10.331  18.668  0.00  0.00    +0.000 C 
ATOM     16  C   UNL     1      -0.838  10.090  20.101  0.00  0.00    +0.000 C 
ATOM     17  C   UNL     1       0.355   9.826  20.992  0.00  0.00    +0.000 C 
ATOM     18  C   UNL     1       1.243   8.770  20.378  0.00  0.00    +0.000 C 
ATOM     19  C   UNL     1       1.715   9.213  19.002  0.00  0.00    +0.000 C 
ATOM     20  O   UNL     1       0.693   9.852  18.208  0.00  0.00    +0.000 OA
BRANCH  17  21
ATOM     21  O   UNL     1       1.090  11.015  21.270  0.00  0.00    +0.000 OA
ATOM     22  H   UNL     1       1.546  11.325  20.469  0.00  0.00    +0.000 HD
ENDBRANCH  17  21
ENDBRANCH   1  19
TORSDOF 3
ENDMDL
MODEL 2
REMARK VINA RESULT:      -7.3      1.513      2.806
REMARK  Name = 
REMARK  3 active torsions:
REMARK  status: ('A' for Active; 'I' for Inactive)
REMARK    1  A    between atoms: C_4  and  O_5
REMARK    2  A    between atoms: C_7  and  C_8
REMARK    3  A    between atoms: C_9  and  C_10
REMARK                            x       y       z     vdW  Elec       q    Type
REMARK                         _______ _______ _______ _____ _____    ______ ____
ROOT
ATOM      1  C   UNL     1       1.391   7.648  20.649  0.00  0.00    +0.000 C 
ATOM      2  C   UNL     1       2.139   6.948  19.777  0.00  0.00    +0.000 C 
ENDROOT
BRANCH   2   3
ATOM      3  C   UNL     1       2.224   5.484  19.810  0.00  0.00    +0.000 A 
ATOM      4  C   UNL     1       1.514   4.891  20.869  0.00  0.00    +0.000 A 
ATOM      5  C   UNL     1       1.478   3.516  21.013  0.00  0.00    +0.000 A 
ATOM      6  C   UNL     1       2.129   2.720  20.081  0.00  0.00    +0.000 A 
ATOM      7  C   UNL     1       2.839   3.280  19.006  0.00  0.00    +0.000 A 
ATOM      8  C   UNL     1       3.445   2.397  18.096  0.00  0.00    +0.000 A 
ATOM      9  C   UNL     1       4.166   2.865  17.006  0.00  0.00    +0.000 A 
ATOM     10  C   UNL     1       4.326   4.229  16.833  0.00  0.00    +0.000 A 
ATOM     11  C   UNL     1       3.750   5.132  17.740  0.00  0.00    +0.000 A 
ATOM     12 BR   UNL     1       4.227   6.951  17.402  0.00  0.00    +0.000 Br
ATOM     13  C   UNL     1       2.940   4.691  18.845  0.00  0.00    +0.000 A 
ENDBRANCH   2   3
BRANCH   1  19
ATOM     14  O   UNL     1      -0.768  10.772  18.119  0.00  0.00    +0.000 OA
ATOM     15  C   UNL     1      -0.350  10.475  19.238  0.00  0.00    +0.000 C 
ATOM     16  C   UNL     1      -0.929  11.105  20.467  0.00  0.00    +0.000 C 
ATOM     17  C   UNL     1      -0.023  11.026  21.675  0.00  0.00    +0.000 C 
ATOM     18  C   UNL     1       0.474   9.613  21.864  0.00  0.00    +0.000 C 
ATOM     19  C   UNL     1       1.223   9.147  20.625  0.00  0.00    +0.000 C 
ATOM     20  O   UNL     1       0.602   9.537  19.382  0.00  0.00    +0.000 OA
BRANCH  17  21
ATOM     21  O   UNL     1       1.064  11.944  21.590  0.00  0.00    +0.000 OA
ATOM     22  H   UNL     1       0.794  12.820  21.916  0.00  0.00    +0.000 HD
ENDBRANCH  17  21
ENDBRANCH   1  19
TORSDOF 3
ENDMDL
MODEL 3
REMARK VINA RESULT:      -7.3      3.578      7.847
REMARK  Name = 
REMARK  3 active torsions:
REMARK  status: ('A' for Active; 'I' for Inactive)
REMARK    1  A    between atoms: C_4  and  O_5
REMARK    2  A    between atoms: C_7  and  C_8
REMARK    3  A    between atoms: C_9  and  C_10
REMARK                            x       y       z     vdW  Elec       q    Type
REMARK                         _______ _______ _______ _____ _____    ______ ____
ROOT
ATOM      1  C   UNL     1       1.317   6.615  20.949  0.00  0.00    +0.000 C 
ATOM      2  C   UNL     1       1.614   7.895  20.662  0.00  0.00    +0.000 C 
ENDROOT
BRANCH   2   3
ATOM      3  C   UNL     1       0.825   9.020  21.174  0.00  0.00    +0.000 A 
ATOM      4  C   UNL     1       0.288   8.809  22.456  0.00  0.00    +0.000 A 
ATOM      5  C   UNL     1      -0.455   9.793  23.082  0.00  0.00    +0.000 A 
ATOM      6  C   UNL     1      -0.644  11.010  22.441  0.00  0.00    +0.000 A 
ATOM      7  C   UNL     1      -0.113  11.257  21.164  0.00  0.00    +0.000 A 
ATOM      8  C   UNL     1      -0.331  12.526  20.603  0.00  0.00    +0.000 A 
ATOM      9  C   UNL     1       0.157  12.855  19.345  0.00  0.00    +0.000 A 
ATOM     10  C   UNL     1       0.840  11.900  18.612  0.00  0.00    +0.000 A 
ATOM     11  C   UNL     1       1.051  10.617  19.140  0.00  0.00    +0.000 A 
ATOM     12 BR   UNL     1       1.871   9.416  17.901  0.00  0.00    +0.000 Br
ATOM     13  C   UNL     1       0.619  10.256  20.465  0.00  0.00    +0.000 A 
ENDBRANCH   2   3
BRANCH   1  19
ATOM     14  O   UNL     1       1.832   2.234  22.114  0.00  0.00    +0.000 OA
ATOM     15  C   UNL     1       1.866   3.059  21.201  0.00  0.00    +0.000 C 
ATOM     16  C   UNL     1       1.695   2.633  19.776  0.00  0.00    +0.000 C 
ATOM     17  C   UNL     1       2.235   3.631  18.776  0.00  0.00    +0.000 C 
ATOM     18  C   UNL     1       1.719   5.016  19.089  0.00  0.00    +0.000 C 
ATOM     19  C   UNL     1       2.125   5.424  20.497  0.00  0.00    +0.000 C 
ATOM     20  O   UNL     1       2.004   4.368  21.473  0.00  0.00    +0.000 OA
BRANCH  17  21
ATOM     21  O   UNL     1       3.659   3.616  18.719  0.00  0.00    +0.000 OA
ATOM     22  H   UNL     1       4.019   4.464  19.032  0.00  0.00    +0.000 HD
ENDBRANCH  17  21
ENDBRANCH   1  19
TORSDOF 3
ENDMDL
MODEL 4
REMARK VINA RESULT:      -7.3      3.227      7.679
REMARK  Name = 
REMARK  3 active torsions:
REMARK  status: ('A' for Active; 'I' for Inactive)
REMARK    1  A    between atoms: C_4  and  O_5
REMARK    2  A    between atoms: C_7  and  C_8
REMARK    3  A    between atoms: C_9  and  C_10
REMARK                            x       y       z     vdW  Elec       q    Type
REMARK                         _______ _______ _______ _____ _____    ______ ____
ROOT
ATOM      1  C   UNL     1       1.135   6.700  20.855  0.00  0.00    +0.000 C 
ATOM      2  C   UNL     1       1.562   7.973  20.785  0.00  0.00    +0.000 C 
ENDROOT
BRANCH   2   3
ATOM      3  C   UNL     1       0.766   9.099  21.282  0.00  0.00    +0.000 A 
ATOM      4  C   UNL     1       0.246   8.910  22.575  0.00  0.00    +0.000 A 
ATOM      5  C   UNL     1      -0.502   9.899  23.188  0.00  0.00    +0.000 A 
ATOM      6  C   UNL     1      -0.713  11.099  22.523  0.00  0.00    +0.000 A 
ATOM      7  C   UNL     1      -0.200  11.324  21.234  0.00  0.00    +0.000 A 
ATOM      8  C   UNL     1      -0.440  12.578  20.648  0.00  0.00    +0.000 A 
ATOM      9  C   UNL     1       0.030  12.885  19.378  0.00  0.00    +0.000 A 
ATOM     10  C   UNL     1       0.715  11.922  18.658  0.00  0.00    +0.000 A 
ATOM     11  C   UNL     1       0.949  10.654  19.211  0.00  0.00    +0.000 A 
ATOM     12 BR   UNL     1       1.768   9.435  17.989  0.00  0.00    +0.000 Br
ATOM     13  C   UNL     1       0.537  10.317  20.548  0.00  0.00    +0.000 A 
ENDBRANCH   2   3
BRANCH   1  19
ATOM     14  O   UNL     1       0.338   2.529  19.184  0.00  0.00    +0.000 OA
ATOM     15  C   UNL     1       1.113   3.486  19.218  0.00  0.00    +0.000 C 
ATOM     16  C   UNL     1       2.107   3.708  18.120  0.00  0.00    +0.000 C 
ATOM     17  C   UNL     1       3.271   4.586  18.524  0.00  0.00    +0.000 C 
ATOM     18  C   UNL     1       2.769   5.846  19.189  0.00  0.00    +0.000 C 
ATOM     19  C   UNL     1       1.935   5.500  20.413  0.00  0.00    +0.000 C 
ATOM     20  O   UNL     1       1.046   4.379  20.220  0.00  0.00    +0.000 OA
BRANCH  17  21
ATOM     21  O   UNL     1       4.195   3.897  19.362  0.00  0.00    +0.000 OA
ATOM     22  H   UNL     1       3.977   4.045  20.298  0.00  0.00    +0.000 HD
ENDBRANCH  17  21
ENDBRANCH   1  19
TORSDOF 3
ENDMDL
MODEL 5
REMARK VINA RESULT:      -7.0      1.637      1.946
REMARK  Name = 
REMARK  3 active torsions:
REMARK  status: ('A' for Active; 'I' for Inactive)
REMARK    1  A    between atoms: C_4  and  O_5
REMARK    2  A    between atoms: C_7  and  C_8
REMARK    3  A    between atoms: C_9  and  C_10
REMARK                            x       y       z     vdW  Elec       q    Type
REMARK                         _______ _______ _______ _____ _____    ______ ____
ROOT
ATOM      1  C   UNL     1       1.994   8.038  20.077  0.00  0.00    +0.000 C 
ATOM      2  C   UNL     1       2.334   6.737  20.041  0.00  0.00    +0.000 C 
ENDROOT
BRANCH   2   3
ATOM      3  C   UNL     1       2.999   6.129  18.884  0.00  0.00    +0.000 A 
ATOM      4  C   UNL     1       3.624   7.054  18.029  0.00  0.00    +0.000 A 
ATOM      5  C   UNL     1       4.317   6.626  16.911  0.00  0.00    +0.000 A 
ATOM      6  C   UNL     1       4.414   5.266  16.653  0.00  0.00    +0.000 A 
ATOM      7  C   UNL     1       3.809   4.315  17.492  0.00  0.00    +0.000 A 
ATOM      8  C   UNL     1       3.982   2.958  17.170  0.00  0.00    +0.000 A 
ATOM      9  C   UNL     1       3.418   1.953  17.944  0.00  0.00    +0.000 A 
ATOM     10  C   UNL     1       2.636   2.295  19.034  0.00  0.00    +0.000 A 
ATOM     11  C   UNL     1       2.429   3.643  19.365  0.00  0.00    +0.000 A 
ATOM     12 BR   UNL     1       1.195   3.887  20.802  0.00  0.00    +0.000 Br
ATOM     13  C   UNL     1       3.048   4.713  18.628  0.00  0.00    +0.000 A 
ENDBRANCH   2   3
BRANCH   1  19
ATOM     14  O   UNL     1       0.872  12.282  21.320  0.00  0.00    +0.000 OA
ATOM     15  C   UNL     1       0.602  11.085  21.415  0.00  0.00    +0.000 C 
ATOM     16  C   UNL     1      -0.775  10.636  21.797  0.00  0.00    +0.000 C 
ATOM     17  C   UNL     1      -0.825   9.225  22.339  0.00  0.00    +0.000 C 
ATOM     18  C   UNL     1      -0.085   8.284  21.416  0.00  0.00    +0.000 C 
ATOM     19  C   UNL     1       1.361   8.727  21.260  0.00  0.00    +0.000 C 
ATOM     20  O   UNL     1       1.528  10.154  21.125  0.00  0.00    +0.000 OA
BRANCH  17  21
ATOM     21  O   UNL     1      -0.316   9.142  23.667  0.00  0.00    +0.000 OA
ATOM     22  H   UNL     1       0.600   9.469  23.700  0.00  0.00    +0.000 HD
ENDBRANCH  17  21
ENDBRANCH   1  19
TORSDOF 3
ENDMDL
MODEL 6
REMARK VINA RESULT:      -6.9      1.382      1.956
REMARK  Name = 
REMARK  3 active torsions:
REMARK  status: ('A' for Active; 'I' for Inactive)
REMARK    1  A    between atoms: C_4  and  O_5
REMARK    2  A    between atoms: C_7  and  C_8
REMARK    3  A    between atoms: C_9  and  C_10
REMARK                            x       y       z     vdW  Elec       q    Type
REMARK                         _______ _______ _______ _____ _____    ______ ____
ROOT
ATOM      1  C   UNL     1       2.329   8.596  17.762  0.00  0.00    +0.000 C 
ATOM      2  C   UNL     1       2.498   7.453  18.451  0.00  0.00    +0.000 C 
ENDROOT
BRANCH   2   3
ATOM      3  C   UNL     1       3.452   6.419  18.037  0.00  0.00    +0.000 A 
ATOM      4  C   UNL     1       4.260   6.785  16.946  0.00  0.00    +0.000 A 
ATOM      5  C   UNL     1       5.227   5.923  16.463  0.00  0.00    +0.000 A 
ATOM      6  C   UNL     1       5.413   4.696  17.085  0.00  0.00    +0.000 A 
ATOM      7  C   UNL     1       4.630   4.303  18.183  0.00  0.00    +0.000 A 
ATOM      8  C   UNL     1       4.905   3.055  18.767  0.00  0.00    +0.000 A 
ATOM      9  C   UNL     1       4.179   2.589  19.854  0.00  0.00    +0.000 A 
ATOM     10  C   UNL     1       3.135   3.351  20.349  0.00  0.00    +0.000 A 
ATOM     11  C   UNL     1       2.824   4.591  19.770  0.00  0.00    +0.000 A 
ATOM     12 BR   UNL     1       1.254   5.395  20.505  0.00  0.00    +0.000 Br
ATOM     13  C   UNL     1       3.593   5.140  18.685  0.00  0.00    +0.000 A 
ENDBRANCH   2   3
BRANCH   1  19
ATOM     14  O   UNL     1       0.192  10.012  21.537  0.00  0.00    +0.000 OA
ATOM     15  C   UNL     1       0.709  10.344  20.469  0.00  0.00    +0.000 C 
ATOM     16  C   UNL     1       1.211  11.739  20.261  0.00  0.00    +0.000 C 
ATOM     17  C   UNL     1       1.353  12.122  18.805  0.00  0.00    +0.000 C 
ATOM     18  C   UNL     1       2.118  11.055  18.057  0.00  0.00    +0.000 C 
ATOM     19  C   UNL     1       1.406   9.716  18.172  0.00  0.00    +0.000 C 
ATOM     20  O   UNL     1       0.879   9.442  19.488  0.00  0.00    +0.000 OA
BRANCH  17  21
ATOM     21  O   UNL     1       0.091  12.372  18.191  0.00  0.00    +0.000 OA
ATOM     22  H   UNL     1       0.187  13.024  17.475  0.00  0.00    +0.000 HD
ENDBRANCH  17  21
ENDBRANCH   1  19
TORSDOF 3
ENDMDL
MODEL 7
REMARK VINA RESULT:      -6.9      3.259      7.423
REMARK  Name = 
REMARK  3 active torsions:
REMARK  status: ('A' for Active; 'I' for Inactive)
REMARK    1  A    between atoms: C_4  and  O_5
REMARK    2  A    between atoms: C_7  and  C_8
REMARK    3  A    between atoms: C_9  and  C_10
REMARK                            x       y       z     vdW  Elec       q    Type
REMARK                         _______ _______ _______ _____ _____    ______ ____
ROOT
ATOM      1  C   UNL     1       1.770   5.973  20.445  0.00  0.00    +0.000 C 
ATOM      2  C   UNL     1       2.023   7.283  20.269  0.00  0.00    +0.000 C 
ENDROOT
BRANCH   2   3
ATOM      3  C   UNL     1       1.120   8.331  20.754  0.00  0.00    +0.000 A 
ATOM      4  C   UNL     1       0.485   8.025  21.971  0.00  0.00    +0.000 A 
ATOM      5  C   UNL     1      -0.373   8.931  22.568  0.00  0.00    +0.000 A 
ATOM      6  C   UNL     1      -0.584  10.163  21.965  0.00  0.00    +0.000 A 
ATOM      7  C   UNL     1       0.042  10.504  20.754  0.00  0.00    +0.000 A 
ATOM      8  C   UNL     1      -0.209  11.783  20.229  0.00  0.00    +0.000 A 
ATOM      9  C   UNL     1       0.367  12.202  19.037  0.00  0.00    +0.000 A 
ATOM     10  C   UNL     1       1.173  11.327  18.330  0.00  0.00    +0.000 A 
ATOM     11  C   UNL     1       1.421  10.035  18.820  0.00  0.00    +0.000 A 
ATOM     12 BR   UNL     1       2.424   8.948  17.611  0.00  0.00    +0.000 Br
ATOM     13  C   UNL     1       0.897   9.585  20.082  0.00  0.00    +0.000 A 
ENDBRANCH   2   3
BRANCH   1  19
ATOM     14  O   UNL     1       1.761   2.546  17.433  0.00  0.00    +0.000 OA
ATOM     15  C   UNL     1       2.447   3.358  18.054  0.00  0.00    +0.000 C 
ATOM     16  C   UNL     1       3.802   3.757  17.558  0.00  0.00    +0.000 C 
ATOM     17  C   UNL     1       4.691   4.348  18.629  0.00  0.00    +0.000 C 
ATOM     18  C   UNL     1       3.952   5.426  19.386  0.00  0.00    +0.000 C 
ATOM     19  C   UNL     1       2.690   4.857  20.017  0.00  0.00    +0.000 C 
ATOM     20  O   UNL     1       1.967   3.944  19.164  0.00  0.00    +0.000 OA
BRANCH  17  21
ATOM     21  O   UNL     1       5.194   3.353  19.517  0.00  0.00    +0.000 OA
ATOM     22  H   UNL     1       5.681   3.768  20.250  0.00  0.00    +0.000 HD
ENDBRANCH  17  21
ENDBRANCH   1  19
TORSDOF 3
ENDMDL
MODEL 8
REMARK VINA RESULT:      -6.8      3.234      6.998
REMARK  Name = 
REMARK  3 active torsions:
REMARK  status: ('A' for Active; 'I' for Inactive)
REMARK    1  A    between atoms: C_4  and  O_5
REMARK    2  A    between atoms: C_7  and  C_8
REMARK    3  A    between atoms: C_9  and  C_10
REMARK                            x       y       z     vdW  Elec       q    Type
REMARK                         _______ _______ _______ _____ _____    ______ ____
ROOT
ATOM      1  C   UNL     1       3.689   7.506  18.009  0.00  0.00    +0.000 C 
ATOM      2  C   UNL     1       2.370   7.749  18.112  0.00  0.00    +0.000 C 
ENDROOT
BRANCH   2   3
ATOM      3  C   UNL     1       1.840   8.992  18.681  0.00  0.00    +0.000 A 
ATOM      4  C   UNL     1       2.043  10.126  17.874  0.00  0.00    +0.000 A 
ATOM      5  C   UNL     1       1.572  11.366  18.266  0.00  0.00    +0.000 A 
ATOM      6  C   UNL     1       0.868  11.477  19.458  0.00  0.00    +0.000 A 
ATOM      7  C   UNL     1       0.640  10.363  20.283  0.00  0.00    +0.000 A 
ATOM      8  C   UNL     1      -0.105  10.564  21.457  0.00  0.00    +0.000 A 
ATOM      9  C   UNL     1      -0.376   9.518  22.329  0.00  0.00    +0.000 A 
ATOM     10  C   UNL     1       0.131   8.260  22.057  0.00  0.00    +0.000 A 
ATOM     11  C   UNL     1       0.897   8.037  20.903  0.00  0.00    +0.000 A 
ATOM     12 BR   UNL     1       1.625   6.273  20.808  0.00  0.00    +0.000 Br
ATOM     13  C   UNL     1       1.146   9.077  19.940  0.00  0.00    +0.000 A 
ENDBRANCH   2   3
BRANCH   1  19
ATOM     14  O   UNL     1       7.589   6.297  15.973  0.00  0.00    +0.000 OA
ATOM     15  C   UNL     1       6.637   5.926  16.659  0.00  0.00    +0.000 C 
ATOM     16  C   UNL     1       6.747   4.714  17.532  0.00  0.00    +0.000 C 
ATOM     17  C   UNL     1       5.410   4.116  17.911  0.00  0.00    +0.000 C 
ATOM     18  C   UNL     1       4.486   5.190  18.432  0.00  0.00    +0.000 C 
ATOM     19  C   UNL     1       4.288   6.272  17.382  0.00  0.00    +0.000 C 
ATOM     20  O   UNL     1       5.495   6.634  16.677  0.00  0.00    +0.000 OA
BRANCH  17  21
ATOM     21  O   UNL     1       4.813   3.409  16.827  0.00  0.00    +0.000 OA
ATOM     22  H   UNL     1       4.084   3.928  16.445  0.00  0.00    +0.000 HD
ENDBRANCH  17  21
ENDBRANCH   1  19
TORSDOF 3
ENDMDL
MODEL 9
REMARK VINA RESULT:      -6.6      1.302      1.639
REMARK  Name = 
REMARK  3 active torsions:
REMARK  status: ('A' for Active; 'I' for Inactive)
REMARK    1  A    between atoms: C_4  and  O_5
REMARK    2  A    between atoms: C_7  and  C_8
REMARK    3  A    between atoms: C_9  and  C_10
REMARK                            x       y       z     vdW  Elec       q    Type
REMARK                         _______ _______ _______ _____ _____    ______ ____
ROOT
ATOM      1  C   UNL     1       2.022   8.514  18.244  0.00  0.00    +0.000 C 
ATOM      2  C   UNL     1       2.572   7.416  18.792  0.00  0.00    +0.000 C 
ENDROOT
BRANCH   2   3
ATOM      3  C   UNL     1       3.331   6.440  18.004  0.00  0.00    +0.000 A 
ATOM      4  C   UNL     1       4.142   7.011  17.007  0.00  0.00    +0.000 A 
ATOM      5  C   UNL     1       4.939   6.216  16.203  0.00  0.00    +0.000 A 
ATOM      6  C   UNL     1       4.952   4.843  16.408  0.00  0.00    +0.000 A 
ATOM      7  C   UNL     1       4.162   4.241  17.402  0.00  0.00    +0.000 A 
ATOM      8  C   UNL     1       4.259   2.848  17.556  0.00  0.00    +0.000 A 
ATOM      9  C   UNL     1       3.513   2.172  18.512  0.00  0.00    +0.000 A 
ATOM     10  C   UNL     1       2.625   2.880  19.303  0.00  0.00    +0.000 A 
ATOM     11  C   UNL     1       2.491   4.269  19.154  0.00  0.00    +0.000 A 
ATOM     12 BR   UNL     1       1.101   5.015  20.232  0.00  0.00    +0.000 Br
ATOM     13  C   UNL     1       3.293   5.017  18.221  0.00  0.00    +0.000 A 
ENDBRANCH   2   3
BRANCH   1  19
ATOM     14  O   UNL     1       2.167  13.047  18.751  0.00  0.00    +0.000 OA
ATOM     15  C   UNL     1       1.458  12.040  18.755  0.00  0.00    +0.000 C 
ATOM     16  C   UNL     1      -0.017  12.140  18.515  0.00  0.00    +0.000 C 
ATOM     17  C   UNL     1      -0.796  10.948  19.023  0.00  0.00    +0.000 C 
ATOM     18  C   UNL     1      -0.162   9.664  18.541  0.00  0.00    +0.000 C 
ATOM     19  C   UNL     1       1.281   9.578  19.015  0.00  0.00    +0.000 C 
ATOM     20  O   UNL     1       2.004  10.824  18.923  0.00  0.00    +0.000 OA
BRANCH  17  21
ATOM     21  O   UNL     1      -0.921  10.954  20.443  0.00  0.00    +0.000 OA
ATOM     22  H   UNL     1      -1.739  11.410  20.708  0.00  0.00    +0.000 HD
ENDBRANCH  17  21
ENDBRANCH   1  19
TORSDOF 3
ENDMDL
