MODEL 1
REMARK VINA RESULT:      -6.8      0.000      0.000
REMARK  Name = 
REMARK  8 active torsions:
REMARK  status: ('A' for Active; 'I' for Inactive)
REMARK    1  A    between atoms: C_1  and  O_2
REMARK    2  A    between atoms: O_2  and  C_3
REMARK    3  A    between atoms: C_5  and  C_6
REMARK    4  A    between atoms: C_12  and  C_13
REMARK    5  A    between atoms: C_16  and  O_17
REMARK    6  A    between atoms: O_17  and  C_18
REMARK    7  A    between atoms: C_19  and  O_20
REMARK    8  A    between atoms: O_20  and  C_21
REMARK                            x       y       z     vdW  Elec       q    Type
REMARK                         _______ _______ _______ _____ _____    ______ ____
ROOT
ATOM      1  C   UNL     1       3.738   4.738  17.442  0.00  0.00    +0.000 A 
ATOM      2  C   UNL     1       2.928   5.768  17.943  0.00  0.00    +0.000 A 
ATOM      3  C   UNL     1       3.322   7.103  17.852  0.00  0.00    +0.000 A 
ATOM      4  C   UNL     1       4.593   7.401  17.377  0.00  0.00    +0.000 A 
ATOM      5  C   UNL     1       5.465   6.375  16.967  0.00  0.00    +0.000 A 
ATOM      6  C   UNL     1       5.042   5.021  16.984  0.00  0.00    +0.000 A 
ENDROOT
BRANCH   3   7
ATOM      7  C   UNL     1       2.322   8.140  18.237  0.00  0.00    +0.000 C 
ATOM      8  O   UNL     1       2.105   9.040  17.433  0.00  0.00    +0.000 OA
ATOM      9  N   UNL     1       1.819   8.038  19.512  0.00  0.00    +0.000 N 
ATOM     10  C   UNL     1       0.995   9.021  20.006  0.00  0.00    +0.000 A 
ATOM     11  N   UNL     1       0.388   9.997  19.387  0.00  0.00    +0.000 NA
ATOM     12  N   UNL     1      -0.286  10.832  20.253  0.00  0.00    +0.000 NA
ATOM     13  C   UNL     1      -0.150  10.454  21.508  0.00  0.00    +0.000 A 
ATOM     14  C   UNL     1      -0.686  11.209  22.669  0.00  0.00    +0.000 C 
ATOM     15  S   UNL     1       0.753   8.998  21.702  0.00  0.00    +0.000 S 
ATOM     16  H   UNL     1       2.180   7.366  20.174  0.00  0.00    +0.000 HD
ENDBRANCH   3   7
BRANCH   1  18
ATOM     17  C   UNL     1       3.462   2.701  18.629  0.00  0.00    +0.000 C 
ATOM     18  O   UNL     1       3.265   3.451  17.427  0.00  0.00    +0.000 OA
ENDBRANCH   1  18
BRANCH   5  19
ATOM     19  O   UNL     1       6.676   6.887  16.565  0.00  0.00    +0.000 OA
ATOM     20  C   UNL     1       7.525   7.516  17.514  0.00  0.00    +0.000 C 
ENDBRANCH   5  19
BRANCH   6  21
ATOM     21  O   UNL     1       5.955   4.104  16.546  0.00  0.00    +0.000 OA
ATOM     22  C   UNL     1       6.090   3.786  15.172  0.00  0.00    +0.000 C 
ENDBRANCH   6  21
TORSDOF 4
ENDMDL
MODEL 2
REMARK VINA RESULT:      -6.7      1.554      3.157
REMARK  Name = 
REMARK  8 active torsions:
REMARK  status: ('A' for Active; 'I' for Inactive)
REMARK    1  A    between atoms: C_1  and  O_2
REMARK    2  A    between atoms: O_2  and  C_3
REMARK    3  A    between atoms: C_5  and  C_6
REMARK    4  A    between atoms: C_12  and  C_13
REMARK    5  A    between atoms: C_16  and  O_17
REMARK    6  A    between atoms: O_17  and  C_18
REMARK    7  A    between atoms: C_19  and  O_20
REMARK    8  A    between atoms: O_20  and  C_21
REMARK                            x       y       z     vdW  Elec       q    Type
REMARK                         _______ _______ _______ _____ _____    ______ ____
ROOT
ATOM      1  C   UNL     1       5.424   6.151  16.977  0.00  0.00    +0.000 A 
ATOM      2  C   UNL     1       4.423   6.819  17.698  0.00  0.00    +0.000 A 
ATOM      3  C   UNL     1       3.413   6.112  18.351  0.00  0.00    +0.000 A 
ATOM      4  C   UNL     1       3.326   4.737  18.172  0.00  0.00    +0.000 A 
ATOM      5  C   UNL     1       4.260   4.058  17.366  0.00  0.00    +0.000 A 
ATOM      6  C   UNL     1       5.334   4.760  16.762  0.00  0.00    +0.000 A 
ENDROOT
BRANCH   3   7
ATOM      7  C   UNL     1       2.503   6.885  19.245  0.00  0.00    +0.000 C 
ATOM      8  O   UNL     1       2.025   6.297  20.208  0.00  0.00    +0.000 OA
ATOM      9  N   UNL     1       2.208   8.163  18.833  0.00  0.00    +0.000 N 
ATOM     10  C   UNL     1       1.276   8.907  19.516  0.00  0.00    +0.000 A 
ATOM     11  N   UNL     1       0.728   8.700  20.683  0.00  0.00    +0.000 NA
ATOM     12  N   UNL     1      -0.235   9.637  20.986  0.00  0.00    +0.000 NA
ATOM     13  C   UNL     1      -0.386  10.520  20.020  0.00  0.00    +0.000 A 
ATOM     14  C   UNL     1      -1.413  11.593  20.023  0.00  0.00    +0.000 C 
ATOM     15  S   UNL     1       0.704  10.301  18.703  0.00  0.00    +0.000 S 
ATOM     16  H   UNL     1       2.507   8.514  17.935  0.00  0.00    +0.000 HD
ENDBRANCH   3   7
BRANCH   1  18
ATOM     17  C   UNL     1       7.458   7.297  17.404  0.00  0.00    +0.000 C 
ATOM     18  O   UNL     1       6.475   6.864  16.459  0.00  0.00    +0.000 OA
ENDBRANCH   1  18
BRANCH   5  19
ATOM     19  O   UNL     1       3.972   2.715  17.301  0.00  0.00    +0.000 OA
ATOM     20  C   UNL     1       2.781   2.221  17.896  0.00  0.00    +0.000 C 
ENDBRANCH   5  19
BRANCH   6  21
ATOM     21  O   UNL     1       6.197   4.006  16.017  0.00  0.00    +0.000 OA
ATOM     22  C   UNL     1       6.153   4.006  14.601  0.00  0.00    +0.000 C 
ENDBRANCH   6  21
TORSDOF 4
ENDMDL
MODEL 3
REMARK VINA RESULT:      -6.6      0.675      2.795
REMARK  Name = 
REMARK  8 active torsions:
REMARK  status: ('A' for Active; 'I' for Inactive)
REMARK    1  A    between atoms: C_1  and  O_2
REMARK    2  A    between atoms: O_2  and  C_3
REMARK    3  A    between atoms: C_5  and  C_6
REMARK    4  A    between atoms: C_12  and  C_13
REMARK    5  A    between atoms: C_16  and  O_17
REMARK    6  A    between atoms: O_17  and  C_18
REMARK    7  A    between atoms: C_19  and  O_20
REMARK    8  A    between atoms: O_20  and  C_21
REMARK                            x       y       z     vdW  Elec       q    Type
REMARK                         _______ _______ _______ _____ _____    ______ ____
ROOT
ATOM      1  C   UNL     1       5.135   6.619  17.037  0.00  0.00    +0.000 A 
ATOM      2  C   UNL     1       4.171   7.615  17.255  0.00  0.00    +0.000 A 
ATOM      3  C   UNL     1       2.972   7.326  17.907  0.00  0.00    +0.000 A 
ATOM      4  C   UNL     1       2.677   6.006  18.223  0.00  0.00    +0.000 A 
ATOM      5  C   UNL     1       3.585   4.974  17.918  0.00  0.00    +0.000 A 
ATOM      6  C   UNL     1       4.839   5.271  17.326  0.00  0.00    +0.000 A 
ENDROOT
BRANCH   3   7
ATOM      7  C   UNL     1       2.092   8.476  18.263  0.00  0.00    +0.000 C 
ATOM      8  O   UNL     1       2.055   9.421  17.482  0.00  0.00    +0.000 OA
ATOM      9  N   UNL     1       1.486   8.404  19.494  0.00  0.00    +0.000 N 
ATOM     10  C   UNL     1       0.764   9.472  19.969  0.00  0.00    +0.000 A 
ATOM     11  N   UNL     1       0.339  10.540  19.349  0.00  0.00    +0.000 NA
ATOM     12  N   UNL     1      -0.282  11.430  20.199  0.00  0.00    +0.000 NA
ATOM     13  C   UNL     1      -0.291  10.999  21.444  0.00  0.00    +0.000 A 
ATOM     14  C   UNL     1      -0.808  11.784  22.594  0.00  0.00    +0.000 C 
ATOM     15  S   UNL     1       0.396   9.430  21.641  0.00  0.00    +0.000 S 
ATOM     16  H   UNL     1       1.705   7.669  20.152  0.00  0.00    +0.000 HD
ENDBRANCH   3   7
BRANCH   1  18
ATOM     17  C   UNL     1       7.378   7.264  17.469  0.00  0.00    +0.000 C 
ATOM     18  O   UNL     1       6.356   6.962  16.515  0.00  0.00    +0.000 OA
ENDBRANCH   1  18
BRANCH   5  19
ATOM     19  O   UNL     1       3.081   3.749  18.287  0.00  0.00    +0.000 OA
ATOM     20  C   UNL     1       1.706   3.462  18.083  0.00  0.00    +0.000 C 
ENDBRANCH   5  19
BRANCH   6  21
ATOM     21  O   UNL     1       5.656   4.202  17.090  0.00  0.00    +0.000 OA
ATOM     22  C   UNL     1       5.945   3.763  15.774  0.00  0.00    +0.000 C 
ENDBRANCH   6  21
TORSDOF 4
ENDMDL
MODEL 4
REMARK VINA RESULT:      -6.5      1.747      2.407
REMARK  Name = 
REMARK  8 active torsions:
REMARK  status: ('A' for Active; 'I' for Inactive)
REMARK    1  A    between atoms: C_1  and  O_2
REMARK    2  A    between atoms: O_2  and  C_3
REMARK    3  A    between atoms: C_5  and  C_6
REMARK    4  A    between atoms: C_12  and  C_13
REMARK    5  A    between atoms: C_16  and  O_17
REMARK    6  A    between atoms: O_17  and  C_18
REMARK    7  A    between atoms: C_19  and  O_20
REMARK    8  A    between atoms: O_20  and  C_21
REMARK                            x       y       z     vdW  Elec       q    Type
REMARK                         _______ _______ _______ _____ _____    ______ ____
ROOT
ATOM      1  C   UNL     1       2.895   4.700  19.896  0.00  0.00    +0.000 A 
ATOM      2  C   UNL     1       2.518   6.045  19.758  0.00  0.00    +0.000 A 
ATOM      3  C   UNL     1       2.786   6.750  18.584  0.00  0.00    +0.000 A 
ATOM      4  C   UNL     1       3.552   6.147  17.594  0.00  0.00    +0.000 A 
ATOM      5  C   UNL     1       4.030   4.833  17.757  0.00  0.00    +0.000 A 
ATOM      6  C   UNL     1       3.697   4.084  18.913  0.00  0.00    +0.000 A 
ENDROOT
BRANCH   3   7
ATOM      7  C   UNL     1       2.188   8.109  18.450  0.00  0.00    +0.000 C 
ATOM      8  O   UNL     1       2.400   8.718  17.408  0.00  0.00    +0.000 OA
ATOM      9  N   UNL     1       1.542   8.588  19.565  0.00  0.00    +0.000 N 
ATOM     10  C   UNL     1       1.075   9.880  19.586  0.00  0.00    +0.000 A 
ATOM     11  N   UNL     1       0.933  10.738  18.612  0.00  0.00    +0.000 NA
ATOM     12  N   UNL     1       0.511  11.973  19.055  0.00  0.00    +0.000 NA
ATOM     13  C   UNL     1       0.360  12.003  20.364  0.00  0.00    +0.000 A 
ATOM     14  C   UNL     1       0.003  13.221  21.135  0.00  0.00    +0.000 C 
ATOM     15  S   UNL     1       0.653  10.487  21.132  0.00  0.00    +0.000 S 
ATOM     16  H   UNL     1       1.561   8.092  20.444  0.00  0.00    +0.000 HD
ENDBRANCH   3   7
BRANCH   1  18
ATOM     17  C   UNL     1       1.234   3.339  20.909  0.00  0.00    +0.000 C 
ATOM     18  O   UNL     1       2.500   3.998  21.006  0.00  0.00    +0.000 OA
ENDBRANCH   1  18
BRANCH   5  19
ATOM     19  O   UNL     1       4.789   4.447  16.677  0.00  0.00    +0.000 OA
ATOM     20  C   UNL     1       6.191   4.670  16.684  0.00  0.00    +0.000 C 
ENDBRANCH   5  19
BRANCH   6  21
ATOM     21  O   UNL     1       4.193   2.812  18.965  0.00  0.00    +0.000 OA
ATOM     22  C   UNL     1       3.488   1.715  18.410  0.00  0.00    +0.000 C 
ENDBRANCH   6  21
TORSDOF 4
ENDMDL
MODEL 5
REMARK VINA RESULT:      -6.5      1.922      3.359
REMARK  Name = 
REMARK  8 active torsions:
REMARK  status: ('A' for Active; 'I' for Inactive)
REMARK    1  A    between atoms: C_1  and  O_2
REMARK    2  A    between atoms: O_2  and  C_3
REMARK    3  A    between atoms: C_5  and  C_6
REMARK    4  A    between atoms: C_12  and  C_13
REMARK    5  A    between atoms: C_16  and  O_17
REMARK    6  A    between atoms: O_17  and  C_18
REMARK    7  A    between atoms: C_19  and  O_20
REMARK    8  A    between atoms: O_20  and  C_21
REMARK                            x       y       z     vdW  Elec       q    Type
REMARK                         _______ _______ _______ _____ _____    ______ ____
ROOT
ATOM      1  C   UNL     1       4.686   5.060  18.897  0.00  0.00    +0.000 A 
ATOM      2  C   UNL     1       4.147   6.333  18.661  0.00  0.00    +0.000 A 
ATOM      3  C   UNL     1       2.814   6.491  18.280  0.00  0.00    +0.000 A 
ATOM      4  C   UNL     1       2.053   5.363  18.002  0.00  0.00    +0.000 A 
ATOM      5  C   UNL     1       2.606   4.074  18.131  0.00  0.00    +0.000 A 
ATOM      6  C   UNL     1       3.936   3.905  18.592  0.00  0.00    +0.000 A 
ENDROOT
BRANCH   3   7
ATOM      7  C   UNL     1       2.275   7.881  18.234  0.00  0.00    +0.000 C 
ATOM      8  O   UNL     1       2.543   8.558  17.248  0.00  0.00    +0.000 OA
ATOM      9  N   UNL     1       1.613   8.300  19.363  0.00  0.00    +0.000 N 
ATOM     10  C   UNL     1       1.197   9.606  19.471  0.00  0.00    +0.000 A 
ATOM     11  N   UNL     1       1.120  10.540  18.562  0.00  0.00    +0.000 NA
ATOM     12  N   UNL     1       0.733  11.754  19.086  0.00  0.00    +0.000 NA
ATOM     13  C   UNL     1       0.542  11.691  20.388  0.00  0.00    +0.000 A 
ATOM     14  C   UNL     1       0.209  12.861  21.240  0.00  0.00    +0.000 C 
ATOM     15  S   UNL     1       0.750  10.111  21.045  0.00  0.00    +0.000 S 
ATOM     16  H   UNL     1       1.585   7.739  20.202  0.00  0.00    +0.000 HD
ENDBRANCH   3   7
BRANCH   1  18
ATOM     17  C   UNL     1       7.009   5.387  18.534  0.00  0.00    +0.000 C 
ATOM     18  O   UNL     1       5.958   4.945  19.398  0.00  0.00    +0.000 OA
ENDBRANCH   1  18
BRANCH   5  19
ATOM     19  O   UNL     1       1.693   3.108  17.778  0.00  0.00    +0.000 OA
ATOM     20  C   UNL     1       0.845   2.545  18.769  0.00  0.00    +0.000 C 
ENDBRANCH   5  19
BRANCH   6  21
ATOM     21  O   UNL     1       4.370   2.614  18.702  0.00  0.00    +0.000 OA
ATOM     22  C   UNL     1       4.360   1.927  19.941  0.00  0.00    +0.000 C 
ENDBRANCH   6  21
TORSDOF 4
ENDMDL
MODEL 6
REMARK VINA RESULT:      -6.4      1.918      2.517
REMARK  Name = 
REMARK  8 active torsions:
REMARK  status: ('A' for Active; 'I' for Inactive)
REMARK    1  A    between atoms: C_1  and  O_2
REMARK    2  A    between atoms: O_2  and  C_3
REMARK    3  A    between atoms: C_5  and  C_6
REMARK    4  A    between atoms: C_12  and  C_13
REMARK    5  A    between atoms: C_16  and  O_17
REMARK    6  A    between atoms: O_17  and  C_18
REMARK    7  A    between atoms: C_19  and  O_20
REMARK    8  A    between atoms: O_20  and  C_21
REMARK                            x       y       z     vdW  Elec       q    Type
REMARK                         _______ _______ _______ _____ _____    ______ ____
ROOT
ATOM      1  C   UNL     1       2.313   3.843  19.986  0.00  0.00    +0.000 A 
ATOM      2  C   UNL     1       1.914   5.186  20.070  0.00  0.00    +0.000 A 
ATOM      3  C   UNL     1       2.684   6.202  19.504  0.00  0.00    +0.000 A 
ATOM      4  C   UNL     1       3.926   5.888  18.966  0.00  0.00    +0.000 A 
ATOM      5  C   UNL     1       4.393   4.560  18.964  0.00  0.00    +0.000 A 
ATOM      6  C   UNL     1       3.582   3.511  19.469  0.00  0.00    +0.000 A 
ENDROOT
BRANCH   3   7
ATOM      7  C   UNL     1       2.097   7.572  19.476  0.00  0.00    +0.000 C 
ATOM      8  O   UNL     1       2.496   8.339  18.607  0.00  0.00    +0.000 OA
ATOM      9  N   UNL     1       1.235   7.872  20.504  0.00  0.00    +0.000 N 
ATOM     10  C   UNL     1       0.747   9.149  20.641  0.00  0.00    +0.000 A 
ATOM     11  N   UNL     1       0.781  10.155  19.809  0.00  0.00    +0.000 NA
ATOM     12  N   UNL     1       0.255  11.306  20.353  0.00  0.00    +0.000 NA
ATOM     13  C   UNL     1      -0.149  11.126  21.594  0.00  0.00    +0.000 A 
ATOM     14  C   UNL     1      -0.674  12.208  22.466  0.00  0.00    +0.000 C 
ATOM     15  S   UNL     1       0.019   9.503  22.150  0.00  0.00    +0.000 S 
ATOM     16  H   UNL     1       1.092   7.240  21.279  0.00  0.00    +0.000 HD
ENDBRANCH   3   7
BRANCH   1  18
ATOM     17  C   UNL     1       1.616   2.494  21.811  0.00  0.00    +0.000 C 
ATOM     18  O   UNL     1       1.470   2.858  20.435  0.00  0.00    +0.000 OA
ENDBRANCH   1  18
BRANCH   5  19
ATOM     19  O   UNL     1       5.651   4.479  18.416  0.00  0.00    +0.000 OA
ATOM     20  C   UNL     1       6.655   5.399  18.818  0.00  0.00    +0.000 C 
ENDBRANCH   5  19
BRANCH   6  21
ATOM     21  O   UNL     1       4.118   2.256  19.403  0.00  0.00    +0.000 OA
ATOM     22  C   UNL     1       3.725   1.330  18.406  0.00  0.00    +0.000 C 
ENDBRANCH   6  21
TORSDOF 4
ENDMDL
MODEL 7
REMARK VINA RESULT:      -6.4      1.767      3.354
REMARK  Name = 
REMARK  8 active torsions:
REMARK  status: ('A' for Active; 'I' for Inactive)
REMARK    1  A    between atoms: C_1  and  O_2
REMARK    2  A    between atoms: O_2  and  C_3
REMARK    3  A    between atoms: C_5  and  C_6
REMARK    4  A    between atoms: C_12  and  C_13
REMARK    5  A    between atoms: C_16  and  O_17
REMARK    6  A    between atoms: O_17  and  C_18
REMARK    7  A    between atoms: C_19  and  O_20
REMARK    8  A    between atoms: O_20  and  C_21
REMARK                            x       y       z     vdW  Elec       q    Type
REMARK                         _______ _______ _______ _____ _____    ______ ____
ROOT
ATOM      1  C   UNL     1       4.025   4.689  17.926  0.00  0.00    +0.000 A 
ATOM      2  C   UNL     1       3.425   5.952  17.816  0.00  0.00    +0.000 A 
ATOM      3  C   UNL     1       2.662   6.479  18.858  0.00  0.00    +0.000 A 
ATOM      4  C   UNL     1       2.385   5.682  19.962  0.00  0.00    +0.000 A 
ATOM      5  C   UNL     1       2.890   4.371  20.046  0.00  0.00    +0.000 A 
ATOM      6  C   UNL     1       3.731   3.857  19.026  0.00  0.00    +0.000 A 
ENDROOT
BRANCH   3   7
ATOM      7  C   UNL     1       2.220   7.898  18.735  0.00  0.00    +0.000 C 
ATOM      8  O   UNL     1       2.625   8.532  17.767  0.00  0.00    +0.000 OA
ATOM      9  N   UNL     1       1.481   8.385  19.786  0.00  0.00    +0.000 N 
ATOM     10  C   UNL     1       1.142   9.716  19.829  0.00  0.00    +0.000 A 
ATOM     11  N   UNL     1       1.212  10.631  18.899  0.00  0.00    +0.000 NA
ATOM     12  N   UNL     1       0.856  11.879  19.361  0.00  0.00    +0.000 NA
ATOM     13  C   UNL     1       0.537  11.861  20.639  0.00  0.00    +0.000 A 
ATOM     14  C   UNL     1       0.200  13.070  21.433  0.00  0.00    +0.000 C 
ATOM     15  S   UNL     1       0.579  10.287  21.342  0.00  0.00    +0.000 S 
ATOM     16  H   UNL     1       1.336   7.848  20.629  0.00  0.00    +0.000 HD
ENDBRANCH   3   7
BRANCH   1  18
ATOM     17  C   UNL     1       6.252   4.618  17.105  0.00  0.00    +0.000 C 
ATOM     18  O   UNL     1       4.877   4.257  16.941  0.00  0.00    +0.000 OA
ENDBRANCH   1  18
BRANCH   5  19
ATOM     19  O   UNL     1       2.471   3.753  21.201  0.00  0.00    +0.000 OA
ATOM     20  C   UNL     1       1.321   2.921  21.178  0.00  0.00    +0.000 C 
ENDBRANCH   5  19
BRANCH   6  21
ATOM     21  O   UNL     1       4.185   2.582  19.212  0.00  0.00    +0.000 OA
ATOM     22  C   UNL     1       3.595   1.477  18.550  0.00  0.00    +0.000 C 
ENDBRANCH   6  21
TORSDOF 4
ENDMDL
MODEL 8
REMARK VINA RESULT:      -6.4      1.570      1.591
REMARK  Name = 
REMARK  8 active torsions:
REMARK  status: ('A' for Active; 'I' for Inactive)
REMARK    1  A    between atoms: C_1  and  O_2
REMARK    2  A    between atoms: O_2  and  C_3
REMARK    3  A    between atoms: C_5  and  C_6
REMARK    4  A    between atoms: C_12  and  C_13
REMARK    5  A    between atoms: C_16  and  O_17
REMARK    6  A    between atoms: O_17  and  C_18
REMARK    7  A    between atoms: C_19  and  O_20
REMARK    8  A    between atoms: O_20  and  C_21
REMARK                            x       y       z     vdW  Elec       q    Type
REMARK                         _______ _______ _______ _____ _____    ______ ____
ROOT
ATOM      1  C   UNL     1       4.078   4.088  17.390  0.00  0.00    +0.000 A 
ATOM      2  C   UNL     1       3.310   4.846  18.287  0.00  0.00    +0.000 A 
ATOM      3  C   UNL     1       3.533   6.214  18.448  0.00  0.00    +0.000 A 
ATOM      4  C   UNL     1       4.618   6.801  17.809  0.00  0.00    +0.000 A 
ATOM      5  C   UNL     1       5.466   6.036  16.986  0.00  0.00    +0.000 A 
ATOM      6  C   UNL     1       5.199   4.662  16.756  0.00  0.00    +0.000 A 
ENDROOT
BRANCH   3   7
ATOM      7  C   UNL     1       2.554   6.975  19.276  0.00  0.00    +0.000 C 
ATOM      8  O   UNL     1       2.026   6.384  20.211  0.00  0.00    +0.000 OA
ATOM      9  N   UNL     1       2.261   8.244  18.836  0.00  0.00    +0.000 N 
ATOM     10  C   UNL     1       1.273   8.974  19.453  0.00  0.00    +0.000 A 
ATOM     11  N   UNL     1       0.656   8.764  20.584  0.00  0.00    +0.000 NA
ATOM     12  N   UNL     1      -0.343   9.685  20.817  0.00  0.00    +0.000 NA
ATOM     13  C   UNL     1      -0.449  10.558  19.837  0.00  0.00    +0.000 A 
ATOM     14  C   UNL     1      -1.494  11.611  19.766  0.00  0.00    +0.000 C 
ATOM     15  S   UNL     1       0.728  10.352  18.593  0.00  0.00    +0.000 S 
ATOM     16  H   UNL     1       2.610   8.595  17.956  0.00  0.00    +0.000 HD
ENDBRANCH   3   7
BRANCH   1  18
ATOM     17  C   UNL     1       2.816   2.197  18.075  0.00  0.00    +0.000 C 
ATOM     18  O   UNL     1       3.747   2.778  17.157  0.00  0.00    +0.000 OA
ENDBRANCH   1  18
BRANCH   5  19
ATOM     19  O   UNL     1       6.488   6.805  16.480  0.00  0.00    +0.000 OA
ATOM     20  C   UNL     1       7.506   7.282  17.348  0.00  0.00    +0.000 C 
ENDBRANCH   5  19
BRANCH   6  21
ATOM     21  O   UNL     1       6.069   4.015  15.926  0.00  0.00    +0.000 OA
ATOM     22  C   UNL     1       5.876   3.983  14.523  0.00  0.00    +0.000 C 
ENDBRANCH   6  21
TORSDOF 4
ENDMDL
MODEL 9
REMARK VINA RESULT:      -6.3      2.448      3.133
REMARK  Name = 
REMARK  8 active torsions:
REMARK  status: ('A' for Active; 'I' for Inactive)
REMARK    1  A    between atoms: C_1  and  O_2
REMARK    2  A    between atoms: O_2  and  C_3
REMARK    3  A    between atoms: C_5  and  C_6
REMARK    4  A    between atoms: C_12  and  C_13
REMARK    5  A    between atoms: C_16  and  O_17
REMARK    6  A    between atoms: O_17  and  C_18
REMARK    7  A    between atoms: C_19  and  O_20
REMARK    8  A    between atoms: O_20  and  C_21
REMARK                            x       y       z     vdW  Elec       q    Type
REMARK                         _______ _______ _______ _____ _____    ______ ____
ROOT
ATOM      1  C   UNL     1       1.580   4.468  20.044  0.00  0.00    +0.000 A 
ATOM      2  C   UNL     1       1.441   5.724  20.653  0.00  0.00    +0.000 A 
ATOM      3  C   UNL     1       1.954   6.875  20.056  0.00  0.00    +0.000 A 
ATOM      4  C   UNL     1       2.728   6.752  18.908  0.00  0.00    +0.000 A 
ATOM      5  C   UNL     1       2.969   5.488  18.337  0.00  0.00    +0.000 A 
ATOM      6  C   UNL     1       2.386   4.322  18.896  0.00  0.00    +0.000 A 
ENDROOT
BRANCH   3   7
ATOM      7  C   UNL     1       1.600   8.185  20.674  0.00  0.00    +0.000 C 
ATOM      8  O   UNL     1       1.508   8.225  21.896  0.00  0.00    +0.000 OA
ATOM      9  N   UNL     1       1.305   9.199  19.794  0.00  0.00    +0.000 N 
ATOM     10  C   UNL     1       0.838  10.403  20.264  0.00  0.00    +0.000 A 
ATOM     11  N   UNL     1       0.813  10.876  21.481  0.00  0.00    +0.000 NA
ATOM     12  N   UNL     1       0.179  12.097  21.558  0.00  0.00    +0.000 NA
ATOM     13  C   UNL     1      -0.263  12.498  20.383  0.00  0.00    +0.000 A 
ATOM     14  C   UNL     1      -1.064  13.731  20.170  0.00  0.00    +0.000 C 
ATOM     15  S   UNL     1       0.139  11.433  19.089  0.00  0.00    +0.000 S 
ATOM     16  H   UNL     1       1.236   9.036  18.800  0.00  0.00    +0.000 HD
ENDBRANCH   3   7
BRANCH   1  18
ATOM     17  C   UNL     1       1.651   2.719  21.647  0.00  0.00    +0.000 C 
ATOM     18  O   UNL     1       0.950   3.378  20.589  0.00  0.00    +0.000 OA
ENDBRANCH   1  18
BRANCH   5  19
ATOM     19  O   UNL     1       3.780   5.593  17.231  0.00  0.00    +0.000 OA
ATOM     20  C   UNL     1       5.172   5.817  17.397  0.00  0.00    +0.000 C 
ENDBRANCH   5  19
BRANCH   6  21
ATOM     21  O   UNL     1       2.664   3.149  18.254  0.00  0.00    +0.000 OA
ATOM     22  C   UNL     1       3.769   2.343  18.624  0.00  0.00    +0.000 C 
ENDBRANCH   6  21
TORSDOF 4
ENDMDL
