MODEL 1
REMARK VINA RESULT:      -7.7      0.000      0.000
REMARK  Name = 
REMARK  10 active torsions:
REMARK  status: ('A' for Active; 'I' for Inactive)
REMARK    1  A    between atoms: C_2  and  C_10
REMARK    2  A    between atoms: N_3  and  C_4
REMARK    3  A    between atoms: C_15  and  O_16
REMARK    4  A    between atoms: O_16  and  C_17
REMARK    5  A    between atoms: C_17  and  C_18
REMARK    6  A    between atoms: C_23  and  O_24
REMARK    7  A    between atoms: O_24  and  C_25
REMARK    8  A    between atoms: C_25  and  C_26
REMARK    9  A    between atoms: C_26  and  C_27
REMARK   10  A    between atoms: C_27  and  C_28
REMARK                            x       y       z     vdW  Elec       q    Type
REMARK                         _______ _______ _______ _____ _____    ______ ____
ROOT
ATOM      1  C   UNL     1       1.946   4.798  19.921  0.00  0.00    +0.000 A 
ATOM      2  C   UNL     1       1.503   3.976  20.988  0.00  0.00    +0.000 A 
ATOM      3  C   UNL     1       1.659   2.593  20.978  0.00  0.00    +0.000 A 
ATOM      4  C   UNL     1       2.294   1.998  19.910  0.00  0.00    +0.000 A 
ATOM      5  C   UNL     1       2.759   2.792  18.866  0.00  0.00    +0.000 A 
ATOM      6  C   UNL     1       2.567   4.179  18.817  0.00  0.00    +0.000 A 
ENDROOT
BRANCH   1   8
ATOM      7  O   UNL     1       1.044   6.573  21.150  0.00  0.00    +0.000 OA
ATOM      8  C   UNL     1       1.643   6.260  20.120  0.00  0.00    +0.000 C 
ATOM      9  N   UNL     1       2.044   7.162  19.153  0.00  0.00    +0.000 N 
ATOM     10  H   UNL     1       2.577   6.785  18.376  0.00  0.00    +0.000 HD
BRANCH   9  11
ATOM     11  C   UNL     1       1.751   8.554  19.144  0.00  0.00    +0.000 A 
ATOM     12  C   UNL     1       1.919   9.396  18.043  0.00  0.00    +0.000 A 
ATOM     13  C   UNL     1       1.655  10.765  18.149  0.00  0.00    +0.000 A 
ATOM     14  C   UNL     1       1.220  11.259  19.363  0.00  0.00    +0.000 A 
ATOM     15  N   UNL     1       1.023  10.484  20.453  0.00  0.00    +0.000 NA
ATOM     16  C   UNL     1       1.291   9.157  20.312  0.00  0.00    +0.000 A 
ENDBRANCH   9  11
ENDBRANCH   1   8
BRANCH   6  17
ATOM     17  O   UNL     1       3.007   4.905  17.732  0.00  0.00    +0.000 OA
BRANCH  17  18
ATOM     18  C   UNL     1       4.221   4.411  17.088  0.00  0.00    +0.000 C 
BRANCH  18  19
ATOM     19  C   UNL     1       5.513   5.088  17.529  0.00  0.00    +0.000 A 
ATOM     20  C   UNL     1       5.876   4.973  18.886  0.00  0.00    +0.000 A 
ATOM     21  C   UNL     1       7.000   5.621  19.400  0.00  0.00    +0.000 A 
ATOM     22  C   UNL     1       7.770   6.427  18.574  0.00  0.00    +0.000 A 
ATOM     23  C   UNL     1       7.437   6.558  17.228  0.00  0.00    +0.000 A 
ATOM     24  C   UNL     1       6.347   5.861  16.679  0.00  0.00    +0.000 A 
BRANCH  24  25
ATOM     25  O   UNL     1       6.096   5.892  15.316  0.00  0.00    +0.000 OA
BRANCH  25  26
ATOM     26  C   UNL     1       6.927   4.995  14.546  0.00  0.00    +0.000 C 
BRANCH  26  27
ATOM     27  C   UNL     1       6.193   3.730  14.098  0.00  0.00    +0.000 C 
BRANCH  27  28
ATOM     28  C   UNL     1       5.143   4.001  13.020  0.00  0.00    +0.000 C 
BRANCH  28  29
ATOM     29  C   UNL     1       5.282   3.096  11.798  0.00  0.00    +0.000 C 
ATOM     30 CL   UNL     1       3.801   3.057  10.813  0.00  0.00    +0.000 Cl
ENDBRANCH  28  29
ENDBRANCH  27  28
ENDBRANCH  26  27
ENDBRANCH  25  26
ENDBRANCH  24  25
ENDBRANCH  18  19
ENDBRANCH  17  18
ENDBRANCH   6  17
TORSDOF 10
ENDMDL
MODEL 2
REMARK VINA RESULT:      -7.7      1.229      1.463
REMARK  Name = 
REMARK  10 active torsions:
REMARK  status: ('A' for Active; 'I' for Inactive)
REMARK    1  A    between atoms: C_2  and  C_10
REMARK    2  A    between atoms: N_3  and  C_4
REMARK    3  A    between atoms: C_15  and  O_16
REMARK    4  A    between atoms: O_16  and  C_17
REMARK    5  A    between atoms: C_17  and  C_18
REMARK    6  A    between atoms: C_23  and  O_24
REMARK    7  A    between atoms: O_24  and  C_25
REMARK    8  A    between atoms: C_25  and  C_26
REMARK    9  A    between atoms: C_26  and  C_27
REMARK   10  A    between atoms: C_27  and  C_28
REMARK                            x       y       z     vdW  Elec       q    Type
REMARK                         _______ _______ _______ _____ _____    ______ ____
ROOT
ATOM      1  C   UNL     1       2.817   4.489  19.533  0.00  0.00    +0.000 A 
ATOM      2  C   UNL     1       2.390   4.116  20.832  0.00  0.00    +0.000 A 
ATOM      3  C   UNL     1       2.811   2.939  21.446  0.00  0.00    +0.000 A 
ATOM      4  C   UNL     1       3.699   2.119  20.784  0.00  0.00    +0.000 A 
ATOM      5  C   UNL     1       4.148   2.484  19.518  0.00  0.00    +0.000 A 
ATOM      6  C   UNL     1       3.701   3.631  18.849  0.00  0.00    +0.000 A 
ENDROOT
BRANCH   1   8
ATOM      7  O   UNL     1       1.654   5.760  17.949  0.00  0.00    +0.000 OA
ATOM      8  C   UNL     1       2.211   5.781  19.048  0.00  0.00    +0.000 C 
ATOM      9  N   UNL     1       2.311   6.905  19.844  0.00  0.00    +0.000 N 
ATOM     10  H   UNL     1       2.746   6.779  20.752  0.00  0.00    +0.000 HD
BRANCH   9  11
ATOM     11  C   UNL     1       1.881   8.214  19.489  0.00  0.00    +0.000 A 
ATOM     12  C   UNL     1       1.017   9.002  20.252  0.00  0.00    +0.000 A 
ATOM     13  C   UNL     1       0.607  10.257  19.792  0.00  0.00    +0.000 A 
ATOM     14  C   UNL     1       1.082  10.697  18.572  0.00  0.00    +0.000 A 
ATOM     15  N   UNL     1       1.934   9.982  17.805  0.00  0.00    +0.000 NA
ATOM     16  C   UNL     1       2.310   8.765  18.285  0.00  0.00    +0.000 A 
ENDBRANCH   9  11
ENDBRANCH   1   8
BRANCH   6  17
ATOM     17  O   UNL     1       4.146   3.912  17.576  0.00  0.00    +0.000 OA
BRANCH  17  18
ATOM     18  C   UNL     1       5.571   3.699  17.341  0.00  0.00    +0.000 C 
BRANCH  18  19
ATOM     19  C   UNL     1       6.457   4.920  17.558  0.00  0.00    +0.000 A 
ATOM     20  C   UNL     1       7.161   5.003  18.777  0.00  0.00    +0.000 A 
ATOM     21  C   UNL     1       7.936   6.117  19.098  0.00  0.00    +0.000 A 
ATOM     22  C   UNL     1       8.001   7.191  18.222  0.00  0.00    +0.000 A 
ATOM     23  C   UNL     1       7.318   7.136  17.008  0.00  0.00    +0.000 A 
ATOM     24  C   UNL     1       6.586   5.995  16.639  0.00  0.00    +0.000 A 
BRANCH  24  25
ATOM     25  O   UNL     1       6.015   5.892  15.380  0.00  0.00    +0.000 OA
BRANCH  25  26
ATOM     26  C   UNL     1       6.726   5.008  14.484  0.00  0.00    +0.000 C 
BRANCH  26  27
ATOM     27  C   UNL     1       5.796   4.166  13.607  0.00  0.00    +0.000 C 
BRANCH  27  28
ATOM     28  C   UNL     1       6.526   3.486  12.449  0.00  0.00    +0.000 C 
BRANCH  28  29
ATOM     29  C   UNL     1       5.640   2.534  11.649  0.00  0.00    +0.000 C 
ATOM     30 CL   UNL     1       4.037   3.227  11.311  0.00  0.00    +0.000 Cl
ENDBRANCH  28  29
ENDBRANCH  27  28
ENDBRANCH  26  27
ENDBRANCH  25  26
ENDBRANCH  24  25
ENDBRANCH  18  19
ENDBRANCH  17  18
ENDBRANCH   6  17
TORSDOF 10
ENDMDL
MODEL 3
REMARK VINA RESULT:      -7.6      3.052      4.390
REMARK  Name = 
REMARK  10 active torsions:
REMARK  status: ('A' for Active; 'I' for Inactive)
REMARK    1  A    between atoms: C_2  and  C_10
REMARK    2  A    between atoms: N_3  and  C_4
REMARK    3  A    between atoms: C_15  and  O_16
REMARK    4  A    between atoms: O_16  and  C_17
REMARK    5  A    between atoms: C_17  and  C_18
REMARK    6  A    between atoms: C_23  and  O_24
REMARK    7  A    between atoms: O_24  and  C_25
REMARK    8  A    between atoms: C_25  and  C_26
REMARK    9  A    between atoms: C_26  and  C_27
REMARK   10  A    between atoms: C_27  and  C_28
REMARK                            x       y       z     vdW  Elec       q    Type
REMARK                         _______ _______ _______ _____ _____    ______ ____
ROOT
ATOM      1  C   UNL     1       2.274   5.296  20.050  0.00  0.00    +0.000 A 
ATOM      2  C   UNL     1       1.068   4.654  20.427  0.00  0.00    +0.000 A 
ATOM      3  C   UNL     1       0.992   3.282  20.649  0.00  0.00    +0.000 A 
ATOM      4  C   UNL     1       2.134   2.519  20.530  0.00  0.00    +0.000 A 
ATOM      5  C   UNL     1       3.332   3.138  20.186  0.00  0.00    +0.000 A 
ATOM      6  C   UNL     1       3.431   4.506  19.900  0.00  0.00    +0.000 A 
ENDROOT
BRANCH   1   8
ATOM      7  O   UNL     1       2.842   7.290  18.967  0.00  0.00    +0.000 OA
ATOM      8  C   UNL     1       2.124   6.778  19.826  0.00  0.00    +0.000 C 
ATOM      9  N   UNL     1       1.204   7.477  20.584  0.00  0.00    +0.000 N 
ATOM     10  H   UNL     1       0.634   6.931  21.221  0.00  0.00    +0.000 HD
BRANCH   9  11
ATOM     11  C   UNL     1       1.011   8.887  20.563  0.00  0.00    +0.000 A 
ATOM     12  C   UNL     1       0.864   9.652  19.404  0.00  0.00    +0.000 A 
ATOM     13  C   UNL     1       0.734  11.042  19.483  0.00  0.00    +0.000 A 
ATOM     14  C   UNL     1       0.750  11.634  20.730  0.00  0.00    +0.000 A 
ATOM     15  N   UNL     1       0.871  10.937  21.882  0.00  0.00    +0.000 NA
ATOM     16  C   UNL     1       0.996   9.587  21.766  0.00  0.00    +0.000 A 
ENDBRANCH   9  11
ENDBRANCH   1   8
BRANCH   6  17
ATOM     17  O   UNL     1       4.638   5.051  19.517  0.00  0.00    +0.000 OA
BRANCH  17  18
ATOM     18  C   UNL     1       5.551   4.148  18.823  0.00  0.00    +0.000 C 
BRANCH  18  19
ATOM     19  C   UNL     1       5.857   4.517  17.376  0.00  0.00    +0.000 A 
ATOM     20  C   UNL     1       5.137   3.843  16.369  0.00  0.00    +0.000 A 
ATOM     21  C   UNL     1       5.399   4.057  15.016  0.00  0.00    +0.000 A 
ATOM     22  C   UNL     1       6.411   4.927  14.637  0.00  0.00    +0.000 A 
ATOM     23  C   UNL     1       7.138   5.610  15.611  0.00  0.00    +0.000 A 
ATOM     24  C   UNL     1       6.843   5.456  16.976  0.00  0.00    +0.000 A 
BRANCH  24  25
ATOM     25  O   UNL     1       7.481   6.230  17.934  0.00  0.00    +0.000 OA
BRANCH  25  26
ATOM     26  C   UNL     1       7.638   7.617  17.556  0.00  0.00    +0.000 C 
BRANCH  26  27
ATOM     27  C   UNL     1       8.561   8.394  18.497  0.00  0.00    +0.000 C 
BRANCH  27  28
ATOM     28  C   UNL     1       8.618   9.888  18.174  0.00  0.00    +0.000 C 
BRANCH  28  29
ATOM     29  C   UNL     1       9.439  10.695  19.177  0.00  0.00    +0.000 C 
ATOM     30 CL   UNL     1       9.862  12.309  18.562  0.00  0.00    +0.000 Cl
ENDBRANCH  28  29
ENDBRANCH  27  28
ENDBRANCH  26  27
ENDBRANCH  25  26
ENDBRANCH  24  25
ENDBRANCH  18  19
ENDBRANCH  17  18
ENDBRANCH   6  17
TORSDOF 10
ENDMDL
MODEL 4
REMARK VINA RESULT:      -7.5      1.534      2.014
REMARK  Name = 
REMARK  10 active torsions:
REMARK  status: ('A' for Active; 'I' for Inactive)
REMARK    1  A    between atoms: C_2  and  C_10
REMARK    2  A    between atoms: N_3  and  C_4
REMARK    3  A    between atoms: C_15  and  O_16
REMARK    4  A    between atoms: O_16  and  C_17
REMARK    5  A    between atoms: C_17  and  C_18
REMARK    6  A    between atoms: C_23  and  O_24
REMARK    7  A    between atoms: O_24  and  C_25
REMARK    8  A    between atoms: C_25  and  C_26
REMARK    9  A    between atoms: C_26  and  C_27
REMARK   10  A    between atoms: C_27  and  C_28
REMARK                            x       y       z     vdW  Elec       q    Type
REMARK                         _______ _______ _______ _____ _____    ______ ____
ROOT
ATOM      1  C   UNL     1       2.430   4.150  19.434  0.00  0.00    +0.000 A 
ATOM      2  C   UNL     1       1.487   3.145  19.102  0.00  0.00    +0.000 A 
ATOM      3  C   UNL     1       1.868   1.889  18.640  0.00  0.00    +0.000 A 
ATOM      4  C   UNL     1       3.210   1.594  18.529  0.00  0.00    +0.000 A 
ATOM      5  C   UNL     1       4.149   2.560  18.876  0.00  0.00    +0.000 A 
ATOM      6  C   UNL     1       3.800   3.853  19.289  0.00  0.00    +0.000 A 
ENDROOT
BRANCH   1   8
ATOM      7  O   UNL     1       0.785   5.366  20.570  0.00  0.00    +0.000 OA
ATOM      8  C   UNL     1       1.801   5.445  19.878  0.00  0.00    +0.000 C 
ATOM      9  N   UNL     1       2.383   6.637  19.490  0.00  0.00    +0.000 N 
ATOM     10  H   UNL     1       3.248   6.568  18.966  0.00  0.00    +0.000 HD
BRANCH   9  11
ATOM     11  C   UNL     1       1.860   7.936  19.742  0.00  0.00    +0.000 A 
ATOM     12  C   UNL     1       1.481   8.412  20.999  0.00  0.00    +0.000 A 
ATOM     13  C   UNL     1       0.925   9.687  21.138  0.00  0.00    +0.000 A 
ATOM     14  C   UNL     1       0.766  10.462  20.006  0.00  0.00    +0.000 A 
ATOM     15  N   UNL     1       1.133  10.055  18.770  0.00  0.00    +0.000 NA
ATOM     16  C   UNL     1       1.670   8.809  18.674  0.00  0.00    +0.000 A 
ENDBRANCH   9  11
ENDBRANCH   1   8
BRANCH   6  17
ATOM     17  O   UNL     1       4.778   4.781  19.572  0.00  0.00    +0.000 OA
BRANCH  17  18
ATOM     18  C   UNL     1       6.033   4.624  18.843  0.00  0.00    +0.000 C 
BRANCH  18  19
ATOM     19  C   UNL     1       6.672   5.921  18.359  0.00  0.00    +0.000 A 
ATOM     20  C   UNL     1       7.881   6.314  18.968  0.00  0.00    +0.000 A 
ATOM     21  C   UNL     1       8.501   7.522  18.647  0.00  0.00    +0.000 A 
ATOM     22  C   UNL     1       7.910   8.380  17.732  0.00  0.00    +0.000 A 
ATOM     23  C   UNL     1       6.717   8.017  17.112  0.00  0.00    +0.000 A 
ATOM     24  C   UNL     1       6.112   6.776  17.374  0.00  0.00    +0.000 A 
BRANCH  24  25
ATOM     25  O   UNL     1       4.996   6.363  16.662  0.00  0.00    +0.000 OA
BRANCH  25  26
ATOM     26  C   UNL     1       5.262   6.072  15.272  0.00  0.00    +0.000 C 
BRANCH  26  27
ATOM     27  C   UNL     1       5.073   4.595  14.920  0.00  0.00    +0.000 C 
BRANCH  27  28
ATOM     28  C   UNL     1       6.346   3.945  14.377  0.00  0.00    +0.000 C 
BRANCH  28  29
ATOM     29  C   UNL     1       6.234   3.520  12.915  0.00  0.00    +0.000 C 
ATOM     30 CL   UNL     1       7.359   4.410  11.863  0.00  0.00    +0.000 Cl
ENDBRANCH  28  29
ENDBRANCH  27  28
ENDBRANCH  26  27
ENDBRANCH  25  26
ENDBRANCH  24  25
ENDBRANCH  18  19
ENDBRANCH  17  18
ENDBRANCH   6  17
TORSDOF 10
ENDMDL
MODEL 5
REMARK VINA RESULT:      -7.5      3.571      5.879
REMARK  Name = 
REMARK  10 active torsions:
REMARK  status: ('A' for Active; 'I' for Inactive)
REMARK    1  A    between atoms: C_2  and  C_10
REMARK    2  A    between atoms: N_3  and  C_4
REMARK    3  A    between atoms: C_15  and  O_16
REMARK    4  A    between atoms: O_16  and  C_17
REMARK    5  A    between atoms: C_17  and  C_18
REMARK    6  A    between atoms: C_23  and  O_24
REMARK    7  A    between atoms: O_24  and  C_25
REMARK    8  A    between atoms: C_25  and  C_26
REMARK    9  A    between atoms: C_26  and  C_27
REMARK   10  A    between atoms: C_27  and  C_28
REMARK                            x       y       z     vdW  Elec       q    Type
REMARK                         _______ _______ _______ _____ _____    ______ ____
ROOT
ATOM      1  C   UNL     1      -0.009   9.831  20.435  0.00  0.00    +0.000 A 
ATOM      2  C   UNL     1      -0.609  10.445  21.563  0.00  0.00    +0.000 A 
ATOM      3  C   UNL     1      -0.239  10.132  22.868  0.00  0.00    +0.000 A 
ATOM      4  C   UNL     1       0.768   9.215  23.077  0.00  0.00    +0.000 A 
ATOM      5  C   UNL     1       1.386   8.621  21.980  0.00  0.00    +0.000 A 
ATOM      6  C   UNL     1       0.998   8.871  20.656  0.00  0.00    +0.000 A 
ENDROOT
BRANCH   1   8
ATOM      7  O   UNL     1       0.128  11.004  18.416  0.00  0.00    +0.000 OA
ATOM      8  C   UNL     1      -0.586  10.290  19.121  0.00  0.00    +0.000 C 
ATOM      9  N   UNL     1      -1.865   9.895  18.780  0.00  0.00    +0.000 N 
ATOM     10  H   UNL     1      -2.329   9.262  19.422  0.00  0.00    +0.000 HD
BRANCH   9  11
ATOM     11  C   UNL     1      -2.584  10.320  17.628  0.00  0.00    +0.000 A 
ATOM     12  C   UNL     1      -3.689  11.174  17.650  0.00  0.00    +0.000 A 
ATOM     13  C   UNL     1      -4.365  11.491  16.468  0.00  0.00    +0.000 A 
ATOM     14  C   UNL     1      -3.911  10.945  15.284  0.00  0.00    +0.000 A 
ATOM     15  N   UNL     1      -2.836  10.129  15.206  0.00  0.00    +0.000 NA
ATOM     16  C   UNL     1      -2.204   9.843  16.376  0.00  0.00    +0.000 A 
ENDBRANCH   9  11
ENDBRANCH   1   8
BRANCH   6  17
ATOM     17  O   UNL     1       1.617   8.215  19.615  0.00  0.00    +0.000 OA
BRANCH  17  18
ATOM     18  C   UNL     1       2.557   7.165  19.995  0.00  0.00    +0.000 C 
BRANCH  18  19
ATOM     19  C   UNL     1       2.128   5.746  19.638  0.00  0.00    +0.000 A 
ATOM     20  C   UNL     1       1.246   5.093  20.523  0.00  0.00    +0.000 A 
ATOM     21  C   UNL     1       0.857   3.769  20.322  0.00  0.00    +0.000 A 
ATOM     22  C   UNL     1       1.366   3.055  19.247  0.00  0.00    +0.000 A 
ATOM     23  C   UNL     1       2.238   3.674  18.354  0.00  0.00    +0.000 A 
ATOM     24  C   UNL     1       2.589   5.027  18.504  0.00  0.00    +0.000 A 
BRANCH  24  25
ATOM     25  O   UNL     1       3.353   5.675  17.545  0.00  0.00    +0.000 OA
BRANCH  25  26
ATOM     26  C   UNL     1       4.620   5.034  17.275  0.00  0.00    +0.000 C 
BRANCH  26  27
ATOM     27  C   UNL     1       5.622   5.177  18.422  0.00  0.00    +0.000 C 
BRANCH  27  28
ATOM     28  C   UNL     1       7.062   5.351  17.936  0.00  0.00    +0.000 C 
BRANCH  28  29
ATOM     29  C   UNL     1       7.270   6.606  17.092  0.00  0.00    +0.000 C 
ATOM     30 CL   UNL     1       7.989   7.938  18.026  0.00  0.00    +0.000 Cl
ENDBRANCH  28  29
ENDBRANCH  27  28
ENDBRANCH  26  27
ENDBRANCH  25  26
ENDBRANCH  24  25
ENDBRANCH  18  19
ENDBRANCH  17  18
ENDBRANCH   6  17
TORSDOF 10
ENDMDL
MODEL 6
REMARK VINA RESULT:      -7.5      1.503      1.817
REMARK  Name = 
REMARK  10 active torsions:
REMARK  status: ('A' for Active; 'I' for Inactive)
REMARK    1  A    between atoms: C_2  and  C_10
REMARK    2  A    between atoms: N_3  and  C_4
REMARK    3  A    between atoms: C_15  and  O_16
REMARK    4  A    between atoms: O_16  and  C_17
REMARK    5  A    between atoms: C_17  and  C_18
REMARK    6  A    between atoms: C_23  and  O_24
REMARK    7  A    between atoms: O_24  and  C_25
REMARK    8  A    between atoms: C_25  and  C_26
REMARK    9  A    between atoms: C_26  and  C_27
REMARK   10  A    between atoms: C_27  and  C_28
REMARK                            x       y       z     vdW  Elec       q    Type
REMARK                         _______ _______ _______ _____ _____    ______ ____
ROOT
ATOM      1  C   UNL     1       2.616   4.442  19.941  0.00  0.00    +0.000 A 
ATOM      2  C   UNL     1       1.768   4.035  21.001  0.00  0.00    +0.000 A 
ATOM      3  C   UNL     1       1.985   2.865  21.722  0.00  0.00    +0.000 A 
ATOM      4  C   UNL     1       3.081   2.086  21.422  0.00  0.00    +0.000 A 
ATOM      5  C   UNL     1       3.940   2.485  20.401  0.00  0.00    +0.000 A 
ATOM      6  C   UNL     1       3.718   3.625  19.618  0.00  0.00    +0.000 A 
ENDROOT
BRANCH   1   8
ATOM      7  O   UNL     1       1.844   5.645  18.089  0.00  0.00    +0.000 OA
ATOM      8  C   UNL     1       2.176   5.719  19.273  0.00  0.00    +0.000 C 
ATOM      9  N   UNL     1       2.168   6.888  20.008  0.00  0.00    +0.000 N 
ATOM     10  H   UNL     1       2.411   6.807  20.990  0.00  0.00    +0.000 HD
BRANCH   9  11
ATOM     11  C   UNL     1       1.875   8.185  19.501  0.00  0.00    +0.000 A 
ATOM     12  C   UNL     1       1.052   9.119  20.134  0.00  0.00    +0.000 A 
ATOM     13  C   UNL     1       0.779  10.350  19.528  0.00  0.00    +0.000 A 
ATOM     14  C   UNL     1       1.346  10.618  18.299  0.00  0.00    +0.000 A 
ATOM     15  N   UNL     1       2.164   9.756  17.654  0.00  0.00    +0.000 NA
ATOM     16  C   UNL     1       2.407   8.569  18.273  0.00  0.00    +0.000 A 
ENDBRANCH   9  11
ENDBRANCH   1   8
BRANCH   6  17
ATOM     17  O   UNL     1       4.578   3.941  18.589  0.00  0.00    +0.000 OA
BRANCH  17  18
ATOM     18  C   UNL     1       5.967   4.176  18.973  0.00  0.00    +0.000 C 
BRANCH  18  19
ATOM     19  C   UNL     1       6.590   5.451  18.415  0.00  0.00    +0.000 A 
ATOM     20  C   UNL     1       7.705   5.980  19.097  0.00  0.00    +0.000 A 
ATOM     21  C   UNL     1       8.296   7.182  18.708  0.00  0.00    +0.000 A 
ATOM     22  C   UNL     1       7.766   7.901  17.646  0.00  0.00    +0.000 A 
ATOM     23  C   UNL     1       6.666   7.402  16.952  0.00  0.00    +0.000 A 
ATOM     24  C   UNL     1       6.099   6.160  17.288  0.00  0.00    +0.000 A 
BRANCH  24  25
ATOM     25  O   UNL     1       5.088   5.607  16.516  0.00  0.00    +0.000 OA
BRANCH  25  26
ATOM     26  C   UNL     1       5.405   5.523  15.109  0.00  0.00    +0.000 C 
BRANCH  26  27
ATOM     27  C   UNL     1       6.102   4.215  14.727  0.00  0.00    +0.000 C 
BRANCH  27  28
ATOM     28  C   UNL     1       5.678   3.694  13.354  0.00  0.00    +0.000 C 
BRANCH  28  29
ATOM     29  C   UNL     1       6.800   3.728  12.319  0.00  0.00    +0.000 C 
ATOM     30 CL   UNL     1       6.911   2.215  11.391  0.00  0.00    +0.000 Cl
ENDBRANCH  28  29
ENDBRANCH  27  28
ENDBRANCH  26  27
ENDBRANCH  25  26
ENDBRANCH  24  25
ENDBRANCH  18  19
ENDBRANCH  17  18
ENDBRANCH   6  17
TORSDOF 10
ENDMDL
MODEL 7
REMARK VINA RESULT:      -7.5      3.786      8.132
REMARK  Name = 
REMARK  10 active torsions:
REMARK  status: ('A' for Active; 'I' for Inactive)
REMARK    1  A    between atoms: C_2  and  C_10
REMARK    2  A    between atoms: N_3  and  C_4
REMARK    3  A    between atoms: C_15  and  O_16
REMARK    4  A    between atoms: O_16  and  C_17
REMARK    5  A    between atoms: C_17  and  C_18
REMARK    6  A    between atoms: C_23  and  O_24
REMARK    7  A    between atoms: O_24  and  C_25
REMARK    8  A    between atoms: C_25  and  C_26
REMARK    9  A    between atoms: C_26  and  C_27
REMARK   10  A    between atoms: C_27  and  C_28
REMARK                            x       y       z     vdW  Elec       q    Type
REMARK                         _______ _______ _______ _____ _____    ______ ____
ROOT
ATOM      1  C   UNL     1       3.466   3.804  19.560  0.00  0.00    +0.000 A 
ATOM      2  C   UNL     1       3.365   2.489  20.081  0.00  0.00    +0.000 A 
ATOM      3  C   UNL     1       2.389   2.126  21.004  0.00  0.00    +0.000 A 
ATOM      4  C   UNL     1       1.464   3.065  21.406  0.00  0.00    +0.000 A 
ATOM      5  C   UNL     1       1.532   4.354  20.884  0.00  0.00    +0.000 A 
ATOM      6  C   UNL     1       2.536   4.767  19.998  0.00  0.00    +0.000 A 
ENDROOT
BRANCH   1   8
ATOM      7  O   UNL     1       5.752   3.919  19.077  0.00  0.00    +0.000 OA
ATOM      8  C   UNL     1       4.616   3.987  18.605  0.00  0.00    +0.000 C 
ATOM      9  N   UNL     1       4.345   4.220  17.270  0.00  0.00    +0.000 N 
ATOM     10  H   UNL     1       3.368   4.199  16.997  0.00  0.00    +0.000 HD
BRANCH   9  11
ATOM     11  C   UNL     1       5.310   4.509  16.266  0.00  0.00    +0.000 A 
ATOM     12  C   UNL     1       5.343   3.919  15.001  0.00  0.00    +0.000 A 
ATOM     13  C   UNL     1       6.367   4.228  14.099  0.00  0.00    +0.000 A 
ATOM     14  C   UNL     1       7.334   5.132  14.488  0.00  0.00    +0.000 A 
ATOM     15  N   UNL     1       7.337   5.745  15.693  0.00  0.00    +0.000 NA
ATOM     16  C   UNL     1       6.327   5.419  16.544  0.00  0.00    +0.000 A 
ENDBRANCH   9  11
ENDBRANCH   1   8
BRANCH   6  17
ATOM     17  O   UNL     1       2.578   6.071  19.554  0.00  0.00    +0.000 OA
BRANCH  17  18
ATOM     18  C   UNL     1       1.896   7.050  20.394  0.00  0.00    +0.000 C 
BRANCH  18  19
ATOM     19  C   UNL     1       1.594   8.386  19.724  0.00  0.00    +0.000 A 
ATOM     20  C   UNL     1       2.099   8.587  18.423  0.00  0.00    +0.000 A 
ATOM     21  C   UNL     1       1.941   9.803  17.758  0.00  0.00    +0.000 A 
ATOM     22  C   UNL     1       1.300  10.858  18.390  0.00  0.00    +0.000 A 
ATOM     23  C   UNL     1       0.787  10.688  19.674  0.00  0.00    +0.000 A 
ATOM     24  C   UNL     1       0.880   9.450  20.334  0.00  0.00    +0.000 A 
BRANCH  24  25
ATOM     25  O   UNL     1       0.259   9.246  21.556  0.00  0.00    +0.000 OA
BRANCH  25  26
ATOM     26  C   UNL     1       0.148  10.440  22.363  0.00  0.00    +0.000 C 
BRANCH  26  27
ATOM     27  C   UNL     1      -1.143  10.494  23.183  0.00  0.00    +0.000 C 
BRANCH  27  28
ATOM     28  C   UNL     1      -1.903  11.810  23.010  0.00  0.00    +0.000 C 
BRANCH  28  29
ATOM     29  C   UNL     1      -1.998  12.270  21.558  0.00  0.00    +0.000 C 
ATOM     30 CL   UNL     1      -3.646  12.768  21.113  0.00  0.00    +0.000 Cl
ENDBRANCH  28  29
ENDBRANCH  27  28
ENDBRANCH  26  27
ENDBRANCH  25  26
ENDBRANCH  24  25
ENDBRANCH  18  19
ENDBRANCH  17  18
ENDBRANCH   6  17
TORSDOF 10
ENDMDL
MODEL 8
REMARK VINA RESULT:      -7.5      3.958      8.013
REMARK  Name = 
REMARK  10 active torsions:
REMARK  status: ('A' for Active; 'I' for Inactive)
REMARK    1  A    between atoms: C_2  and  C_10
REMARK    2  A    between atoms: N_3  and  C_4
REMARK    3  A    between atoms: C_15  and  O_16
REMARK    4  A    between atoms: O_16  and  C_17
REMARK    5  A    between atoms: C_17  and  C_18
REMARK    6  A    between atoms: C_23  and  O_24
REMARK    7  A    between atoms: O_24  and  C_25
REMARK    8  A    between atoms: C_25  and  C_26
REMARK    9  A    between atoms: C_26  and  C_27
REMARK   10  A    between atoms: C_27  and  C_28
REMARK                            x       y       z     vdW  Elec       q    Type
REMARK                         _______ _______ _______ _____ _____    ______ ____
ROOT
ATOM      1  C   UNL     1       3.316   3.570  19.826  0.00  0.00    +0.000 A 
ATOM      2  C   UNL     1       3.445   2.419  20.642  0.00  0.00    +0.000 A 
ATOM      3  C   UNL     1       2.478   2.053  21.574  0.00  0.00    +0.000 A 
ATOM      4  C   UNL     1       1.337   2.816  21.690  0.00  0.00    +0.000 A 
ATOM      5  C   UNL     1       1.182   3.936  20.878  0.00  0.00    +0.000 A 
ATOM      6  C   UNL     1       2.161   4.364  19.971  0.00  0.00    +0.000 A 
ENDROOT
BRANCH   1   8
ATOM      7  O   UNL     1       5.615   3.703  19.415  0.00  0.00    +0.000 OA
ATOM      8  C   UNL     1       4.494   3.799  18.914  0.00  0.00    +0.000 C 
ATOM      9  N   UNL     1       4.261   4.102  17.587  0.00  0.00    +0.000 N 
ATOM     10  H   UNL     1       3.292   4.098  17.285  0.00  0.00    +0.000 HD
BRANCH   9  11
ATOM     11  C   UNL     1       5.255   4.439  16.626  0.00  0.00    +0.000 A 
ATOM     12  C   UNL     1       5.925   5.663  16.571  0.00  0.00    +0.000 A 
ATOM     13  C   UNL     1       6.849   5.922  15.554  0.00  0.00    +0.000 A 
ATOM     14  C   UNL     1       7.083   4.939  14.613  0.00  0.00    +0.000 A 
ATOM     15  N   UNL     1       6.475   3.732  14.633  0.00  0.00    +0.000 NA
ATOM     16  C   UNL     1       5.583   3.516  15.637  0.00  0.00    +0.000 A 
ENDBRANCH   9  11
ENDBRANCH   1   8
BRANCH   6  17
ATOM     17  O   UNL     1       1.969   5.509  19.230  0.00  0.00    +0.000 OA
BRANCH  17  18
ATOM     18  C   UNL     1       2.651   6.704  19.718  0.00  0.00    +0.000 C 
BRANCH  18  19
ATOM     19  C   UNL     1       2.010   8.028  19.321  0.00  0.00    +0.000 A 
ATOM     20  C   UNL     1       2.259   8.504  18.017  0.00  0.00    +0.000 A 
ATOM     21  C   UNL     1       1.778   9.742  17.587  0.00  0.00    +0.000 A 
ATOM     22  C   UNL     1       1.064  10.547  18.462  0.00  0.00    +0.000 A 
ATOM     23  C   UNL     1       0.800  10.102  19.755  0.00  0.00    +0.000 A 
ATOM     24  C   UNL     1       1.220   8.831  20.184  0.00  0.00    +0.000 A 
BRANCH  24  25
ATOM     25  O   UNL     1       0.846   8.340  21.426  0.00  0.00    +0.000 OA
BRANCH  25  26
ATOM     26  C   UNL     1      -0.465   8.769  21.856  0.00  0.00    +0.000 C 
BRANCH  26  27
ATOM     27  C   UNL     1      -0.424   9.714  23.059  0.00  0.00    +0.000 C 
BRANCH  27  28
ATOM     28  C   UNL     1      -0.782  11.155  22.696  0.00  0.00    +0.000 C 
BRANCH  28  29
ATOM     29  C   UNL     1      -2.094  11.629  23.316  0.00  0.00    +0.000 C 
ATOM     30 CL   UNL     1      -2.541  13.267  22.785  0.00  0.00    +0.000 Cl
ENDBRANCH  28  29
ENDBRANCH  27  28
ENDBRANCH  26  27
ENDBRANCH  25  26
ENDBRANCH  24  25
ENDBRANCH  18  19
ENDBRANCH  17  18
ENDBRANCH   6  17
TORSDOF 10
ENDMDL
MODEL 9
REMARK VINA RESULT:      -7.4      3.379      6.708
REMARK  Name = 
REMARK  10 active torsions:
REMARK  status: ('A' for Active; 'I' for Inactive)
REMARK    1  A    between atoms: C_2  and  C_10
REMARK    2  A    between atoms: N_3  and  C_4
REMARK    3  A    between atoms: C_15  and  O_16
REMARK    4  A    between atoms: O_16  and  C_17
REMARK    5  A    between atoms: C_17  and  C_18
REMARK    6  A    between atoms: C_23  and  O_24
REMARK    7  A    between atoms: O_24  and  C_25
REMARK    8  A    between atoms: C_25  and  C_26
REMARK    9  A    between atoms: C_26  and  C_27
REMARK   10  A    between atoms: C_27  and  C_28
REMARK                            x       y       z     vdW  Elec       q    Type
REMARK                         _______ _______ _______ _____ _____    ______ ____
ROOT
ATOM      1  C   UNL     1       6.694   6.393  17.338  0.00  0.00    +0.000 A 
ATOM      2  C   UNL     1       7.332   5.215  16.876  0.00  0.00    +0.000 A 
ATOM      3  C   UNL     1       6.621   4.134  16.363  0.00  0.00    +0.000 A 
ATOM      4  C   UNL     1       5.249   4.219  16.269  0.00  0.00    +0.000 A 
ATOM      5  C   UNL     1       4.608   5.379  16.694  0.00  0.00    +0.000 A 
ATOM      6  C   UNL     1       5.289   6.462  17.268  0.00  0.00    +0.000 A 
ENDROOT
BRANCH   1   8
ATOM      7  O   UNL     1       8.476   7.032  18.714  0.00  0.00    +0.000 OA
ATOM      8  C   UNL     1       7.650   7.421  17.887  0.00  0.00    +0.000 C 
ATOM      9  N   UNL     1       7.554   8.725  17.443  0.00  0.00    +0.000 N 
ATOM     10  H   UNL     1       6.867   8.907  16.718  0.00  0.00    +0.000 HD
BRANCH   9  11
ATOM     11  C   UNL     1       8.311   9.826  17.931  0.00  0.00    +0.000 A 
ATOM     12  C   UNL     1       9.284   9.742  18.930  0.00  0.00    +0.000 A 
ATOM     13  C   UNL     1       9.938  10.892  19.383  0.00  0.00    +0.000 A 
ATOM     14  C   UNL     1       9.604  12.105  18.815  0.00  0.00    +0.000 A 
ATOM     15  N   UNL     1       8.684  12.238  17.833  0.00  0.00    +0.000 NA
ATOM     16  C   UNL     1       8.068  11.098  17.419  0.00  0.00    +0.000 A 
ENDBRANCH   9  11
ENDBRANCH   1   8
BRANCH   6  17
ATOM     17  O   UNL     1       4.593   7.564  17.714  0.00  0.00    +0.000 OA
BRANCH  17  18
ATOM     18  C   UNL     1       3.150   7.535  17.494  0.00  0.00    +0.000 C 
BRANCH  18  19
ATOM     19  C   UNL     1       2.301   7.981  18.679  0.00  0.00    +0.000 A 
ATOM     20  C   UNL     1       1.674   9.241  18.590  0.00  0.00    +0.000 A 
ATOM     21  C   UNL     1       0.940   9.768  19.653  0.00  0.00    +0.000 A 
ATOM     22  C   UNL     1       0.843   9.062  20.843  0.00  0.00    +0.000 A 
ATOM     23  C   UNL     1       1.449   7.813  20.960  0.00  0.00    +0.000 A 
ATOM     24  C   UNL     1       2.137   7.237  19.877  0.00  0.00    +0.000 A 
BRANCH  24  25
ATOM     25  O   UNL     1       2.629   5.944  19.954  0.00  0.00    +0.000 OA
BRANCH  25  26
ATOM     26  C   UNL     1       1.896   5.090  20.861  0.00  0.00    +0.000 C 
BRANCH  26  27
ATOM     27  C   UNL     1       0.934   4.140  20.147  0.00  0.00    +0.000 C 
BRANCH  27  28
ATOM     28  C   UNL     1       1.614   3.313  19.055  0.00  0.00    +0.000 C 
BRANCH  28  29
ATOM     29  C   UNL     1       3.070   2.976  19.368  0.00  0.00    +0.000 C 
ATOM     30 CL   UNL     1       3.657   1.580  18.435  0.00  0.00    +0.000 Cl
ENDBRANCH  28  29
ENDBRANCH  27  28
ENDBRANCH  26  27
ENDBRANCH  25  26
ENDBRANCH  24  25
ENDBRANCH  18  19
ENDBRANCH  17  18
ENDBRANCH   6  17
TORSDOF 10
ENDMDL
