MODEL 1
REMARK VINA RESULT:      -9.0      0.000      0.000
REMARK  Name = 
REMARK  7 active torsions:
REMARK  status: ('A' for Active; 'I' for Inactive)
REMARK    1  A    between atoms: C_1  and  N_2
REMARK    2  A    between atoms: N_5  and  C_6
REMARK    3  A    between atoms: C_9  and  C_10
REMARK    4  A    between atoms: N_15  and  C_16
REMARK    5  A    between atoms: C_20  and  N_21
REMARK    6  A    between atoms: N_21  and  C_22
REMARK    7  A    between atoms: C_22  and  C_23
REMARK                            x       y       z     vdW  Elec       q    Type
REMARK                         _______ _______ _______ _____ _____    ______ ____
ROOT
ATOM      1  C   UNL     1       1.966   7.190  19.782  0.00  0.00    +0.000 A 
ATOM      2  C   UNL     1       1.806   5.984  20.453  0.00  0.00    +0.000 A 
ATOM      3  C   UNL     1       2.372   4.833  19.929  0.00  0.00    +0.000 A 
ATOM      4  N   UNL     1       2.193   3.632  20.629  0.00  0.00    +0.000 NA
ATOM      5  C   UNL     1       2.721   2.565  20.134  0.00  0.00    +0.000 A 
ATOM      6  N   UNL     1       3.436   2.522  18.966  0.00  0.00    +0.000 N 
ATOM      7  C   UNL     1       3.952   1.259  18.477  0.00  0.00    +0.000 C 
ATOM      8  C   UNL     1       3.621   3.658  18.186  0.00  0.00    +0.000 A 
ATOM      9  O   UNL     1       4.146   3.644  17.072  0.00  0.00    +0.000 OA
ATOM     10  C   UNL     1       3.095   4.919  18.745  0.00  0.00    +0.000 A 
ATOM     11  C   UNL     1       3.249   6.158  18.109  0.00  0.00    +0.000 A 
ATOM     12  N   UNL     1       2.667   7.272  18.616  0.00  0.00    +0.000 NA
ENDROOT
BRANCH   1  16
ATOM     13  C   UNL     1       0.319  10.909  21.334  0.00  0.00    +0.000 A 
ATOM     14  C   UNL     1       0.588  10.738  19.973  0.00  0.00    +0.000 A 
ATOM     15  C   UNL     1       1.101   9.534  19.468  0.00  0.00    +0.000 A 
ATOM     16  C   UNL     1       1.381   8.441  20.306  0.00  0.00    +0.000 A 
ATOM     17  C   UNL     1       1.103   8.605  21.668  0.00  0.00    +0.000 A 
ATOM     18  C   UNL     1       0.593   9.815  22.165  0.00  0.00    +0.000 A 
BRANCH  13  23
ATOM     19  C   UNL     1      -2.927  15.338  22.161  0.00  0.00    +0.000 C 
ATOM     20  N   UNL     1      -1.828  14.419  22.441  0.00  0.00    +0.000 NA
ATOM     21  C   UNL     1      -0.876  14.383  21.306  0.00  0.00    +0.000 C 
ATOM     22  C   UNL     1       0.293  13.395  21.537  0.00  0.00    +0.000 C 
ATOM     23  N   UNL     1      -0.247  12.061  21.834  0.00  0.00    +0.000 N 
ATOM     24  C   UNL     1      -1.202  12.037  22.952  0.00  0.00    +0.000 C 
ATOM     25  C   UNL     1      -2.340  13.050  22.684  0.00  0.00    +0.000 C 
ENDBRANCH  13  23
ENDBRANCH   1  16
BRANCH  11  26
ATOM     26  N   UNL     1       4.121   6.300  17.023  0.00  0.00    +0.000 N 
ATOM     27  H   UNL     1       3.649   6.679  16.203  0.00  0.00    +0.000 HD
BRANCH  26  28
ATOM     28  C   UNL     1       5.427   6.885  17.269  0.00  0.00    +0.000 C 
BRANCH  28  29
ATOM     29  C   UNL     1       6.515   5.920  17.564  0.00  0.00    +0.000 A 
ATOM     30  C   UNL     1       7.133   5.551  18.738  0.00  0.00    +0.000 A 
ATOM     31  N   UNL     1       8.052   4.573  18.488  0.00  0.00    +0.000 NA
ATOM     32  N   UNL     1       8.033   4.316  17.187  0.00  0.00    +0.000 NA
ATOM     33  N   UNL     1       7.117   5.124  16.629  0.00  0.00    +0.000 N 
ATOM     34  H   UNL     1       6.968   5.076  15.625  0.00  0.00    +0.000 HD
ENDBRANCH  28  29
ENDBRANCH  26  28
ENDBRANCH  11  26
TORSDOF 5
ENDMDL
MODEL 2
REMARK VINA RESULT:      -9.0      1.746      4.012
REMARK  Name = 
REMARK  7 active torsions:
REMARK  status: ('A' for Active; 'I' for Inactive)
REMARK    1  A    between atoms: C_1  and  N_2
REMARK    2  A    between atoms: N_5  and  C_6
REMARK    3  A    between atoms: C_9  and  C_10
REMARK    4  A    between atoms: N_15  and  C_16
REMARK    5  A    between atoms: C_20  and  N_21
REMARK    6  A    between atoms: N_21  and  C_22
REMARK    7  A    between atoms: C_22  and  C_23
REMARK                            x       y       z     vdW  Elec       q    Type
REMARK                         _______ _______ _______ _____ _____    ______ ____
ROOT
ATOM      1  C   UNL     1       2.514   7.349  18.468  0.00  0.00    +0.000 A 
ATOM      2  C   UNL     1       3.696   7.691  17.823  0.00  0.00    +0.000 A 
ATOM      3  C   UNL     1       4.444   6.705  17.201  0.00  0.00    +0.000 A 
ATOM      4  N   UNL     1       5.632   7.082  16.560  0.00  0.00    +0.000 NA
ATOM      5  C   UNL     1       6.323   6.158  15.986  0.00  0.00    +0.000 A 
ATOM      6  N   UNL     1       5.983   4.831  15.967  0.00  0.00    +0.000 N 
ATOM      7  C   UNL     1       6.855   3.867  15.327  0.00  0.00    +0.000 C 
ATOM      8  C   UNL     1       4.847   4.364  16.619  0.00  0.00    +0.000 A 
ATOM      9  O   UNL     1       4.569   3.170  16.736  0.00  0.00    +0.000 OA
ATOM     10  C   UNL     1       3.984   5.393  17.233  0.00  0.00    +0.000 A 
ATOM     11  C   UNL     1       2.777   5.092  17.877  0.00  0.00    +0.000 A 
ATOM     12  N   UNL     1       2.068   6.061  18.506  0.00  0.00    +0.000 NA
ENDROOT
BRANCH   1  16
ATOM     13  C   UNL     1       0.004  10.307  20.440  0.00  0.00    +0.000 A 
ATOM     14  C   UNL     1       0.569   9.239  21.143  0.00  0.00    +0.000 A 
ATOM     15  C   UNL     1       1.393   8.295  20.514  0.00  0.00    +0.000 A 
ATOM     16  C   UNL     1       1.685   8.368  19.141  0.00  0.00    +0.000 A 
ATOM     17  C   UNL     1       1.130   9.443  18.436  0.00  0.00    +0.000 A 
ATOM     18  C   UNL     1       0.303  10.381  19.074  0.00  0.00    +0.000 A 
BRANCH  13  23
ATOM     19  C   UNL     1      -4.128  13.123  22.857  0.00  0.00    +0.000 C 
ATOM     20  N   UNL     1      -2.774  12.912  22.353  0.00  0.00    +0.000 NA
ATOM     21  C   UNL     1      -2.798  12.641  20.896  0.00  0.00    +0.000 C 
ATOM     22  C   UNL     1      -1.388  12.374  20.315  0.00  0.00    +0.000 C 
ATOM     23  N   UNL     1      -0.752  11.278  21.059  0.00  0.00    +0.000 N 
ATOM     24  C   UNL     1      -0.704  11.492  22.514  0.00  0.00    +0.000 C 
ATOM     25  C   UNL     1      -2.130  11.770  23.045  0.00  0.00    +0.000 C 
ENDBRANCH  13  23
ENDBRANCH   1  16
BRANCH  11  26
ATOM     26  N   UNL     1       2.205   3.819  17.763  0.00  0.00    +0.000 N 
ATOM     27  H   UNL     1       2.911   3.097  17.616  0.00  0.00    +0.000 HD
BRANCH  26  28
ATOM     28  C   UNL     1       1.175   3.445  18.715  0.00  0.00    +0.000 C 
BRANCH  28  29
ATOM     29  C   UNL     1       1.663   3.027  20.054  0.00  0.00    +0.000 A 
ATOM     30  C   UNL     1       2.921   2.741  20.534  0.00  0.00    +0.000 A 
ATOM     31  N   UNL     1       2.851   2.451  21.866  0.00  0.00    +0.000 NA
ATOM     32  N   UNL     1       1.583   2.544  22.240  0.00  0.00    +0.000 NA
ATOM     33  N   UNL     1       0.866   2.885  21.157  0.00  0.00    +0.000 N 
ATOM     34  H   UNL     1      -0.140   2.993  21.248  0.00  0.00    +0.000 HD
ENDBRANCH  28  29
ENDBRANCH  26  28
ENDBRANCH  11  26
TORSDOF 5
ENDMDL
MODEL 3
REMARK VINA RESULT:      -8.9      0.648      1.369
REMARK  Name = 
REMARK  7 active torsions:
REMARK  status: ('A' for Active; 'I' for Inactive)
REMARK    1  A    between atoms: C_1  and  N_2
REMARK    2  A    between atoms: N_5  and  C_6
REMARK    3  A    between atoms: C_9  and  C_10
REMARK    4  A    between atoms: N_15  and  C_16
REMARK    5  A    between atoms: C_20  and  N_21
REMARK    6  A    between atoms: N_21  and  C_22
REMARK    7  A    between atoms: C_22  and  C_23
REMARK                            x       y       z     vdW  Elec       q    Type
REMARK                         _______ _______ _______ _____ _____    ______ ____
ROOT
ATOM      1  C   UNL     1       1.999   7.235  19.738  0.00  0.00    +0.000 A 
ATOM      2  C   UNL     1       1.826   6.051  20.445  0.00  0.00    +0.000 A 
ATOM      3  C   UNL     1       2.391   4.882  19.964  0.00  0.00    +0.000 A 
ATOM      4  N   UNL     1       2.199   3.704  20.699  0.00  0.00    +0.000 NA
ATOM      5  C   UNL     1       2.725   2.620  20.243  0.00  0.00    +0.000 A 
ATOM      6  N   UNL     1       3.452   2.536  19.085  0.00  0.00    +0.000 N 
ATOM      7  C   UNL     1       3.966   1.255  18.642  0.00  0.00    +0.000 C 
ATOM      8  C   UNL     1       3.651   3.645  18.272  0.00  0.00    +0.000 A 
ATOM      9  O   UNL     1       4.187   3.593  17.164  0.00  0.00    +0.000 OA
ATOM     10  C   UNL     1       3.126   4.927  18.785  0.00  0.00    +0.000 A 
ATOM     11  C   UNL     1       3.293   6.144  18.112  0.00  0.00    +0.000 A 
ATOM     12  N   UNL     1       2.712   7.277  18.578  0.00  0.00    +0.000 NA
ENDROOT
BRANCH   1  16
ATOM     13  C   UNL     1       0.206  10.945  21.140  0.00  0.00    +0.000 A 
ATOM     14  C   UNL     1       0.499   9.896  22.016  0.00  0.00    +0.000 A 
ATOM     15  C   UNL     1       1.094   8.707  21.570  0.00  0.00    +0.000 A 
ATOM     16  C   UNL     1       1.417   8.505  20.217  0.00  0.00    +0.000 A 
ATOM     17  C   UNL     1       1.135   9.558  19.339  0.00  0.00    +0.000 A 
ATOM     18  C   UNL     1       0.536  10.743  19.794  0.00  0.00    +0.000 A 
BRANCH  13  23
ATOM     19  C   UNL     1      -0.845  15.584  24.009  0.00  0.00    +0.000 C 
ATOM     20  N   UNL     1      -1.010  14.619  22.925  0.00  0.00    +0.000 NA
ATOM     21  C   UNL     1      -1.404  13.295  23.462  0.00  0.00    +0.000 C 
ATOM     22  C   UNL     1      -1.559  12.223  22.356  0.00  0.00    +0.000 C 
ATOM     23  N   UNL     1      -0.316  12.143  21.576  0.00  0.00    +0.000 N 
ATOM     24  C   UNL     1       0.126  13.432  21.020  0.00  0.00    +0.000 C 
ATOM     25  C   UNL     1       0.249  14.473  22.158  0.00  0.00    +0.000 C 
ENDBRANCH  13  23
ENDBRANCH   1  16
BRANCH  11  26
ATOM     26  N   UNL     1       4.178   6.247  17.031  0.00  0.00    +0.000 N 
ATOM     27  H   UNL     1       3.712   6.586  16.189  0.00  0.00    +0.000 HD
BRANCH  26  28
ATOM     28  C   UNL     1       5.475   6.855  17.266  0.00  0.00    +0.000 C 
BRANCH  28  29
ATOM     29  C   UNL     1       6.570   5.913  17.608  0.00  0.00    +0.000 A 
ATOM     30  C   UNL     1       7.227   5.645  18.788  0.00  0.00    +0.000 A 
ATOM     31  N   UNL     1       8.135   4.643  18.593  0.00  0.00    +0.000 NA
ATOM     32  N   UNL     1       8.070   4.274  17.322  0.00  0.00    +0.000 NA
ATOM     33  N   UNL     1       7.137   5.034  16.726  0.00  0.00    +0.000 N 
ATOM     34  H   UNL     1       6.953   4.899  15.737  0.00  0.00    +0.000 HD
ENDBRANCH  28  29
ENDBRANCH  26  28
ENDBRANCH  11  26
TORSDOF 5
ENDMDL
MODEL 4
REMARK VINA RESULT:      -8.8      0.792      1.269
REMARK  Name = 
REMARK  7 active torsions:
REMARK  status: ('A' for Active; 'I' for Inactive)
REMARK    1  A    between atoms: C_1  and  N_2
REMARK    2  A    between atoms: N_5  and  C_6
REMARK    3  A    between atoms: C_9  and  C_10
REMARK    4  A    between atoms: N_15  and  C_16
REMARK    5  A    between atoms: C_20  and  N_21
REMARK    6  A    between atoms: N_21  and  C_22
REMARK    7  A    between atoms: C_22  and  C_23
REMARK                            x       y       z     vdW  Elec       q    Type
REMARK                         _______ _______ _______ _____ _____    ______ ____
ROOT
ATOM      1  C   UNL     1       1.996   7.161  19.720  0.00  0.00    +0.000 A 
ATOM      2  C   UNL     1       1.819   6.001  20.465  0.00  0.00    +0.000 A 
ATOM      3  C   UNL     1       2.366   4.811  20.013  0.00  0.00    +0.000 A 
ATOM      4  N   UNL     1       2.171   3.659  20.787  0.00  0.00    +0.000 NA
ATOM      5  C   UNL     1       2.680   2.555  20.358  0.00  0.00    +0.000 A 
ATOM      6  N   UNL     1       3.391   2.427  19.194  0.00  0.00    +0.000 N 
ATOM      7  C   UNL     1       3.885   1.128  18.784  0.00  0.00    +0.000 C 
ATOM      8  C   UNL     1       3.591   3.509  18.344  0.00  0.00    +0.000 A 
ATOM      9  O   UNL     1       4.111   3.418  17.232  0.00  0.00    +0.000 OA
ATOM     10  C   UNL     1       3.086   4.811  18.824  0.00  0.00    +0.000 A 
ATOM     11  C   UNL     1       3.257   6.006  18.112  0.00  0.00    +0.000 A 
ATOM     12  N   UNL     1       2.694   7.159  18.550  0.00  0.00    +0.000 NA
ENDROOT
BRANCH   1  16
ATOM     13  C   UNL     1       0.413  10.992  21.047  0.00  0.00    +0.000 A 
ATOM     14  C   UNL     1       0.757  10.764  19.711  0.00  0.00    +0.000 A 
ATOM     15  C   UNL     1       1.249   9.524  19.278  0.00  0.00    +0.000 A 
ATOM     16  C   UNL     1       1.433   8.451  20.167  0.00  0.00    +0.000 A 
ATOM     17  C   UNL     1       1.080   8.672  21.502  0.00  0.00    +0.000 A 
ATOM     18  C   UNL     1       0.591   9.918  21.928  0.00  0.00    +0.000 A 
BRANCH  13  23
ATOM     19  C   UNL     1      -0.790  15.588  23.923  0.00  0.00    +0.000 C 
ATOM     20  N   UNL     1      -0.901  14.637  22.820  0.00  0.00    +0.000 NA
ATOM     21  C   UNL     1      -1.313  13.305  23.321  0.00  0.00    +0.000 C 
ATOM     22  C   UNL     1      -1.412  12.247  22.195  0.00  0.00    +0.000 C 
ATOM     23  N   UNL     1      -0.134  12.182  21.473  0.00  0.00    +0.000 N 
ATOM     24  C   UNL     1       0.328  13.480  20.955  0.00  0.00    +0.000 C 
ATOM     25  C   UNL     1       0.394  14.506  22.110  0.00  0.00    +0.000 C 
ENDBRANCH  13  23
ENDBRANCH   1  16
BRANCH  11  26
ATOM     26  N   UNL     1       4.128   6.066  17.017  0.00  0.00    +0.000 N 
ATOM     27  H   UNL     1       3.651   6.369  16.168  0.00  0.00    +0.000 HD
BRANCH  26  28
ATOM     28  C   UNL     1       5.426   6.685  17.211  0.00  0.00    +0.000 C 
BRANCH  28  29
ATOM     29  C   UNL     1       6.519   5.766  17.617  0.00  0.00    +0.000 A 
ATOM     30  C   UNL     1       7.234   4.814  16.925  0.00  0.00    +0.000 A 
ATOM     31  N   UNL     1       8.181   4.265  17.741  0.00  0.00    +0.000 NA
ATOM     32  N   UNL     1       8.083   4.843  18.930  0.00  0.00    +0.000 NA
ATOM     33  N   UNL     1       7.086   5.740  18.862  0.00  0.00    +0.000 N 
ATOM     34  H   UNL     1       6.854   6.280  19.691  0.00  0.00    +0.000 HD
ENDBRANCH  28  29
ENDBRANCH  26  28
ENDBRANCH  11  26
TORSDOF 5
ENDMDL
MODEL 5
REMARK VINA RESULT:      -8.7      1.623      3.942
REMARK  Name = 
REMARK  7 active torsions:
REMARK  status: ('A' for Active; 'I' for Inactive)
REMARK    1  A    between atoms: C_1  and  N_2
REMARK    2  A    between atoms: N_5  and  C_6
REMARK    3  A    between atoms: C_9  and  C_10
REMARK    4  A    between atoms: N_15  and  C_16
REMARK    5  A    between atoms: C_20  and  N_21
REMARK    6  A    between atoms: N_21  and  C_22
REMARK    7  A    between atoms: C_22  and  C_23
REMARK                            x       y       z     vdW  Elec       q    Type
REMARK                         _______ _______ _______ _____ _____    ______ ____
ROOT
ATOM      1  C   UNL     1       2.489   7.412  18.435  0.00  0.00    +0.000 A 
ATOM      2  C   UNL     1       3.670   7.763  17.792  0.00  0.00    +0.000 A 
ATOM      3  C   UNL     1       4.442   6.777  17.199  0.00  0.00    +0.000 A 
ATOM      4  N   UNL     1       5.627   7.163  16.559  0.00  0.00    +0.000 NA
ATOM      5  C   UNL     1       6.342   6.240  16.012  0.00  0.00    +0.000 A 
ATOM      6  N   UNL     1       6.028   4.906  16.022  0.00  0.00    +0.000 N 
ATOM      7  C   UNL     1       6.924   3.945  15.411  0.00  0.00    +0.000 C 
ATOM      8  C   UNL     1       4.895   4.432  16.674  0.00  0.00    +0.000 A 
ATOM      9  O   UNL     1       4.640   3.236  16.818  0.00  0.00    +0.000 OA
ATOM     10  C   UNL     1       4.008   5.458  17.258  0.00  0.00    +0.000 A 
ATOM     11  C   UNL     1       2.801   5.148  17.899  0.00  0.00    +0.000 A 
ATOM     12  N   UNL     1       2.068   6.117  18.499  0.00  0.00    +0.000 NA
ENDROOT
BRANCH   1  16
ATOM     13  C   UNL     1       0.037  10.462  20.341  0.00  0.00    +0.000 A 
ATOM     14  C   UNL     1       0.332  10.506  18.975  0.00  0.00    +0.000 A 
ATOM     15  C   UNL     1       1.106   9.514  18.355  0.00  0.00    +0.000 A 
ATOM     16  C   UNL     1       1.635   8.431  19.077  0.00  0.00    +0.000 A 
ATOM     17  C   UNL     1       1.333   8.377  20.442  0.00  0.00    +0.000 A 
ATOM     18  C   UNL     1       0.560   9.376  21.056  0.00  0.00    +0.000 A 
BRANCH  13  23
ATOM     19  C   UNL     1      -1.973  15.083  22.675  0.00  0.00    +0.000 C 
ATOM     20  N   UNL     1      -2.017  13.708  22.185  0.00  0.00    +0.000 NA
ATOM     21  C   UNL     1      -1.031  12.868  22.905  0.00  0.00    +0.000 C 
ATOM     22  C   UNL     1      -1.010  11.404  22.399  0.00  0.00    +0.000 C 
ATOM     23  N   UNL     1      -0.777  11.392  20.949  0.00  0.00    +0.000 N 
ATOM     24  C   UNL     1      -1.726  12.215  20.182  0.00  0.00    +0.000 C 
ATOM     25  C   UNL     1      -1.723  13.660  20.733  0.00  0.00    +0.000 C 
ENDBRANCH  13  23
ENDBRANCH   1  16
BRANCH  11  26
ATOM     26  N   UNL     1       2.256   3.862  17.810  0.00  0.00    +0.000 N 
ATOM     27  H   UNL     1       2.977   3.148  17.707  0.00  0.00    +0.000 HD
BRANCH  26  28
ATOM     28  C   UNL     1       1.205   3.500  18.744  0.00  0.00    +0.000 C 
BRANCH  28  29
ATOM     29  C   UNL     1       1.666   3.053  20.083  0.00  0.00    +0.000 A 
ATOM     30  C   UNL     1       2.915   2.759  20.582  0.00  0.00    +0.000 A 
ATOM     31  N   UNL     1       2.818   2.438  21.906  0.00  0.00    +0.000 NA
ATOM     32  N   UNL     1       1.542   2.519  22.255  0.00  0.00    +0.000 NA
ATOM     33  N   UNL     1       0.847   2.883  21.165  0.00  0.00    +0.000 N 
ATOM     34  H   UNL     1      -0.161   2.987  21.238  0.00  0.00    +0.000 HD
ENDBRANCH  28  29
ENDBRANCH  26  28
ENDBRANCH  11  26
TORSDOF 5
ENDMDL
MODEL 6
REMARK VINA RESULT:      -8.7      0.854      1.082
REMARK  Name = 
REMARK  7 active torsions:
REMARK  status: ('A' for Active; 'I' for Inactive)
REMARK    1  A    between atoms: C_1  and  N_2
REMARK    2  A    between atoms: N_5  and  C_6
REMARK    3  A    between atoms: C_9  and  C_10
REMARK    4  A    between atoms: N_15  and  C_16
REMARK    5  A    between atoms: C_20  and  N_21
REMARK    6  A    between atoms: N_21  and  C_22
REMARK    7  A    between atoms: C_22  and  C_23
REMARK                            x       y       z     vdW  Elec       q    Type
REMARK                         _______ _______ _______ _____ _____    ______ ____
ROOT
ATOM      1  C   UNL     1       2.214   7.268  19.208  0.00  0.00    +0.000 A 
ATOM      2  C   UNL     1       1.993   6.157  20.014  0.00  0.00    +0.000 A 
ATOM      3  C   UNL     1       2.559   4.941  19.667  0.00  0.00    +0.000 A 
ATOM      4  N   UNL     1       2.318   3.840  20.500  0.00  0.00    +0.000 NA
ATOM      5  C   UNL     1       2.845   2.712  20.170  0.00  0.00    +0.000 A 
ATOM      6  N   UNL     1       3.617   2.511  19.055  0.00  0.00    +0.000 N 
ATOM      7  C   UNL     1       4.129   1.189  18.755  0.00  0.00    +0.000 C 
ATOM      8  C   UNL     1       3.867   3.537  18.152  0.00  0.00    +0.000 A 
ATOM      9  O   UNL     1       4.446   3.376  17.077  0.00  0.00    +0.000 OA
ATOM     10  C   UNL     1       3.342   4.867  18.521  0.00  0.00    +0.000 A 
ATOM     11  C   UNL     1       3.555   6.014  17.746  0.00  0.00    +0.000 A 
ATOM     12  N   UNL     1       2.974   7.193  18.080  0.00  0.00    +0.000 NA
ENDROOT
BRANCH   1  16
ATOM     13  C   UNL     1       0.575  11.174  20.210  0.00  0.00    +0.000 A 
ATOM     14  C   UNL     1       1.062  10.890  18.931  0.00  0.00    +0.000 A 
ATOM     15  C   UNL     1       1.573   9.626  18.601  0.00  0.00    +0.000 A 
ATOM     16  C   UNL     1       1.632   8.584  19.542  0.00  0.00    +0.000 A 
ATOM     17  C   UNL     1       1.135   8.862  20.820  0.00  0.00    +0.000 A 
ATOM     18  C   UNL     1       0.629  10.131  21.143  0.00  0.00    +0.000 A 
BRANCH  13  23
ATOM     19  C   UNL     1      -2.145  15.294  22.754  0.00  0.00    +0.000 C 
ATOM     20  N   UNL     1      -1.353  14.671  21.698  0.00  0.00    +0.000 NA
ATOM     21  C   UNL     1      -2.094  13.542  21.087  0.00  0.00    +0.000 C 
ATOM     22  C   UNL     1      -1.284  12.822  19.982  0.00  0.00    +0.000 C 
ATOM     23  N   UNL     1       0.010  12.389  20.529  0.00  0.00    +0.000 N 
ATOM     24  C   UNL     1       0.789  13.470  21.152  0.00  0.00    +0.000 C 
ATOM     25  C   UNL     1      -0.066  14.169  22.235  0.00  0.00    +0.000 C 
ENDBRANCH  13  23
ENDBRANCH   1  16
BRANCH  11  26
ATOM     26  N   UNL     1       4.484   6.005  16.698  0.00  0.00    +0.000 N 
ATOM     27  H   UNL     1       4.049   6.226  15.802  0.00  0.00    +0.000 HD
BRANCH  26  28
ATOM     28  C   UNL     1       5.757   6.670  16.909  0.00  0.00    +0.000 C 
BRANCH  28  29
ATOM     29  C   UNL     1       6.807   5.848  17.563  0.00  0.00    +0.000 A 
ATOM     30  C   UNL     1       7.366   5.889  18.821  0.00  0.00    +0.000 A 
ATOM     31  N   UNL     1       8.269   4.874  18.956  0.00  0.00    +0.000 NA
ATOM     32  N   UNL     1       8.297   4.195  17.818  0.00  0.00    +0.000 NA
ATOM     33  N   UNL     1       7.426   4.777  16.978  0.00  0.00    +0.000 N 
ATOM     34  H   UNL     1       7.317   4.396  16.043  0.00  0.00    +0.000 HD
ENDBRANCH  28  29
ENDBRANCH  26  28
ENDBRANCH  11  26
TORSDOF 5
ENDMDL
MODEL 7
REMARK VINA RESULT:      -8.5      1.250      1.902
REMARK  Name = 
REMARK  7 active torsions:
REMARK  status: ('A' for Active; 'I' for Inactive)
REMARK    1  A    between atoms: C_1  and  N_2
REMARK    2  A    between atoms: N_5  and  C_6
REMARK    3  A    between atoms: C_9  and  C_10
REMARK    4  A    between atoms: N_15  and  C_16
REMARK    5  A    between atoms: C_20  and  N_21
REMARK    6  A    between atoms: N_21  and  C_22
REMARK    7  A    between atoms: C_22  and  C_23
REMARK                            x       y       z     vdW  Elec       q    Type
REMARK                         _______ _______ _______ _____ _____    ______ ____
ROOT
ATOM      1  C   UNL     1       1.999   7.056  20.004  0.00  0.00    +0.000 A 
ATOM      2  C   UNL     1       1.472   5.841  20.425  0.00  0.00    +0.000 A 
ATOM      3  C   UNL     1       2.063   4.661  20.006  0.00  0.00    +0.000 A 
ATOM      4  N   UNL     1       1.508   3.452  20.447  0.00  0.00    +0.000 NA
ATOM      5  C   UNL     1       2.061   2.358  20.050  0.00  0.00    +0.000 A 
ATOM      6  N   UNL     1       3.149   2.293  19.219  0.00  0.00    +0.000 N 
ATOM      7  C   UNL     1       3.668   1.006  18.801  0.00  0.00    +0.000 C 
ATOM      8  C   UNL     1       3.732   3.442  18.698  0.00  0.00    +0.000 A 
ATOM      9  O   UNL     1       4.627   3.431  17.852  0.00  0.00    +0.000 OA
ATOM     10  C   UNL     1       3.177   4.724  19.177  0.00  0.00    +0.000 A 
ATOM     11  C   UNL     1       3.690   5.970  18.791  0.00  0.00    +0.000 A 
ATOM     12  N   UNL     1       3.087   7.118  19.185  0.00  0.00    +0.000 NA
ENDROOT
BRANCH   1  16
ATOM     13  C   UNL     1       0.166  10.803  21.249  0.00  0.00    +0.000 A 
ATOM     14  C   UNL     1       0.450   9.786  22.165  0.00  0.00    +0.000 A 
ATOM     15  C   UNL     1       1.058   8.586  21.769  0.00  0.00    +0.000 A 
ATOM     16  C   UNL     1       1.403   8.339  20.429  0.00  0.00    +0.000 A 
ATOM     17  C   UNL     1       1.130   9.359  19.511  0.00  0.00    +0.000 A 
ATOM     18  C   UNL     1       0.517  10.556  19.915  0.00  0.00    +0.000 A 
BRANCH  13  23
ATOM     19  C   UNL     1      -0.969  15.521  23.950  0.00  0.00    +0.000 C 
ATOM     20  N   UNL     1      -1.103  14.525  22.891  0.00  0.00    +0.000 NA
ATOM     21  C   UNL     1      -1.510  13.217  23.455  0.00  0.00    +0.000 C 
ATOM     22  C   UNL     1      -1.633  12.112  22.377  0.00  0.00    +0.000 C 
ATOM     23  N   UNL     1      -0.369  12.012  21.634  0.00  0.00    +0.000 N 
ATOM     24  C   UNL     1       0.087  13.285  21.054  0.00  0.00    +0.000 C 
ATOM     25  C   UNL     1       0.178  14.358  22.163  0.00  0.00    +0.000 C 
ENDBRANCH  13  23
ENDBRANCH   1  16
BRANCH  11  26
ATOM     26  N   UNL     1       4.912   6.060  18.114  0.00  0.00    +0.000 N 
ATOM     27  H   UNL     1       5.485   5.227  18.251  0.00  0.00    +0.000 HD
BRANCH  26  28
ATOM     28  C   UNL     1       4.900   6.543  16.745  0.00  0.00    +0.000 C 
BRANCH  28  29
ATOM     29  C   UNL     1       5.805   5.831  15.808  0.00  0.00    +0.000 A 
ATOM     30  C   UNL     1       5.567   4.927  14.797  0.00  0.00    +0.000 A 
ATOM     31  N   UNL     1       6.743   4.599  14.185  0.00  0.00    +0.000 NA
ATOM     32  N   UNL     1       7.717   5.270  14.784  0.00  0.00    +0.000 NA
ATOM     33  N   UNL     1       7.161   6.007  15.760  0.00  0.00    +0.000 N 
ATOM     34  H   UNL     1       7.761   6.586  16.339  0.00  0.00    +0.000 HD
ENDBRANCH  28  29
ENDBRANCH  26  28
ENDBRANCH  11  26
TORSDOF 5
ENDMDL
MODEL 8
REMARK VINA RESULT:      -8.5      3.883      9.951
REMARK  Name = 
REMARK  7 active torsions:
REMARK  status: ('A' for Active; 'I' for Inactive)
REMARK    1  A    between atoms: C_1  and  N_2
REMARK    2  A    between atoms: N_5  and  C_6
REMARK    3  A    between atoms: C_9  and  C_10
REMARK    4  A    between atoms: N_15  and  C_16
REMARK    5  A    between atoms: C_20  and  N_21
REMARK    6  A    between atoms: N_21  and  C_22
REMARK    7  A    between atoms: C_22  and  C_23
REMARK                            x       y       z     vdW  Elec       q    Type
REMARK                         _______ _______ _______ _____ _____    ______ ____
ROOT
ATOM      1  C   UNL     1       0.019  10.283  20.031  0.00  0.00    +0.000 A 
ATOM      2  C   UNL     1      -0.129  10.500  21.396  0.00  0.00    +0.000 A 
ATOM      3  C   UNL     1      -1.055  11.428  21.842  0.00  0.00    +0.000 A 
ATOM      4  N   UNL     1      -1.180  11.624  23.224  0.00  0.00    +0.000 NA
ATOM      5  C   UNL     1      -2.041  12.491  23.632  0.00  0.00    +0.000 A 
ATOM      6  N   UNL     1      -2.837  13.243  22.807  0.00  0.00    +0.000 N 
ATOM      7  C   UNL     1      -3.745  14.222  23.370  0.00  0.00    +0.000 C 
ATOM      8  C   UNL     1      -2.744  13.146  21.424  0.00  0.00    +0.000 A 
ATOM      9  O   UNL     1      -3.344  13.888  20.645  0.00  0.00    +0.000 OA
ATOM     10  C   UNL     1      -1.820  12.116  20.908  0.00  0.00    +0.000 A 
ATOM     11  C   UNL     1      -1.654  11.856  19.541  0.00  0.00    +0.000 A 
ATOM     12  N   UNL     1      -0.726  10.965  19.115  0.00  0.00    +0.000 NA
ENDROOT
BRANCH   1  16
ATOM     13  C   UNL     1       2.947   7.431  18.536  0.00  0.00    +0.000 A 
ATOM     14  C   UNL     1       2.382   7.303  19.808  0.00  0.00    +0.000 A 
ATOM     15  C   UNL     1       1.424   8.210  20.285  0.00  0.00    +0.000 A 
ATOM     16  C   UNL     1       0.991   9.301  19.512  0.00  0.00    +0.000 A 
ATOM     17  C   UNL     1       1.547   9.426  18.234  0.00  0.00    +0.000 A 
ATOM     18  C   UNL     1       2.508   8.516  17.766  0.00  0.00    +0.000 A 
BRANCH  13  23
ATOM     19  C   UNL     1       7.505   4.445  17.461  0.00  0.00    +0.000 C 
ATOM     20  N   UNL     1       6.101   4.829  17.337  0.00  0.00    +0.000 NA
ATOM     21  C   UNL     1       5.984   6.225  16.855  0.00  0.00    +0.000 C 
ATOM     22  C   UNL     1       4.514   6.697  16.739  0.00  0.00    +0.000 C 
ATOM     23  N   UNL     1       3.838   6.510  18.031  0.00  0.00    +0.000 N 
ATOM     24  C   UNL     1       3.925   5.140  18.560  0.00  0.00    +0.000 C 
ATOM     25  C   UNL     1       5.409   4.709  18.642  0.00  0.00    +0.000 C 
ENDBRANCH  13  23
ENDBRANCH   1  16
BRANCH  11  26
ATOM     26  N   UNL     1      -2.537  12.397  18.599  0.00  0.00    +0.000 N 
ATOM     27  H   UNL     1      -2.047  12.935  17.884  0.00  0.00    +0.000 HD
BRANCH  26  28
ATOM     28  C   UNL     1      -3.582  11.539  18.071  0.00  0.00    +0.000 C 
BRANCH  28  29
ATOM     29  C   UNL     1      -3.311  10.948  16.737  0.00  0.00    +0.000 A 
ATOM     30  C   UNL     1      -2.701   9.776  16.349  0.00  0.00    +0.000 A 
ATOM     31  N   UNL     1      -2.745   9.661  14.989  0.00  0.00    +0.000 NA
ATOM     32  N   UNL     1      -3.365  10.730  14.508  0.00  0.00    +0.000 NA
ATOM     33  N   UNL     1      -3.702  11.506  15.550  0.00  0.00    +0.000 N 
ATOM     34  H   UNL     1      -4.182  12.383  15.373  0.00  0.00    +0.000 HD
ENDBRANCH  28  29
ENDBRANCH  26  28
ENDBRANCH  11  26
TORSDOF 5
ENDMDL
MODEL 9
REMARK VINA RESULT:      -8.5      1.404      1.700
REMARK  Name = 
REMARK  7 active torsions:
REMARK  status: ('A' for Active; 'I' for Inactive)
REMARK    1  A    between atoms: C_1  and  N_2
REMARK    2  A    between atoms: N_5  and  C_6
REMARK    3  A    between atoms: C_9  and  C_10
REMARK    4  A    between atoms: N_15  and  C_16
REMARK    5  A    between atoms: C_20  and  N_21
REMARK    6  A    between atoms: N_21  and  C_22
REMARK    7  A    between atoms: C_22  and  C_23
REMARK                            x       y       z     vdW  Elec       q    Type
REMARK                         _______ _______ _______ _____ _____    ______ ____
ROOT
ATOM      1  C   UNL     1       1.987   7.142  20.059  0.00  0.00    +0.000 A 
ATOM      2  C   UNL     1       1.709   5.986  20.778  0.00  0.00    +0.000 A 
ATOM      3  C   UNL     1       2.470   4.849  20.561  0.00  0.00    +0.000 A 
ATOM      4  N   UNL     1       2.165   3.699  21.301  0.00  0.00    +0.000 NA
ATOM      5  C   UNL     1       2.875   2.644  21.091  0.00  0.00    +0.000 A 
ATOM      6  N   UNL     1       3.902   2.566  20.187  0.00  0.00    +0.000 N 
ATOM      7  C   UNL     1       4.611   1.316  20.000  0.00  0.00    +0.000 C 
ATOM      8  C   UNL     1       4.240   3.645  19.378  0.00  0.00    +0.000 A 
ATOM      9  O   UNL     1       5.067   3.584  18.468  0.00  0.00    +0.000 OA
ATOM     10  C   UNL     1       3.500   4.899  19.629  0.00  0.00    +0.000 A 
ATOM     11  C   UNL     1       3.761   6.090  18.939  0.00  0.00    +0.000 A 
ATOM     12  N   UNL     1       2.992   7.188  19.140  0.00  0.00    +0.000 NA
ENDROOT
BRANCH   1  16
ATOM     13  C   UNL     1      -0.255  10.821  20.682  0.00  0.00    +0.000 A 
ATOM     14  C   UNL     1       0.407  10.561  19.478  0.00  0.00    +0.000 A 
ATOM     15  C   UNL     1       1.114   9.368  19.269  0.00  0.00    +0.000 A 
ATOM     16  C   UNL     1       1.203   8.377  20.262  0.00  0.00    +0.000 A 
ATOM     17  C   UNL     1       0.532   8.630  21.463  0.00  0.00    +0.000 A 
ATOM     18  C   UNL     1      -0.170   9.828  21.666  0.00  0.00    +0.000 A 
BRANCH  13  23
ATOM     19  C   UNL     1      -4.263  14.390  22.111  0.00  0.00    +0.000 C 
ATOM     20  N   UNL     1      -2.979  13.981  21.548  0.00  0.00    +0.000 NA
ATOM     21  C   UNL     1      -3.180  13.031  20.429  0.00  0.00    +0.000 C 
ATOM     22  C   UNL     1      -1.846  12.537  19.817  0.00  0.00    +0.000 C 
ATOM     23  N   UNL     1      -1.008  11.958  20.876  0.00  0.00    +0.000 N 
ATOM     24  C   UNL     1      -0.778  12.857  22.017  0.00  0.00    +0.000 C 
ATOM     25  C   UNL     1      -2.136  13.336  22.583  0.00  0.00    +0.000 C 
ENDBRANCH  13  23
ENDBRANCH   1  16
BRANCH  11  26
ATOM     26  N   UNL     1       4.902   6.216  18.138  0.00  0.00    +0.000 N 
ATOM     27  H   UNL     1       5.599   5.502  18.353  0.00  0.00    +0.000 HD
BRANCH  26  28
ATOM     28  C   UNL     1       4.718   6.443  16.716  0.00  0.00    +0.000 C 
BRANCH  28  29
ATOM     29  C   UNL     1       5.701   5.773  15.828  0.00  0.00    +0.000 A 
ATOM     30  C   UNL     1       5.557   4.848  14.819  0.00  0.00    +0.000 A 
ATOM     31  N   UNL     1       6.776   4.579  14.264  0.00  0.00    +0.000 NA
ATOM     32  N   UNL     1       7.684   5.308  14.897  0.00  0.00    +0.000 NA
ATOM     33  N   UNL     1       7.046   6.021  15.839  0.00  0.00    +0.000 N 
ATOM     34  H   UNL     1       7.587   6.638  16.437  0.00  0.00    +0.000 HD
ENDBRANCH  28  29
ENDBRANCH  26  28
ENDBRANCH  11  26
TORSDOF 5
ENDMDL
