MODEL 1
REMARK VINA RESULT:      -8.1      0.000      0.000
REMARK  Name = 
REMARK  7 active torsions:
REMARK  status: ('A' for Active; 'I' for Inactive)
REMARK    1  A    between atoms: C_1  and  C_2
REMARK    2  A    between atoms: C_2  and  C_3
REMARK    3  A    between atoms: C_2  and  C_4
REMARK    4  A    between atoms: C_7  and  C_8
REMARK    5  A    between atoms: N_10  and  C_11
REMARK    6  A    between atoms: C_11  and  C_12
REMARK    7  A    between atoms: N_15  and  C_16
REMARK                            x       y       z     vdW  Elec       q    Type
REMARK                         _______ _______ _______ _____ _____    ______ ____
ROOT
ATOM      1  C   UNL     1       5.009   5.501  18.303  0.00  0.00    +0.000 C 
ATOM      2  O   UNL     1       5.684   5.350  19.319  0.00  0.00    +0.000 OA
ATOM      3  N   UNL     1       3.696   5.888  18.352  0.00  0.00    +0.000 N 
ATOM      4  H   UNL     1       3.173   6.055  17.493  0.00  0.00    +0.000 HD
ENDROOT
BRANCH   1   8
ATOM      5  C   UNL     1       6.590   4.541  14.395  0.00  0.00    +0.000 A 
ATOM      6  C   UNL     1       5.478   3.967  14.876  0.00  0.00    +0.000 A 
ATOM      7  C   UNL     1       4.978   4.328  16.180  0.00  0.00    +0.000 A 
ATOM      8  C   UNL     1       5.589   5.250  16.955  0.00  0.00    +0.000 A 
ATOM      9  C   UNL     1       6.798   5.928  16.400  0.00  0.00    +0.000 A 
ATOM     10  O   UNL     1       7.403   6.801  17.014  0.00  0.00    +0.000 OA
ATOM     11  N   UNL     1       7.212   5.514  15.152  0.00  0.00    +0.000 N 
ATOM     12  H   UNL     1       8.043   5.975  14.798  0.00  0.00    +0.000 HD
BRANCH   5  14
ATOM     13  C   UNL     1       6.195   3.406  12.191  0.00  0.00    +0.000 C 
ATOM     14  C   UNL     1       7.201   4.165  13.058  0.00  0.00    +0.000 C 
ATOM     15  C   UNL     1       7.725   5.403  12.321  0.00  0.00    +0.000 C 
ENDBRANCH   5  14
ENDBRANCH   1   8
BRANCH   3  16
ATOM     16  C   UNL     1       3.046   6.151  19.619  0.00  0.00    +0.000 C 
BRANCH  16  17
ATOM     17  C   UNL     1       2.246   7.413  19.552  0.00  0.00    +0.000 A 
ATOM     18  C   UNL     1       2.200   8.335  18.478  0.00  0.00    +0.000 A 
ATOM     19  C   UNL     1       1.327   9.316  18.879  0.00  0.00    +0.000 A 
ATOM     20  N   UNL     1       0.910   8.962  20.131  0.00  0.00    +0.000 N 
ATOM     21  N   UNL     1       1.472   7.816  20.573  0.00  0.00    +0.000 NA
BRANCH  20  22
ATOM     22  C   UNL     1      -0.054   9.677  20.942  0.00  0.00    +0.000 C 
ATOM     23  C   UNL     1      -0.043   9.273  22.415  0.00  0.00    +0.000 C 
ATOM     24  C   UNL     1      -0.796  10.400  23.107  0.00  0.00    +0.000 C 
ATOM     25  C   UNL     1      -0.560  11.649  22.257  0.00  0.00    +0.000 C 
ATOM     26  C   UNL     1       0.164  11.188  20.993  0.00  0.00    +0.000 C 
ENDBRANCH  20  22
ENDBRANCH  16  17
ENDBRANCH   3  16
TORSDOF 5
ENDMDL
MODEL 2
REMARK VINA RESULT:      -7.7      0.648      1.019
REMARK  Name = 
REMARK  7 active torsions:
REMARK  status: ('A' for Active; 'I' for Inactive)
REMARK    1  A    between atoms: C_1  and  C_2
REMARK    2  A    between atoms: C_2  and  C_3
REMARK    3  A    between atoms: C_2  and  C_4
REMARK    4  A    between atoms: C_7  and  C_8
REMARK    5  A    between atoms: N_10  and  C_11
REMARK    6  A    between atoms: C_11  and  C_12
REMARK    7  A    between atoms: N_15  and  C_16
REMARK                            x       y       z     vdW  Elec       q    Type
REMARK                         _______ _______ _______ _____ _____    ______ ____
ROOT
ATOM      1  C   UNL     1       4.623   5.439  18.379  0.00  0.00    +0.000 C 
ATOM      2  O   UNL     1       5.360   5.439  19.363  0.00  0.00    +0.000 OA
ATOM      3  N   UNL     1       3.284   5.710  18.472  0.00  0.00    +0.000 N 
ATOM      4  H   UNL     1       2.705   5.754  17.633  0.00  0.00    +0.000 HD
ENDROOT
BRANCH   1   8
ATOM      5  C   UNL     1       6.197   4.284  14.521  0.00  0.00    +0.000 A 
ATOM      6  C   UNL     1       5.552   3.419  15.317  0.00  0.00    +0.000 A 
ATOM      7  C   UNL     1       5.031   3.852  16.591  0.00  0.00    +0.000 A 
ATOM      8  C   UNL     1       5.156   5.125  17.024  0.00  0.00    +0.000 A 
ATOM      9  C   UNL     1       5.827   6.102  16.117  0.00  0.00    +0.000 A 
ATOM     10  O   UNL     1       5.960   7.286  16.407  0.00  0.00    +0.000 OA
ATOM     11  N   UNL     1       6.304   5.600  14.925  0.00  0.00    +0.000 N 
ATOM     12  H   UNL     1       6.770   6.275  14.328  0.00  0.00    +0.000 HD
BRANCH   5  14
ATOM     13  C   UNL     1       5.750   3.400  12.214  0.00  0.00    +0.000 C 
ATOM     14  C   UNL     1       6.819   3.881  13.197  0.00  0.00    +0.000 C 
ATOM     15  C   UNL     1       7.630   5.033  12.593  0.00  0.00    +0.000 C 
ENDBRANCH   5  14
ENDBRANCH   1   8
BRANCH   3  16
ATOM     16  C   UNL     1       2.676   6.023  19.749  0.00  0.00    +0.000 C 
BRANCH  16  17
ATOM     17  C   UNL     1       2.105   7.406  19.737  0.00  0.00    +0.000 A 
ATOM     18  C   UNL     1       1.958   8.257  18.616  0.00  0.00    +0.000 A 
ATOM     19  C   UNL     1       1.381   9.404  19.102  0.00  0.00    +0.000 A 
ATOM     20  N   UNL     1       1.223   9.206  20.445  0.00  0.00    +0.000 N 
ATOM     21  N   UNL     1       1.675   8.003  20.861  0.00  0.00    +0.000 NA
BRANCH  20  22
ATOM     22  C   UNL     1       0.613  10.132  21.377  0.00  0.00    +0.000 C 
ATOM     23  C   UNL     1      -0.549  10.928  20.785  0.00  0.00    +0.000 C 
ATOM     24  C   UNL     1      -1.265  11.489  22.006  0.00  0.00    +0.000 C 
ATOM     25  C   UNL     1      -1.014  10.491  23.136  0.00  0.00    +0.000 C 
ATOM     26  C   UNL     1      -0.007   9.471  22.606  0.00  0.00    +0.000 C 
ENDBRANCH  20  22
ENDBRANCH  16  17
ENDBRANCH   3  16
TORSDOF 5
ENDMDL
MODEL 3
REMARK VINA RESULT:      -7.6      1.669      8.972
REMARK  Name = 
REMARK  7 active torsions:
REMARK  status: ('A' for Active; 'I' for Inactive)
REMARK    1  A    between atoms: C_1  and  C_2
REMARK    2  A    between atoms: C_2  and  C_3
REMARK    3  A    between atoms: C_2  and  C_4
REMARK    4  A    between atoms: C_7  and  C_8
REMARK    5  A    between atoms: N_10  and  C_11
REMARK    6  A    between atoms: C_11  and  C_12
REMARK    7  A    between atoms: N_15  and  C_16
REMARK                            x       y       z     vdW  Elec       q    Type
REMARK                         _______ _______ _______ _____ _____    ______ ____
ROOT
ATOM      1  C   UNL     1       2.870   6.165  18.917  0.00  0.00    +0.000 C 
ATOM      2  O   UNL     1       2.442   5.522  17.962  0.00  0.00    +0.000 OA
ATOM      3  N   UNL     1       4.002   5.798  19.594  0.00  0.00    +0.000 N 
ATOM      4  H   UNL     1       4.365   6.378  20.350  0.00  0.00    +0.000 HD
ENDROOT
BRANCH   1   8
ATOM      5  C   UNL     1       0.687   9.550  20.489  0.00  0.00    +0.000 A 
ATOM      6  C   UNL     1       0.959   8.468  21.233  0.00  0.00    +0.000 A 
ATOM      7  C   UNL     1       1.704   7.367  20.671  0.00  0.00    +0.000 A 
ATOM      8  C   UNL     1       2.160   7.382  19.400  0.00  0.00    +0.000 A 
ATOM      9  C   UNL     1       1.903   8.607  18.587  0.00  0.00    +0.000 A 
ATOM     10  O   UNL     1       2.304   8.728  17.434  0.00  0.00    +0.000 OA
ATOM     11  N   UNL     1       1.175   9.605  19.199  0.00  0.00    +0.000 N 
ATOM     12  H   UNL     1       0.997  10.423  18.626  0.00  0.00    +0.000 HD
BRANCH   5  14
ATOM     13  C   UNL     1      -0.504  10.525  22.473  0.00  0.00    +0.000 C 
ATOM     14  C   UNL     1      -0.140  10.716  21.000  0.00  0.00    +0.000 C 
ATOM     15  C   UNL     1       0.592  12.046  20.792  0.00  0.00    +0.000 C 
ENDBRANCH   5  14
ENDBRANCH   1   8
BRANCH   3  16
ATOM     16  C   UNL     1       4.757   4.627  19.197  0.00  0.00    +0.000 C 
BRANCH  16  17
ATOM     17  C   UNL     1       5.575   4.913  17.977  0.00  0.00    +0.000 A 
ATOM     18  C   UNL     1       6.478   5.987  17.791  0.00  0.00    +0.000 A 
ATOM     19  C   UNL     1       6.987   5.818  16.527  0.00  0.00    +0.000 A 
ATOM     20  N   UNL     1       6.383   4.702  16.023  0.00  0.00    +0.000 N 
ATOM     21  N   UNL     1       5.501   4.143  16.879  0.00  0.00    +0.000 NA
BRANCH  20  22
ATOM     22  C   UNL     1       6.637   4.107  14.726  0.00  0.00    +0.000 C 
ATOM     23  C   UNL     1       5.371   3.790  13.933  0.00  0.00    +0.000 C 
ATOM     24  C   UNL     1       5.874   3.583  12.511  0.00  0.00    +0.000 C 
ATOM     25  C   UNL     1       7.126   4.450  12.378  0.00  0.00    +0.000 C 
ATOM     26  C   UNL     1       7.434   4.995  13.772  0.00  0.00    +0.000 C 
ENDBRANCH  20  22
ENDBRANCH  16  17
ENDBRANCH   3  16
TORSDOF 5
ENDMDL
MODEL 4
REMARK VINA RESULT:      -7.5      2.548      3.974
REMARK  Name = 
REMARK  7 active torsions:
REMARK  status: ('A' for Active; 'I' for Inactive)
REMARK    1  A    between atoms: C_1  and  C_2
REMARK    2  A    between atoms: C_2  and  C_3
REMARK    3  A    between atoms: C_2  and  C_4
REMARK    4  A    between atoms: C_7  and  C_8
REMARK    5  A    between atoms: N_10  and  C_11
REMARK    6  A    between atoms: C_11  and  C_12
REMARK    7  A    between atoms: N_15  and  C_16
REMARK                            x       y       z     vdW  Elec       q    Type
REMARK                         _______ _______ _______ _____ _____    ______ ____
ROOT
ATOM      1  C   UNL     1       2.026   6.358  20.118  0.00  0.00    +0.000 C 
ATOM      2  O   UNL     1       1.323   5.576  20.754  0.00  0.00    +0.000 OA
ATOM      3  N   UNL     1       2.006   7.708  20.349  0.00  0.00    +0.000 N 
ATOM      4  H   UNL     1       2.637   8.329  19.842  0.00  0.00    +0.000 HD
ENDROOT
BRANCH   1   8
ATOM      5  C   UNL     1       4.725   4.754  17.146  0.00  0.00    +0.000 A 
ATOM      6  C   UNL     1       4.166   3.985  18.091  0.00  0.00    +0.000 A 
ATOM      7  C   UNL     1       3.260   4.560  19.055  0.00  0.00    +0.000 A 
ATOM      8  C   UNL     1       2.931   5.870  19.041  0.00  0.00    +0.000 A 
ATOM      9  C   UNL     1       3.511   6.717  17.957  0.00  0.00    +0.000 A 
ATOM     10  O   UNL     1       3.248   7.909  17.841  0.00  0.00    +0.000 OA
ATOM     11  N   UNL     1       4.376   6.088  17.087  0.00  0.00    +0.000 N 
ATOM     12  H   UNL     1       4.772   6.683  16.366  0.00  0.00    +0.000 HD
BRANCH   5  14
ATOM     13  C   UNL     1       5.463   4.796  14.747  0.00  0.00    +0.000 C 
ATOM     14  C   UNL     1       5.730   4.224  16.140  0.00  0.00    +0.000 C 
ATOM     15  C   UNL     1       7.167   4.525  16.581  0.00  0.00    +0.000 C 
ENDBRANCH   5  14
ENDBRANCH   1   8
BRANCH   3  16
ATOM     16  C   UNL     1       1.154   8.273  21.374  0.00  0.00    +0.000 C 
BRANCH  16  17
ATOM     17  C   UNL     1       0.379   9.435  20.837  0.00  0.00    +0.000 A 
ATOM     18  C   UNL     1       0.099  10.652  21.503  0.00  0.00    +0.000 A 
ATOM     19  C   UNL     1      -0.625  11.399  20.607  0.00  0.00    +0.000 A 
ATOM     20  N   UNL     1      -0.754  10.625  19.489  0.00  0.00    +0.000 N 
ATOM     21  N   UNL     1      -0.168   9.414  19.611  0.00  0.00    +0.000 NA
BRANCH  20  22
ATOM     22  C   UNL     1      -1.410  11.011  18.256  0.00  0.00    +0.000 C 
ATOM     23  C   UNL     1      -1.615   9.857  17.277  0.00  0.00    +0.000 C 
ATOM     24  C   UNL     1      -2.649  10.391  16.296  0.00  0.00    +0.000 C 
ATOM     25  C   UNL     1      -3.493  11.396  17.079  0.00  0.00    +0.000 C 
ATOM     26  C   UNL     1      -2.820  11.567  18.441  0.00  0.00    +0.000 C 
ENDBRANCH  20  22
ENDBRANCH  16  17
ENDBRANCH   3  16
TORSDOF 5
ENDMDL
MODEL 5
REMARK VINA RESULT:      -7.5      2.941      4.545
REMARK  Name = 
REMARK  7 active torsions:
REMARK  status: ('A' for Active; 'I' for Inactive)
REMARK    1  A    between atoms: C_1  and  C_2
REMARK    2  A    between atoms: C_2  and  C_3
REMARK    3  A    between atoms: C_2  and  C_4
REMARK    4  A    between atoms: C_7  and  C_8
REMARK    5  A    between atoms: N_10  and  C_11
REMARK    6  A    between atoms: C_11  and  C_12
REMARK    7  A    between atoms: N_15  and  C_16
REMARK                            x       y       z     vdW  Elec       q    Type
REMARK                         _______ _______ _______ _____ _____    ______ ____
ROOT
ATOM      1  C   UNL     1       1.950   7.185  20.076  0.00  0.00    +0.000 C 
ATOM      2  O   UNL     1       1.458   6.358  20.841  0.00  0.00    +0.000 OA
ATOM      3  N   UNL     1       1.590   8.506  20.102  0.00  0.00    +0.000 N 
ATOM      4  H   UNL     1       2.051   9.180  19.491  0.00  0.00    +0.000 HD
ENDROOT
BRANCH   1   8
ATOM      5  C   UNL     1       5.012   5.893  17.311  0.00  0.00    +0.000 A 
ATOM      6  C   UNL     1       4.734   5.217  18.435  0.00  0.00    +0.000 A 
ATOM      7  C   UNL     1       3.693   5.677  19.322  0.00  0.00    +0.000 A 
ATOM      8  C   UNL     1       2.960   6.780  19.060  0.00  0.00    +0.000 A 
ATOM      9  C   UNL     1       3.233   7.505  17.784  0.00  0.00    +0.000 A 
ATOM     10  O   UNL     1       2.599   8.497  17.442  0.00  0.00    +0.000 OA
ATOM     11  N   UNL     1       4.251   7.002  17.002  0.00  0.00    +0.000 N 
ATOM     12  H   UNL     1       4.432   7.516  16.146  0.00  0.00    +0.000 HD
BRANCH   5  14
ATOM     13  C   UNL     1       7.163   4.620  17.076  0.00  0.00    +0.000 C 
ATOM     14  C   UNL     1       6.131   5.497  16.365  0.00  0.00    +0.000 C 
ATOM     15  C   UNL     1       5.580   4.786  15.124  0.00  0.00    +0.000 C 
ENDBRANCH   5  14
ENDBRANCH   1   8
BRANCH   3  16
ATOM     16  C   UNL     1       0.612   8.990  21.054  0.00  0.00    +0.000 C 
BRANCH  16  17
ATOM     17  C   UNL     1      -0.289  10.002  20.419  0.00  0.00    +0.000 A 
ATOM     18  C   UNL     1      -0.781  11.192  21.007  0.00  0.00    +0.000 A 
ATOM     19  C   UNL     1      -1.551  11.785  20.037  0.00  0.00    +0.000 A 
ATOM     20  N   UNL     1      -1.501  10.953  18.954  0.00  0.00    +0.000 N 
ATOM     21  N   UNL     1      -0.754   9.848  19.168  0.00  0.00    +0.000 NA
BRANCH  20  22
ATOM     22  C   UNL     1      -2.131  11.187  17.670  0.00  0.00    +0.000 C 
ATOM     23  C   UNL     1      -2.029  10.005  16.709  0.00  0.00    +0.000 C 
ATOM     24  C   UNL     1      -3.076  10.308  15.647  0.00  0.00    +0.000 C 
ATOM     25  C   UNL     1      -4.159  11.130  16.346  0.00  0.00    +0.000 C 
ATOM     26  C   UNL     1      -3.634  11.448  17.745  0.00  0.00    +0.000 C 
ENDBRANCH  20  22
ENDBRANCH  16  17
ENDBRANCH   3  16
TORSDOF 5
ENDMDL
MODEL 6
REMARK VINA RESULT:      -7.5      4.074      6.176
REMARK  Name = 
REMARK  7 active torsions:
REMARK  status: ('A' for Active; 'I' for Inactive)
REMARK    1  A    between atoms: C_1  and  C_2
REMARK    2  A    between atoms: C_2  and  C_3
REMARK    3  A    between atoms: C_2  and  C_4
REMARK    4  A    between atoms: C_7  and  C_8
REMARK    5  A    between atoms: N_10  and  C_11
REMARK    6  A    between atoms: C_11  and  C_12
REMARK    7  A    between atoms: N_15  and  C_16
REMARK                            x       y       z     vdW  Elec       q    Type
REMARK                         _______ _______ _______ _____ _____    ______ ____
ROOT
ATOM      1  C   UNL     1       1.593   9.347  18.402  0.00  0.00    +0.000 C 
ATOM      2  O   UNL     1       2.098   9.967  17.470  0.00  0.00    +0.000 OA
ATOM      3  N   UNL     1       0.528   9.836  19.111  0.00  0.00    +0.000 N 
ATOM      4  H   UNL     1       0.096   9.277  19.846  0.00  0.00    +0.000 HD
ENDROOT
BRANCH   1   8
ATOM      5  C   UNL     1       3.153   5.432  19.372  0.00  0.00    +0.000 A 
ATOM      6  C   UNL     1       3.344   6.000  18.172  0.00  0.00    +0.000 A 
ATOM      7  C   UNL     1       2.817   7.314  17.897  0.00  0.00    +0.000 A 
ATOM      8  C   UNL     1       2.132   8.022  18.820  0.00  0.00    +0.000 A 
ATOM      9  C   UNL     1       1.962   7.415  20.173  0.00  0.00    +0.000 A 
ATOM     10  O   UNL     1       1.384   7.992  21.087  0.00  0.00    +0.000 OA
ATOM     11  N   UNL     1       2.488   6.152  20.345  0.00  0.00    +0.000 N 
ATOM     12  H   UNL     1       2.350   5.749  21.266  0.00  0.00    +0.000 HD
BRANCH   5  14
ATOM     13  C   UNL     1       2.613   3.304  20.589  0.00  0.00    +0.000 C 
ATOM     14  C   UNL     1       3.629   4.031  19.708  0.00  0.00    +0.000 C 
ATOM     15  C   UNL     1       3.917   3.225  18.437  0.00  0.00    +0.000 C 
ENDBRANCH   5  14
ENDBRANCH   1   8
BRANCH   3  16
ATOM     16  C   UNL     1      -0.060  11.116  18.778  0.00  0.00    +0.000 C 
BRANCH  16  17
ATOM     17  C   UNL     1      -1.480  10.948  18.337  0.00  0.00    +0.000 A 
ATOM     18  C   UNL     1      -1.975  10.002  17.408  0.00  0.00    +0.000 A 
ATOM     19  C   UNL     1      -3.327  10.231  17.342  0.00  0.00    +0.000 A 
ATOM     20  N   UNL     1      -3.575  11.272  18.191  0.00  0.00    +0.000 N 
ATOM     21  N   UNL     1      -2.462  11.741  18.795  0.00  0.00    +0.000 NA
BRANCH  20  22
ATOM     22  C   UNL     1      -4.875  11.841  18.485  0.00  0.00    +0.000 C 
ATOM     23  C   UNL     1      -6.020  10.833  18.417  0.00  0.00    +0.000 C 
ATOM     24  C   UNL     1      -7.162  11.530  19.144  0.00  0.00    +0.000 C 
ATOM     25  C   UNL     1      -6.506  12.456  20.168  0.00  0.00    +0.000 C 
ATOM     26  C   UNL     1      -5.004  12.422  19.892  0.00  0.00    +0.000 C 
ENDBRANCH  20  22
ENDBRANCH  16  17
ENDBRANCH   3  16
TORSDOF 5
ENDMDL
MODEL 7
REMARK VINA RESULT:      -7.5      0.933      1.141
REMARK  Name = 
REMARK  7 active torsions:
REMARK  status: ('A' for Active; 'I' for Inactive)
REMARK    1  A    between atoms: C_1  and  C_2
REMARK    2  A    between atoms: C_2  and  C_3
REMARK    3  A    between atoms: C_2  and  C_4
REMARK    4  A    between atoms: C_7  and  C_8
REMARK    5  A    between atoms: N_10  and  C_11
REMARK    6  A    between atoms: C_11  and  C_12
REMARK    7  A    between atoms: N_15  and  C_16
REMARK                            x       y       z     vdW  Elec       q    Type
REMARK                         _______ _______ _______ _____ _____    ______ ____
ROOT
ATOM      1  C   UNL     1       4.737   5.698  18.210  0.00  0.00    +0.000 C 
ATOM      2  O   UNL     1       5.237   5.397  19.292  0.00  0.00    +0.000 OA
ATOM      3  N   UNL     1       3.501   6.279  18.114  0.00  0.00    +0.000 N 
ATOM      4  H   UNL     1       3.132   6.565  17.208  0.00  0.00    +0.000 HD
ENDROOT
BRANCH   1   8
ATOM      5  C   UNL     1       6.692   4.693  14.486  0.00  0.00    +0.000 A 
ATOM      6  C   UNL     1       5.461   4.255  14.788  0.00  0.00    +0.000 A 
ATOM      7  C   UNL     1       4.841   4.626  16.036  0.00  0.00    +0.000 A 
ATOM      8  C   UNL     1       5.456   5.426  16.934  0.00  0.00    +0.000 A 
ATOM      9  C   UNL     1       6.805   5.958  16.578  0.00  0.00    +0.000 A 
ATOM     10  O   UNL     1       7.429   6.717  17.312  0.00  0.00    +0.000 OA
ATOM     11  N   UNL     1       7.326   5.543  15.371  0.00  0.00    +0.000 N 
ATOM     12  H   UNL     1       8.249   5.903  15.152  0.00  0.00    +0.000 HD
BRANCH   5  14
ATOM     13  C   UNL     1       6.494   3.541  12.265  0.00  0.00    +0.000 C 
ATOM     14  C   UNL     1       7.423   4.293  13.218  0.00  0.00    +0.000 C 
ATOM     15  C   UNL     1       8.037   5.514  12.525  0.00  0.00    +0.000 C 
ENDBRANCH   5  14
ENDBRANCH   1   8
BRANCH   3  16
ATOM     16  C   UNL     1       2.727   6.577  19.301  0.00  0.00    +0.000 C 
BRANCH  16  17
ATOM     17  C   UNL     1       2.061   7.912  19.178  0.00  0.00    +0.000 A 
ATOM     18  C   UNL     1       1.982   8.718  18.018  0.00  0.00    +0.000 A 
ATOM     19  C   UNL     1       1.272   9.831  18.396  0.00  0.00    +0.000 A 
ATOM     20  N   UNL     1       0.978   9.658  19.719  0.00  0.00    +0.000 N 
ATOM     21  N   UNL     1       1.465   8.505  20.225  0.00  0.00    +0.000 NA
BRANCH  20  22
ATOM     22  C   UNL     1       0.200  10.560  20.544  0.00  0.00    +0.000 C 
ATOM     23  C   UNL     1       0.914  11.871  20.867  0.00  0.00    +0.000 C 
ATOM     24  C   UNL     1      -0.203  12.783  21.356  0.00  0.00    +0.000 C 
ATOM     25  C   UNL     1      -1.473  12.310  20.648  0.00  0.00    +0.000 C 
ATOM     26  C   UNL     1      -1.110  11.023  19.910  0.00  0.00    +0.000 C 
ENDBRANCH  20  22
ENDBRANCH  16  17
ENDBRANCH   3  16
TORSDOF 5
ENDMDL
MODEL 8
REMARK VINA RESULT:      -7.4      4.669      9.535
REMARK  Name = 
REMARK  7 active torsions:
REMARK  status: ('A' for Active; 'I' for Inactive)
REMARK    1  A    between atoms: C_1  and  C_2
REMARK    2  A    between atoms: C_2  and  C_3
REMARK    3  A    between atoms: C_2  and  C_4
REMARK    4  A    between atoms: C_7  and  C_8
REMARK    5  A    between atoms: N_10  and  C_11
REMARK    6  A    between atoms: C_11  and  C_12
REMARK    7  A    between atoms: N_15  and  C_16
REMARK                            x       y       z     vdW  Elec       q    Type
REMARK                         _______ _______ _______ _____ _____    ______ ____
ROOT
ATOM      1  C   UNL     1      -0.278  10.559  19.103  0.00  0.00    +0.000 C 
ATOM      2  O   UNL     1       0.620  11.159  18.516  0.00  0.00    +0.000 OA
ATOM      3  N   UNL     1      -0.019   9.621  20.067  0.00  0.00    +0.000 N 
ATOM      4  H   UNL     1      -0.784   9.176  20.574  0.00  0.00    +0.000 HD
ENDROOT
BRANCH   1   8
ATOM      5  C   UNL     1      -4.400  11.165  17.947  0.00  0.00    +0.000 A 
ATOM      6  C   UNL     1      -3.705  10.082  17.570  0.00  0.00    +0.000 A 
ATOM      7  C   UNL     1      -2.335   9.914  17.991  0.00  0.00    +0.000 A 
ATOM      8  C   UNL     1      -1.708  10.816  18.777  0.00  0.00    +0.000 A 
ATOM      9  C   UNL     1      -2.496  11.996  19.241  0.00  0.00    +0.000 A 
ATOM     10  O   UNL     1      -2.026  12.852  19.982  0.00  0.00    +0.000 OA
ATOM     11  N   UNL     1      -3.793  12.082  18.782  0.00  0.00    +0.000 N 
ATOM     12  H   UNL     1      -4.309  12.898  19.095  0.00  0.00    +0.000 HD
BRANCH   5  14
ATOM     13  C   UNL     1      -6.831  10.887  18.505  0.00  0.00    +0.000 C 
ATOM     14  C   UNL     1      -5.823  11.431  17.492  0.00  0.00    +0.000 C 
ATOM     15  C   UNL     1      -6.055  12.925  17.246  0.00  0.00    +0.000 C 
ENDBRANCH   5  14
ENDBRANCH   1   8
BRANCH   3  16
ATOM     16  C   UNL     1       1.342   9.303  20.447  0.00  0.00    +0.000 C 
BRANCH  16  17
ATOM     17  C   UNL     1       1.813   8.068  19.744  0.00  0.00    +0.000 A 
ATOM     18  C   UNL     1       2.424   7.996  18.470  0.00  0.00    +0.000 A 
ATOM     19  C   UNL     1       2.681   6.663  18.265  0.00  0.00    +0.000 A 
ATOM     20  N   UNL     1       2.221   6.015  19.377  0.00  0.00    +0.000 N 
ATOM     21  N   UNL     1       1.667   6.847  20.285  0.00  0.00    +0.000 NA
BRANCH  20  22
ATOM     22  C   UNL     1       2.313   4.592  19.633  0.00  0.00    +0.000 C 
ATOM     23  C   UNL     1       1.603   4.148  20.910  0.00  0.00    +0.000 C 
ATOM     24  C   UNL     1       1.477   2.639  20.750  0.00  0.00    +0.000 C 
ATOM     25  C   UNL     1       1.403   2.380  19.246  0.00  0.00    +0.000 C 
ATOM     26  C   UNL     1       1.675   3.716  18.556  0.00  0.00    +0.000 C 
ENDBRANCH  20  22
ENDBRANCH  16  17
ENDBRANCH   3  16
TORSDOF 5
ENDMDL
MODEL 9
REMARK VINA RESULT:      -7.3      4.509      9.285
REMARK  Name = 
REMARK  7 active torsions:
REMARK  status: ('A' for Active; 'I' for Inactive)
REMARK    1  A    between atoms: C_1  and  C_2
REMARK    2  A    between atoms: C_2  and  C_3
REMARK    3  A    between atoms: C_2  and  C_4
REMARK    4  A    between atoms: C_7  and  C_8
REMARK    5  A    between atoms: N_10  and  C_11
REMARK    6  A    between atoms: C_11  and  C_12
REMARK    7  A    between atoms: N_15  and  C_16
REMARK                            x       y       z     vdW  Elec       q    Type
REMARK                         _______ _______ _______ _____ _____    ______ ____
ROOT
ATOM      1  C   UNL     1      -0.009  10.470  18.944  0.00  0.00    +0.000 C 
ATOM      2  O   UNL     1       0.470  10.752  20.040  0.00  0.00    +0.000 OA
ATOM      3  N   UNL     1       0.747   9.937  17.934  0.00  0.00    +0.000 N 
ATOM      4  H   UNL     1       0.314   9.664  17.052  0.00  0.00    +0.000 HD
ENDROOT
BRANCH   1   8
ATOM      5  C   UNL     1      -4.168  11.023  17.899  0.00  0.00    +0.000 A 
ATOM      6  C   UNL     1      -3.491   9.913  17.572  0.00  0.00    +0.000 A 
ATOM      7  C   UNL     1      -2.108   9.764  17.953  0.00  0.00    +0.000 A 
ATOM      8  C   UNL     1      -1.449  10.713  18.653  0.00  0.00    +0.000 A 
ATOM      9  C   UNL     1      -2.215  11.927  19.064  0.00  0.00    +0.000 A 
ATOM     10  O   UNL     1      -1.715  12.828  19.729  0.00  0.00    +0.000 OA
ATOM     11  N   UNL     1      -3.528  11.990  18.648  0.00  0.00    +0.000 N 
ATOM     12  H   UNL     1      -4.028  12.829  18.923  0.00  0.00    +0.000 HD
BRANCH   5  14
ATOM     13  C   UNL     1      -6.580  10.739  18.533  0.00  0.00    +0.000 C 
ATOM     14  C   UNL     1      -5.605  11.267  17.479  0.00  0.00    +0.000 C 
ATOM     15  C   UNL     1      -5.858  12.754  17.206  0.00  0.00    +0.000 C 
ENDBRANCH   5  14
ENDBRANCH   1   8
BRANCH   3  16
ATOM     16  C   UNL     1       2.157   9.669  18.124  0.00  0.00    +0.000 C 
BRANCH  16  17
ATOM     17  C   UNL     1       2.397   8.204  18.313  0.00  0.00    +0.000 A 
ATOM     18  C   UNL     1       2.976   7.309  17.382  0.00  0.00    +0.000 A 
ATOM     19  C   UNL     1       2.992   6.089  18.011  0.00  0.00    +0.000 A 
ATOM     20  N   UNL     1       2.432   6.292  19.241  0.00  0.00    +0.000 N 
ATOM     21  N   UNL     1       2.041   7.569  19.442  0.00  0.00    +0.000 NA
BRANCH  20  22
ATOM     22  C   UNL     1       2.272   5.294  20.280  0.00  0.00    +0.000 C 
ATOM     23  C   UNL     1       0.961   4.515  20.191  0.00  0.00    +0.000 C 
ATOM     24  C   UNL     1       1.199   3.301  21.078  0.00  0.00    +0.000 C 
ATOM     25  C   UNL     1       2.702   3.029  21.025  0.00  0.00    +0.000 C 
ATOM     26  C   UNL     1       3.333   4.195  20.265  0.00  0.00    +0.000 C 
ENDBRANCH  20  22
ENDBRANCH  16  17
ENDBRANCH   3  16
TORSDOF 5
ENDMDL
