MODEL 1
REMARK VINA RESULT:      -7.5      0.000      0.000
REMARK  Name = 
REMARK  8 active torsions:
REMARK  status: ('A' for Active; 'I' for Inactive)
REMARK    1  A    between atoms: C_1  and  C_2
REMARK    2  A    between atoms: C_2  and  C_3
REMARK    3  A    between atoms: C_3  and  C_4
REMARK    4  A    between atoms: C_4  and  C_5
REMARK    5  A    between atoms: C_5  and  C_6
REMARK    6  A    between atoms: C_6  and  C_7
REMARK    7  A    between atoms: C_7  and  C_8
REMARK    8  A    between atoms: C_12  and  N_13
REMARK                            x       y       z     vdW  Elec       q    Type
REMARK                         _______ _______ _______ _____ _____    ______ ____
ROOT
ATOM      1  C   UNL     1       5.023   5.421  16.271  0.00  0.00    +0.000 A 
ATOM      2  C   UNL     1       4.796   6.769  16.514  0.00  0.00    +0.000 A 
ATOM      3  C   UNL     1       3.871   7.113  17.486  0.00  0.00    +0.000 A 
ATOM      4  C   UNL     1       3.218   6.107  18.180  0.00  0.00    +0.000 A 
ATOM      5  C   UNL     1       3.478   4.763  17.897  0.00  0.00    +0.000 A 
ATOM      6  N   UNL     1       4.390   4.441  16.953  0.00  0.00    +0.000 NA
ENDROOT
BRANCH   5   7
ATOM      7  N   UNL     1       2.799   3.766  18.544  0.00  0.00    +0.000 N 
ATOM      8  C   UNL     1       3.430   2.506  18.907  0.00  0.00    +0.000 C 
ATOM      9  C   UNL     1       3.822   2.490  20.377  0.00  0.00    +0.000 C 
ATOM     10  C   UNL     1       2.728   2.816  21.396  0.00  0.00    +0.000 C 
ATOM     11  N   UNL     1       1.338   2.677  20.956  0.00  0.00    +0.000 NA
ATOM     12  C   UNL     1       0.917   3.862  20.170  0.00  0.00    +0.000 C 
ATOM     13  C   UNL     1       1.347   3.859  18.688  0.00  0.00    +0.000 C 
ATOM     14  H   UNL     1       0.752   2.647  21.792  0.00  0.00    +0.000 HD
ENDBRANCH   5   7
BRANCH   1  15
ATOM     15  C   UNL     1       6.007   5.010  15.207  0.00  0.00    +0.000 C 
BRANCH  15  16
ATOM     16  C   UNL     1       5.328   4.170  14.126  0.00  0.00    +0.000 C 
BRANCH  16  17
ATOM     17  C   UNL     1       6.359   3.517  13.208  0.00  0.00    +0.000 C 
BRANCH  17  18
ATOM     18  C   UNL     1       5.766   3.255  11.824  0.00  0.00    +0.000 C 
BRANCH  18  19
ATOM     19  C   UNL     1       4.305   3.694  11.761  0.00  0.00    +0.000 C 
BRANCH  19  21
ATOM     20  C   UNL     1       2.947   4.085   9.683  0.00  0.00    +0.000 C 
ATOM     21  C   UNL     1       3.586   3.039  10.583  0.00  0.00    +0.000 C 
ENDBRANCH  19  21
ENDBRANCH  18  19
ENDBRANCH  17  18
ENDBRANCH  16  17
ENDBRANCH  15  16
ENDBRANCH   1  15
TORSDOF 7
ENDMDL
MODEL 2
REMARK VINA RESULT:      -7.4      1.353      1.875
REMARK  Name = 
REMARK  8 active torsions:
REMARK  status: ('A' for Active; 'I' for Inactive)
REMARK    1  A    between atoms: C_1  and  C_2
REMARK    2  A    between atoms: C_2  and  C_3
REMARK    3  A    between atoms: C_3  and  C_4
REMARK    4  A    between atoms: C_4  and  C_5
REMARK    5  A    between atoms: C_5  and  C_6
REMARK    6  A    between atoms: C_6  and  C_7
REMARK    7  A    between atoms: C_7  and  C_8
REMARK    8  A    between atoms: C_12  and  N_13
REMARK                            x       y       z     vdW  Elec       q    Type
REMARK                         _______ _______ _______ _____ _____    ______ ____
ROOT
ATOM      1  C   UNL     1       5.476   5.614  16.707  0.00  0.00    +0.000 A 
ATOM      2  C   UNL     1       6.605   5.658  17.513  0.00  0.00    +0.000 A 
ATOM      3  C   UNL     1       6.451   5.429  18.871  0.00  0.00    +0.000 A 
ATOM      4  C   UNL     1       5.187   5.157  19.368  0.00  0.00    +0.000 A 
ATOM      5  C   UNL     1       4.078   5.127  18.516  0.00  0.00    +0.000 A 
ATOM      6  N   UNL     1       4.244   5.343  17.192  0.00  0.00    +0.000 NA
ENDROOT
BRANCH   5   7
ATOM      7  N   UNL     1       2.820   4.910  19.011  0.00  0.00    +0.000 N 
ATOM      8  C   UNL     1       1.697   4.571  18.151  0.00  0.00    +0.000 C 
ATOM      9  C   UNL     1       1.410   3.077  18.182  0.00  0.00    +0.000 C 
ATOM     10  C   UNL     1       1.204   2.435  19.556  0.00  0.00    +0.000 C 
ATOM     11  N   UNL     1       0.853   3.322  20.667  0.00  0.00    +0.000 NA
ATOM     12  C   UNL     1       2.060   3.998  21.198  0.00  0.00    +0.000 C 
ATOM     13  C   UNL     1       2.528   5.236  20.405  0.00  0.00    +0.000 C 
ATOM     14  H   UNL     1       0.478   2.741  21.418  0.00  0.00    +0.000 HD
ENDBRANCH   5   7
BRANCH   1  15
ATOM     15  C   UNL     1       5.602   5.879  15.230  0.00  0.00    +0.000 C 
BRANCH  15  16
ATOM     16  C   UNL     1       6.515   4.851  14.562  0.00  0.00    +0.000 C 
BRANCH  16  17
ATOM     17  C   UNL     1       5.703   3.808  13.798  0.00  0.00    +0.000 C 
BRANCH  17  18
ATOM     18  C   UNL     1       6.429   3.381  12.524  0.00  0.00    +0.000 C 
BRANCH  18  19
ATOM     19  C   UNL     1       5.453   2.803  11.503  0.00  0.00    +0.000 C 
BRANCH  19  21
ATOM     20  C   UNL     1       3.329   3.424  10.312  0.00  0.00    +0.000 C 
ATOM     21  C   UNL     1       4.073   3.443  11.638  0.00  0.00    +0.000 C 
ENDBRANCH  19  21
ENDBRANCH  18  19
ENDBRANCH  17  18
ENDBRANCH  16  17
ENDBRANCH  15  16
ENDBRANCH   1  15
TORSDOF 7
ENDMDL
MODEL 3
REMARK VINA RESULT:      -7.3      0.813      1.318
REMARK  Name = 
REMARK  8 active torsions:
REMARK  status: ('A' for Active; 'I' for Inactive)
REMARK    1  A    between atoms: C_1  and  C_2
REMARK    2  A    between atoms: C_2  and  C_3
REMARK    3  A    between atoms: C_3  and  C_4
REMARK    4  A    between atoms: C_4  and  C_5
REMARK    5  A    between atoms: C_5  and  C_6
REMARK    6  A    between atoms: C_6  and  C_7
REMARK    7  A    between atoms: C_7  and  C_8
REMARK    8  A    between atoms: C_12  and  N_13
REMARK                            x       y       z     vdW  Elec       q    Type
REMARK                         _______ _______ _______ _____ _____    ______ ____
ROOT
ATOM      1  C   UNL     1       5.664   5.474  17.333  0.00  0.00    +0.000 A 
ATOM      2  C   UNL     1       5.217   6.767  17.097  0.00  0.00    +0.000 A 
ATOM      3  C   UNL     1       3.926   7.095  17.477  0.00  0.00    +0.000 A 
ATOM      4  C   UNL     1       3.138   6.130  18.084  0.00  0.00    +0.000 A 
ATOM      5  C   UNL     1       3.632   4.839  18.297  0.00  0.00    +0.000 A 
ATOM      6  N   UNL     1       4.896   4.535  17.929  0.00  0.00    +0.000 NA
ENDROOT
BRANCH   5   7
ATOM      7  N   UNL     1       2.839   3.868  18.849  0.00  0.00    +0.000 N 
ATOM      8  C   UNL     1       3.366   2.573  19.249  0.00  0.00    +0.000 C 
ATOM      9  C   UNL     1       3.601   2.513  20.751  0.00  0.00    +0.000 C 
ATOM     10  C   UNL     1       2.422   2.878  21.657  0.00  0.00    +0.000 C 
ATOM     11  N   UNL     1       1.081   2.818  21.072  0.00  0.00    +0.000 NA
ATOM     12  C   UNL     1       0.804   4.034  20.271  0.00  0.00    +0.000 C 
ATOM     13  C   UNL     1       1.387   4.034  18.843  0.00  0.00    +0.000 C 
ATOM     14  H   UNL     1       0.410   2.804  21.841  0.00  0.00    +0.000 HD
ENDBRANCH   5   7
BRANCH   1  15
ATOM     15  C   UNL     1       7.054   5.077  16.913  0.00  0.00    +0.000 C 
BRANCH  15  16
ATOM     16  C   UNL     1       7.128   4.843  15.405  0.00  0.00    +0.000 C 
BRANCH  16  17
ATOM     17  C   UNL     1       6.202   3.706  14.977  0.00  0.00    +0.000 C 
BRANCH  17  18
ATOM     18  C   UNL     1       5.504   4.039  13.660  0.00  0.00    +0.000 C 
BRANCH  18  19
ATOM     19  C   UNL     1       6.303   3.520  12.468  0.00  0.00    +0.000 C 
BRANCH  19  21
ATOM     20  C   UNL     1       4.122   3.226  11.256  0.00  0.00    +0.000 C 
ATOM     21  C   UNL     1       5.457   2.588  11.603  0.00  0.00    +0.000 C 
ENDBRANCH  19  21
ENDBRANCH  18  19
ENDBRANCH  17  18
ENDBRANCH  16  17
ENDBRANCH  15  16
ENDBRANCH   1  15
TORSDOF 7
ENDMDL
MODEL 4
REMARK VINA RESULT:      -7.2      1.126      1.425
REMARK  Name = 
REMARK  8 active torsions:
REMARK  status: ('A' for Active; 'I' for Inactive)
REMARK    1  A    between atoms: C_1  and  C_2
REMARK    2  A    between atoms: C_2  and  C_3
REMARK    3  A    between atoms: C_3  and  C_4
REMARK    4  A    between atoms: C_4  and  C_5
REMARK    5  A    between atoms: C_5  and  C_6
REMARK    6  A    between atoms: C_6  and  C_7
REMARK    7  A    between atoms: C_7  and  C_8
REMARK    8  A    between atoms: C_12  and  N_13
REMARK                            x       y       z     vdW  Elec       q    Type
REMARK                         _______ _______ _______ _____ _____    ______ ____
ROOT
ATOM      1  C   UNL     1       5.192   4.741  16.148  0.00  0.00    +0.000 A 
ATOM      2  C   UNL     1       5.807   5.981  16.263  0.00  0.00    +0.000 A 
ATOM      3  C   UNL     1       5.283   6.891  17.167  0.00  0.00    +0.000 A 
ATOM      4  C   UNL     1       4.179   6.530  17.922  0.00  0.00    +0.000 A 
ATOM      5  C   UNL     1       3.593   5.270  17.768  0.00  0.00    +0.000 A 
ATOM      6  N   UNL     1       4.119   4.388  16.890  0.00  0.00    +0.000 NA
ENDROOT
BRANCH   5   7
ATOM      7  N   UNL     1       2.472   4.928  18.476  0.00  0.00    +0.000 N 
ATOM      8  C   UNL     1       1.434   4.074  17.919  0.00  0.00    +0.000 C 
ATOM      9  C   UNL     1       1.564   2.645  18.425  0.00  0.00    +0.000 C 
ATOM     10  C   UNL     1       1.621   2.445  19.941  0.00  0.00    +0.000 C 
ATOM     11  N   UNL     1       1.108   3.529  20.782  0.00  0.00    +0.000 NA
ATOM     12  C   UNL     1       2.117   4.606  20.918  0.00  0.00    +0.000 C 
ATOM     13  C   UNL     1       2.184   5.602  19.741  0.00  0.00    +0.000 C 
ATOM     14  H   UNL     1       0.950   3.145  21.715  0.00  0.00    +0.000 HD
ENDBRANCH   5   7
BRANCH   1  15
ATOM     15  C   UNL     1       5.721   3.735  15.160  0.00  0.00    +0.000 C 
BRANCH  15  16
ATOM     16  C   UNL     1       6.752   4.368  14.227  0.00  0.00    +0.000 C 
BRANCH  16  17
ATOM     17  C   UNL     1       6.578   3.870  12.794  0.00  0.00    +0.000 C 
BRANCH  17  18
ATOM     18  C   UNL     1       5.214   3.206  12.611  0.00  0.00    +0.000 C 
BRANCH  18  19
ATOM     19  C   UNL     1       4.328   4.022  11.673  0.00  0.00    +0.000 C 
BRANCH  19  21
ATOM     20  C   UNL     1       2.966   3.930   9.563  0.00  0.00    +0.000 C 
ATOM     21  C   UNL     1       3.600   3.117  10.680  0.00  0.00    +0.000 C 
ENDBRANCH  19  21
ENDBRANCH  18  19
ENDBRANCH  17  18
ENDBRANCH  16  17
ENDBRANCH  15  16
ENDBRANCH   1  15
TORSDOF 7
ENDMDL
MODEL 5
REMARK VINA RESULT:      -7.1      1.378      1.636
REMARK  Name = 
REMARK  8 active torsions:
REMARK  status: ('A' for Active; 'I' for Inactive)
REMARK    1  A    between atoms: C_1  and  C_2
REMARK    2  A    between atoms: C_2  and  C_3
REMARK    3  A    between atoms: C_3  and  C_4
REMARK    4  A    between atoms: C_4  and  C_5
REMARK    5  A    between atoms: C_5  and  C_6
REMARK    6  A    between atoms: C_6  and  C_7
REMARK    7  A    between atoms: C_7  and  C_8
REMARK    8  A    between atoms: C_12  and  N_13
REMARK                            x       y       z     vdW  Elec       q    Type
REMARK                         _______ _______ _______ _____ _____    ______ ____
ROOT
ATOM      1  C   UNL     1       5.426   4.747  16.518  0.00  0.00    +0.000 A 
ATOM      2  C   UNL     1       5.258   6.125  16.504  0.00  0.00    +0.000 A 
ATOM      3  C   UNL     1       4.225   6.667  17.250  0.00  0.00    +0.000 A 
ATOM      4  C   UNL     1       3.411   5.821  17.986  0.00  0.00    +0.000 A 
ATOM      5  C   UNL     1       3.618   4.439  17.967  0.00  0.00    +0.000 A 
ATOM      6  N   UNL     1       4.635   3.923  17.241  0.00  0.00    +0.000 NA
ENDROOT
BRANCH   5   7
ATOM      7  N   UNL     1       2.785   3.595  18.651  0.00  0.00    +0.000 N 
ATOM      8  C   UNL     1       3.240   2.321  19.185  0.00  0.00    +0.000 C 
ATOM      9  C   UNL     1       3.524   2.419  20.677  0.00  0.00    +0.000 C 
ATOM     10  C   UNL     1       2.407   2.967  21.567  0.00  0.00    +0.000 C 
ATOM     11  N   UNL     1       1.044   2.933  21.031  0.00  0.00    +0.000 NA
ATOM     12  C   UNL     1       0.818   4.065  20.102  0.00  0.00    +0.000 C 
ATOM     13  C   UNL     1       1.347   3.859  18.667  0.00  0.00    +0.000 C 
ATOM     14  H   UNL     1       0.402   3.055  21.816  0.00  0.00    +0.000 HD
ENDBRANCH   5   7
BRANCH   1  15
ATOM     15  C   UNL     1       6.525   4.121  15.701  0.00  0.00    +0.000 C 
BRANCH  15  16
ATOM     16  C   UNL     1       6.079   3.898  14.257  0.00  0.00    +0.000 C 
BRANCH  16  17
ATOM     17  C   UNL     1       6.998   4.625  13.277  0.00  0.00    +0.000 C 
BRANCH  17  18
ATOM     18  C   UNL     1       6.959   3.962  11.902  0.00  0.00    +0.000 C 
BRANCH  18  19
ATOM     19  C   UNL     1       6.183   2.649  11.946  0.00  0.00    +0.000 C 
BRANCH  19  21
ATOM     20  C   UNL     1       6.143   0.248  11.205  0.00  0.00    +0.000 C 
ATOM     21  C   UNL     1       6.844   1.589  11.066  0.00  0.00    +0.000 C 
ENDBRANCH  19  21
ENDBRANCH  18  19
ENDBRANCH  17  18
ENDBRANCH  16  17
ENDBRANCH  15  16
ENDBRANCH   1  15
TORSDOF 7
ENDMDL
MODEL 6
REMARK VINA RESULT:      -7.1      0.908      1.522
REMARK  Name = 
REMARK  8 active torsions:
REMARK  status: ('A' for Active; 'I' for Inactive)
REMARK    1  A    between atoms: C_1  and  C_2
REMARK    2  A    between atoms: C_2  and  C_3
REMARK    3  A    between atoms: C_3  and  C_4
REMARK    4  A    between atoms: C_4  and  C_5
REMARK    5  A    between atoms: C_5  and  C_6
REMARK    6  A    between atoms: C_6  and  C_7
REMARK    7  A    between atoms: C_7  and  C_8
REMARK    8  A    between atoms: C_12  and  N_13
REMARK                            x       y       z     vdW  Elec       q    Type
REMARK                         _______ _______ _______ _____ _____    ______ ____
ROOT
ATOM      1  C   UNL     1       5.414   5.121  16.182  0.00  0.00    +0.000 A 
ATOM      2  C   UNL     1       5.117   6.464  15.996  0.00  0.00    +0.000 A 
ATOM      3  C   UNL     1       4.290   7.086  16.917  0.00  0.00    +0.000 A 
ATOM      4  C   UNL     1       3.802   6.352  17.987  0.00  0.00    +0.000 A 
ATOM      5  C   UNL     1       4.127   5.000  18.129  0.00  0.00    +0.000 A 
ATOM      6  N   UNL     1       4.942   4.408  17.228  0.00  0.00    +0.000 NA
ENDROOT
BRANCH   5   7
ATOM      7  N   UNL     1       3.606   4.258  19.155  0.00  0.00    +0.000 N 
ATOM      8  C   UNL     1       3.037   4.872  20.344  0.00  0.00    +0.000 C 
ATOM      9  C   UNL     1       1.516   4.900  20.276  0.00  0.00    +0.000 C 
ATOM     10  C   UNL     1       0.806   3.572  20.005  0.00  0.00    +0.000 C 
ATOM     11  N   UNL     1       1.554   2.342  20.274  0.00  0.00    +0.000 NA
ATOM     12  C   UNL     1       2.481   2.039  19.157  0.00  0.00    +0.000 C 
ATOM     13  C   UNL     1       3.816   2.812  19.177  0.00  0.00    +0.000 C 
ATOM     14  H   UNL     1       0.880   1.576  20.323  0.00  0.00    +0.000 HD
ENDBRANCH   5   7
BRANCH   1  15
ATOM     15  C   UNL     1       6.293   4.407  15.188  0.00  0.00    +0.000 C 
BRANCH  15  16
ATOM     16  C   UNL     1       5.824   4.661  13.757  0.00  0.00    +0.000 C 
BRANCH  16  17
ATOM     17  C   UNL     1       6.332   3.577  12.809  0.00  0.00    +0.000 C 
BRANCH  17  18
ATOM     18  C   UNL     1       5.175   2.933  12.048  0.00  0.00    +0.000 C 
BRANCH  18  19
ATOM     19  C   UNL     1       4.433   3.964  11.202  0.00  0.00    +0.000 C 
BRANCH  19  21
ATOM     20  C   UNL     1       2.670   4.307   9.444  0.00  0.00    +0.000 C 
ATOM     21  C   UNL     1       3.314   3.310  10.393  0.00  0.00    +0.000 C 
ENDBRANCH  19  21
ENDBRANCH  18  19
ENDBRANCH  17  18
ENDBRANCH  16  17
ENDBRANCH  15  16
ENDBRANCH   1  15
TORSDOF 7
ENDMDL
MODEL 7
REMARK VINA RESULT:      -7.1      1.717      2.338
REMARK  Name = 
REMARK  8 active torsions:
REMARK  status: ('A' for Active; 'I' for Inactive)
REMARK    1  A    between atoms: C_1  and  C_2
REMARK    2  A    between atoms: C_2  and  C_3
REMARK    3  A    between atoms: C_3  and  C_4
REMARK    4  A    between atoms: C_4  and  C_5
REMARK    5  A    between atoms: C_5  and  C_6
REMARK    6  A    between atoms: C_6  and  C_7
REMARK    7  A    between atoms: C_7  and  C_8
REMARK    8  A    between atoms: C_12  and  N_13
REMARK                            x       y       z     vdW  Elec       q    Type
REMARK                         _______ _______ _______ _____ _____    ______ ____
ROOT
ATOM      1  C   UNL     1       6.340   5.105  16.596  0.00  0.00    +0.000 A 
ATOM      2  C   UNL     1       7.273   5.443  17.566  0.00  0.00    +0.000 A 
ATOM      3  C   UNL     1       6.855   5.506  18.885  0.00  0.00    +0.000 A 
ATOM      4  C   UNL     1       5.532   5.223  19.186  0.00  0.00    +0.000 A 
ATOM      5  C   UNL     1       4.628   4.889  18.173  0.00  0.00    +0.000 A 
ATOM      6  N   UNL     1       5.051   4.823  16.891  0.00  0.00    +0.000 NA
ENDROOT
BRANCH   5   7
ATOM      7  N   UNL     1       3.309   4.659  18.459  0.00  0.00    +0.000 N 
ATOM      8  C   UNL     1       2.439   3.918  17.559  0.00  0.00    +0.000 C 
ATOM      9  C   UNL     1       2.260   2.480  18.026  0.00  0.00    +0.000 C 
ATOM     10  C   UNL     1       1.792   2.267  19.467  0.00  0.00    +0.000 C 
ATOM     11  N   UNL     1       1.135   3.393  20.134  0.00  0.00    +0.000 NA
ATOM     12  C   UNL     1       2.138   4.362  20.634  0.00  0.00    +0.000 C 
ATOM     13  C   UNL     1       2.684   5.352  19.584  0.00  0.00    +0.000 C 
ATOM     14  H   UNL     1       0.641   3.023  20.948  0.00  0.00    +0.000 HD
ENDBRANCH   5   7
BRANCH   1  15
ATOM     15  C   UNL     1       6.754   5.047  15.149  0.00  0.00    +0.000 C 
BRANCH  15  16
ATOM     16  C   UNL     1       6.258   3.763  14.486  0.00  0.00    +0.000 C 
BRANCH  16  17
ATOM     17  C   UNL     1       5.206   4.063  13.421  0.00  0.00    +0.000 C 
BRANCH  17  18
ATOM     18  C   UNL     1       5.475   3.260  12.149  0.00  0.00    +0.000 C 
BRANCH  18  19
ATOM     19  C   UNL     1       6.961   3.264  11.801  0.00  0.00    +0.000 C 
BRANCH  19  21
ATOM     20  C   UNL     1       6.232   0.960  11.111  0.00  0.00    +0.000 C 
ATOM     21  C   UNL     1       7.359   1.979  11.077  0.00  0.00    +0.000 C 
ENDBRANCH  19  21
ENDBRANCH  18  19
ENDBRANCH  17  18
ENDBRANCH  16  17
ENDBRANCH  15  16
ENDBRANCH   1  15
TORSDOF 7
ENDMDL
MODEL 8
REMARK VINA RESULT:      -7.0      2.994      6.288
REMARK  Name = 
REMARK  8 active torsions:
REMARK  status: ('A' for Active; 'I' for Inactive)
REMARK    1  A    between atoms: C_1  and  C_2
REMARK    2  A    between atoms: C_2  and  C_3
REMARK    3  A    between atoms: C_3  and  C_4
REMARK    4  A    between atoms: C_4  and  C_5
REMARK    5  A    between atoms: C_5  and  C_6
REMARK    6  A    between atoms: C_6  and  C_7
REMARK    7  A    between atoms: C_7  and  C_8
REMARK    8  A    between atoms: C_12  and  N_13
REMARK                            x       y       z     vdW  Elec       q    Type
REMARK                         _______ _______ _______ _____ _____    ______ ____
ROOT
ATOM      1  C   UNL     1       2.776   5.920  19.527  0.00  0.00    +0.000 A 
ATOM      2  C   UNL     1       2.015   7.065  19.333  0.00  0.00    +0.000 A 
ATOM      3  C   UNL     1       2.408   7.955  18.347  0.00  0.00    +0.000 A 
ATOM      4  C   UNL     1       3.532   7.667  17.590  0.00  0.00    +0.000 A 
ATOM      5  C   UNL     1       4.269   6.502  17.825  0.00  0.00    +0.000 A 
ATOM      6  N   UNL     1       3.869   5.638  18.784  0.00  0.00    +0.000 NA
ENDROOT
BRANCH   5   7
ATOM      7  N   UNL     1       5.409   6.238  17.114  0.00  0.00    +0.000 N 
ATOM      8  C   UNL     1       6.679   6.877  17.422  0.00  0.00    +0.000 C 
ATOM      9  C   UNL     1       7.581   5.952  18.226  0.00  0.00    +0.000 C 
ATOM     10  C   UNL     1       7.845   4.560  17.648  0.00  0.00    +0.000 C 
ATOM     11  N   UNL     1       7.609   4.371  16.215  0.00  0.00    +0.000 NA
ATOM     12  C   UNL     1       6.165   4.176  15.945  0.00  0.00    +0.000 C 
ATOM     13  C   UNL     1       5.324   5.468  15.875  0.00  0.00    +0.000 C 
ATOM     14  H   UNL     1       8.086   3.512  15.936  0.00  0.00    +0.000 HD
ENDBRANCH   5   7
BRANCH   1  15
ATOM     15  C   UNL     1       2.391   4.941  20.604  0.00  0.00    +0.000 C 
BRANCH  15  16
ATOM     16  C   UNL     1       0.891   4.649  20.571  0.00  0.00    +0.000 C 
BRANCH  16  17
ATOM     17  C   UNL     1       0.613   3.254  20.015  0.00  0.00    +0.000 C 
BRANCH  17  18
ATOM     18  C   UNL     1       1.889   2.414  19.991  0.00  0.00    +0.000 C 
BRANCH  18  19
ATOM     19  C   UNL     1       2.224   1.965  18.571  0.00  0.00    +0.000 C 
BRANCH  19  21
ATOM     20  C   UNL     1       4.483   2.132  19.660  0.00  0.00    +0.000 C 
ATOM     21  C   UNL     1       3.735   1.904  18.356  0.00  0.00    +0.000 C 
ENDBRANCH  19  21
ENDBRANCH  18  19
ENDBRANCH  17  18
ENDBRANCH  16  17
ENDBRANCH  15  16
ENDBRANCH   1  15
TORSDOF 7
ENDMDL
MODEL 9
REMARK VINA RESULT:      -7.0      1.457      2.184
REMARK  Name = 
REMARK  8 active torsions:
REMARK  status: ('A' for Active; 'I' for Inactive)
REMARK    1  A    between atoms: C_1  and  C_2
REMARK    2  A    between atoms: C_2  and  C_3
REMARK    3  A    between atoms: C_3  and  C_4
REMARK    4  A    between atoms: C_4  and  C_5
REMARK    5  A    between atoms: C_5  and  C_6
REMARK    6  A    between atoms: C_6  and  C_7
REMARK    7  A    between atoms: C_7  and  C_8
REMARK    8  A    between atoms: C_12  and  N_13
REMARK                            x       y       z     vdW  Elec       q    Type
REMARK                         _______ _______ _______ _____ _____    ______ ____
ROOT
ATOM      1  C   UNL     1       5.882   4.802  15.945  0.00  0.00    +0.000 A 
ATOM      2  C   UNL     1       7.017   5.479  16.369  0.00  0.00    +0.000 A 
ATOM      3  C   UNL     1       7.219   5.634  17.730  0.00  0.00    +0.000 A 
ATOM      4  C   UNL     1       6.290   5.103  18.612  0.00  0.00    +0.000 A 
ATOM      5  C   UNL     1       5.160   4.432  18.137  0.00  0.00    +0.000 A 
ATOM      6  N   UNL     1       4.980   4.281  16.806  0.00  0.00    +0.000 NA
ENDROOT
BRANCH   5   7
ATOM      7  N   UNL     1       4.214   3.951  19.003  0.00  0.00    +0.000 N 
ATOM      8  C   UNL     1       3.260   4.822  19.670  0.00  0.00    +0.000 C 
ATOM      9  C   UNL     1       1.904   4.786  18.979  0.00  0.00    +0.000 C 
ATOM     10  C   UNL     1       1.267   3.411  18.765  0.00  0.00    +0.000 C 
ATOM     11  N   UNL     1       1.749   2.309  19.601  0.00  0.00    +0.000 NA
ATOM     12  C   UNL     1       3.022   1.768  19.070  0.00  0.00    +0.000 C 
ATOM     13  C   UNL     1       4.289   2.562  19.452  0.00  0.00    +0.000 C 
ATOM     14  H   UNL     1       1.058   1.559  19.549  0.00  0.00    +0.000 HD
ENDBRANCH   5   7
BRANCH   1  15
ATOM     15  C   UNL     1       5.620   4.634  14.471  0.00  0.00    +0.000 C 
BRANCH  15  16
ATOM     16  C   UNL     1       6.925   4.465  13.696  0.00  0.00    +0.000 C 
BRANCH  16  17
ATOM     17  C   UNL     1       6.665   3.937  12.287  0.00  0.00    +0.000 C 
BRANCH  17  18
ATOM     18  C   UNL     1       5.865   2.637  12.333  0.00  0.00    +0.000 C 
BRANCH  18  19
ATOM     19  C   UNL     1       4.886   2.552  11.164  0.00  0.00    +0.000 C 
BRANCH  19  21
ATOM     20  C   UNL     1       3.117   3.820   9.908  0.00  0.00    +0.000 C 
ATOM     21  C   UNL     1       3.853   3.675  11.231  0.00  0.00    +0.000 C 
ENDBRANCH  19  21
ENDBRANCH  18  19
ENDBRANCH  17  18
ENDBRANCH  16  17
ENDBRANCH  15  16
ENDBRANCH   1  15
TORSDOF 7
ENDMDL
