MODEL 1
REMARK VINA RESULT:      -7.6      0.000      0.000
REMARK  Name = 
REMARK  18 active torsions:
REMARK  status: ('A' for Active; 'I' for Inactive)
REMARK    1  A    between atoms: C_1  and  C_2
REMARK    2  A    between atoms: C_4  and  C_5
REMARK    3  A    between atoms: C_5  and  C_6
REMARK    4  A    between atoms: C_6  and  C_7
REMARK    5  A    between atoms: C_7  and  C_9
REMARK    6  A    between atoms: C_12  and  C_13
REMARK    7  A    between atoms: C_13  and  C_14
REMARK    8  A    between atoms: C_14  and  C_15
REMARK    9  A    between atoms: C_14  and  C_16
REMARK   10  A    between atoms: C_19  and  C_20
REMARK   11  A    between atoms: C_21  and  O_22
REMARK   12  A    between atoms: O_22  and  C_23
REMARK   13  A    between atoms: C_23  and  C_24
REMARK   14  A    between atoms: C_24  and  O_25
REMARK   15  A    between atoms: C_24  and  C_26
REMARK   16  A    between atoms: C_26  and  N_27
REMARK   17  A    between atoms: C_28  and  C_30
REMARK   18  A    between atoms: C_30  and  O_31
REMARK                            x       y       z     vdW  Elec       q    Type
REMARK                         _______ _______ _______ _____ _____    ______ ____
ROOT
ATOM      1  C   UNL     1       3.843   7.073  17.458  0.00  0.00    +0.000 C 
ATOM      2  C   UNL     1       2.954   6.340  18.425  0.00  0.00    +0.000 A 
ATOM      3  C   UNL     1       2.438   7.113  19.487  0.00  0.00    +0.000 A 
ATOM      4  C   UNL     1       1.550   6.597  20.438  0.00  0.00    +0.000 A 
ATOM      5  C   UNL     1       1.172   5.260  20.326  0.00  0.00    +0.000 A 
ATOM      6  C   UNL     1       1.668   4.454  19.284  0.00  0.00    +0.000 A 
ATOM      7  C   UNL     1       1.215   3.018  19.200  0.00  0.00    +0.000 C 
ATOM      8  C   UNL     1       2.578   4.986  18.335  0.00  0.00    +0.000 A 
ENDROOT
BRANCH   4   9
ATOM      9  C   UNL     1       1.023   7.479  21.551  0.00  0.00    +0.000 C 
BRANCH   9  10
ATOM     10  C   UNL     1       1.646   8.872  21.499  0.00  0.00    +0.000 C 
BRANCH  10  11
ATOM     11  C   UNL     1       0.640  10.016  21.444  0.00  0.00    +0.000 C 
ATOM     12  O   UNL     1       0.368  10.671  22.445  0.00  0.00    +0.000 OA
BRANCH  11  13
ATOM     13  C   UNL     1       0.070  10.255  20.113  0.00  0.00    +0.000 A 
ATOM     14  C   UNL     1       0.521   9.783  18.892  0.00  0.00    +0.000 A 
ATOM     15  C   UNL     1      -0.235  10.283  17.798  0.00  0.00    +0.000 A 
ATOM     16  C   UNL     1      -1.300  11.058  18.212  0.00  0.00    +0.000 A 
ATOM     17  S   UNL     1      -1.323  11.226  19.919  0.00  0.00    +0.000 S 
BRANCH  16  18
ATOM     18  C   UNL     1      -2.357  11.712  17.364  0.00  0.00    +0.000 C 
BRANCH  18  19
ATOM     19  C   UNL     1      -3.314  10.698  16.703  0.00  0.00    +0.000 C 
ATOM     20  C   UNL     1      -2.817  10.231  15.332  0.00  0.00    +0.000 C 
ATOM     21  C   UNL     1      -3.504   9.479  17.610  0.00  0.00    +0.000 C 
ENDBRANCH  18  19
ENDBRANCH  16  18
ENDBRANCH  11  13
ENDBRANCH  10  11
ENDBRANCH   9  10
ENDBRANCH   4   9
BRANCH   8  22
ATOM     22  O   UNL     1       2.952   4.081  17.372  0.00  0.00    +0.000 OA
BRANCH  22  23
ATOM     23  C   UNL     1       4.035   3.187  17.643  0.00  0.00    +0.000 C 
BRANCH  23  24
ATOM     24  C   UNL     1       4.930   3.777  18.746  0.00  0.00    +0.000 C 
BRANCH  24  25
ATOM     25  O   UNL     1       5.293   2.760  19.696  0.00  0.00    +0.000 OA
ATOM     26  H   UNL     1       5.285   1.912  19.213  0.00  0.00    +0.000 HD
ENDBRANCH  24  25
BRANCH  24  27
ATOM     27  C   UNL     1       6.200   4.409  18.167  0.00  0.00    +0.000 C 
BRANCH  27  28
ATOM     28  N   UNL     1       6.320   4.169  16.739  0.00  0.00    +0.000 N 
ATOM     29  C   UNL     1       6.891   5.100  15.901  0.00  0.00    +0.000 C 
ATOM     30  O   UNL     1       7.404   6.148  16.291  0.00  0.00    +0.000 OA
ATOM     31  H   UNL     1       5.759   3.417  16.351  0.00  0.00    +0.000 HD
BRANCH  29  32
ATOM     32  C   UNL     1       6.865   4.731  14.420  0.00  0.00    +0.000 C 
BRANCH  32  33
ATOM     33  O   UNL     1       6.269   3.460  14.205  0.00  0.00    +0.000 OA
ATOM     34  H   UNL     1       6.979   2.804  14.353  0.00  0.00    +0.000 HD
ENDBRANCH  32  33
ENDBRANCH  29  32
ENDBRANCH  27  28
ENDBRANCH  24  27
ENDBRANCH  23  24
ENDBRANCH  22  23
ENDBRANCH   8  22
TORSDOF 14
ENDMDL
MODEL 2
REMARK VINA RESULT:      -7.3      3.873      9.200
REMARK  Name = 
REMARK  18 active torsions:
REMARK  status: ('A' for Active; 'I' for Inactive)
REMARK    1  A    between atoms: C_1  and  C_2
REMARK    2  A    between atoms: C_4  and  C_5
REMARK    3  A    between atoms: C_5  and  C_6
REMARK    4  A    between atoms: C_6  and  C_7
REMARK    5  A    between atoms: C_7  and  C_9
REMARK    6  A    between atoms: C_12  and  C_13
REMARK    7  A    between atoms: C_13  and  C_14
REMARK    8  A    between atoms: C_14  and  C_15
REMARK    9  A    between atoms: C_14  and  C_16
REMARK   10  A    between atoms: C_19  and  C_20
REMARK   11  A    between atoms: C_21  and  O_22
REMARK   12  A    between atoms: O_22  and  C_23
REMARK   13  A    between atoms: C_23  and  C_24
REMARK   14  A    between atoms: C_24  and  O_25
REMARK   15  A    between atoms: C_24  and  C_26
REMARK   16  A    between atoms: C_26  and  N_27
REMARK   17  A    between atoms: C_28  and  C_30
REMARK   18  A    between atoms: C_30  and  O_31
REMARK                            x       y       z     vdW  Elec       q    Type
REMARK                         _______ _______ _______ _____ _____    ______ ____
ROOT
ATOM      1  C   UNL     1       2.353   9.042  17.667  0.00  0.00    +0.000 C 
ATOM      2  C   UNL     1       1.762   8.616  18.984  0.00  0.00    +0.000 A 
ATOM      3  C   UNL     1       2.017   7.281  19.362  0.00  0.00    +0.000 A 
ATOM      4  C   UNL     1       1.588   6.744  20.582  0.00  0.00    +0.000 A 
ATOM      5  C   UNL     1       0.875   7.572  21.448  0.00  0.00    +0.000 A 
ATOM      6  C   UNL     1       0.598   8.908  21.106  0.00  0.00    +0.000 A 
ATOM      7  C   UNL     1      -0.164   9.764  22.086  0.00  0.00    +0.000 C 
ATOM      8  C   UNL     1       1.025   9.434  19.860  0.00  0.00    +0.000 A 
ENDROOT
BRANCH   4   9
ATOM      9  C   UNL     1       1.899   5.305  20.937  0.00  0.00    +0.000 C 
BRANCH   9  10
ATOM     10  C   UNL     1       1.498   4.356  19.811  0.00  0.00    +0.000 C 
BRANCH  10  11
ATOM     11  C   UNL     1       2.523   3.271  19.499  0.00  0.00    +0.000 C 
ATOM     12  O   UNL     1       2.465   2.169  20.036  0.00  0.00    +0.000 OA
BRANCH  11  13
ATOM     13  C   UNL     1       3.533   3.662  18.510  0.00  0.00    +0.000 A 
ATOM     14  C   UNL     1       3.394   3.752  17.135  0.00  0.00    +0.000 A 
ATOM     15  C   UNL     1       4.611   4.089  16.482  0.00  0.00    +0.000 A 
ATOM     16  C   UNL     1       5.632   4.331  17.379  0.00  0.00    +0.000 A 
ATOM     17  S   UNL     1       5.118   4.077  18.996  0.00  0.00    +0.000 S 
BRANCH  16  18
ATOM     18  C   UNL     1       7.043   4.766  17.083  0.00  0.00    +0.000 C 
BRANCH  18  19
ATOM     19  C   UNL     1       7.245   6.290  17.218  0.00  0.00    +0.000 C 
ATOM     20  C   UNL     1       5.931   7.068  17.102  0.00  0.00    +0.000 C 
ATOM     21  C   UNL     1       7.908   6.621  18.559  0.00  0.00    +0.000 C 
ENDBRANCH  18  19
ENDBRANCH  16  18
ENDBRANCH  11  13
ENDBRANCH  10  11
ENDBRANCH   9  10
ENDBRANCH   4   9
BRANCH   8  22
ATOM     22  O   UNL     1       0.695  10.756  19.684  0.00  0.00    +0.000 OA
BRANCH  22  23
ATOM     23  C   UNL     1      -0.044  11.137  18.521  0.00  0.00    +0.000 C 
BRANCH  23  24
ATOM     24  C   UNL     1      -1.551  10.995  18.794  0.00  0.00    +0.000 C 
BRANCH  24  25
ATOM     25  O   UNL     1      -2.054  12.168  19.456  0.00  0.00    +0.000 OA
ATOM     26  H   UNL     1      -1.408  12.880  19.292  0.00  0.00    +0.000 HD
ENDBRANCH  24  25
BRANCH  24  27
ATOM     27  C   UNL     1      -2.341  10.761  17.502  0.00  0.00    +0.000 C 
BRANCH  27  28
ATOM     28  N   UNL     1      -3.397  11.745  17.330  0.00  0.00    +0.000 N 
ATOM     29  C   UNL     1      -4.710  11.443  17.612  0.00  0.00    +0.000 C 
ATOM     30  O   UNL     1      -5.079  10.373  18.093  0.00  0.00    +0.000 OA
ATOM     31  H   UNL     1      -3.174  12.565  16.775  0.00  0.00    +0.000 HD
BRANCH  29  32
ATOM     32  C   UNL     1      -5.705  12.559  17.300  0.00  0.00    +0.000 C 
BRANCH  32  33
ATOM     33  O   UNL     1      -7.042  12.082  17.283  0.00  0.00    +0.000 OA
ATOM     34  H   UNL     1      -7.041  11.308  16.685  0.00  0.00    +0.000 HD
ENDBRANCH  32  33
ENDBRANCH  29  32
ENDBRANCH  27  28
ENDBRANCH  24  27
ENDBRANCH  23  24
ENDBRANCH  22  23
ENDBRANCH   8  22
TORSDOF 14
ENDMDL
MODEL 3
REMARK VINA RESULT:      -7.1      2.376      3.492
REMARK  Name = 
REMARK  18 active torsions:
REMARK  status: ('A' for Active; 'I' for Inactive)
REMARK    1  A    between atoms: C_1  and  C_2
REMARK    2  A    between atoms: C_4  and  C_5
REMARK    3  A    between atoms: C_5  and  C_6
REMARK    4  A    between atoms: C_6  and  C_7
REMARK    5  A    between atoms: C_7  and  C_9
REMARK    6  A    between atoms: C_12  and  C_13
REMARK    7  A    between atoms: C_13  and  C_14
REMARK    8  A    between atoms: C_14  and  C_15
REMARK    9  A    between atoms: C_14  and  C_16
REMARK   10  A    between atoms: C_19  and  C_20
REMARK   11  A    between atoms: C_21  and  O_22
REMARK   12  A    between atoms: O_22  and  C_23
REMARK   13  A    between atoms: C_23  and  C_24
REMARK   14  A    between atoms: C_24  and  O_25
REMARK   15  A    between atoms: C_24  and  C_26
REMARK   16  A    between atoms: C_26  and  N_27
REMARK   17  A    between atoms: C_28  and  C_30
REMARK   18  A    between atoms: C_30  and  O_31
REMARK                            x       y       z     vdW  Elec       q    Type
REMARK                         _______ _______ _______ _____ _____    ______ ____
ROOT
ATOM      1  C   UNL     1       2.493   4.597  20.687  0.00  0.00    +0.000 C 
ATOM      2  C   UNL     1       2.635   5.734  19.710  0.00  0.00    +0.000 A 
ATOM      3  C   UNL     1       1.902   6.899  20.020  0.00  0.00    +0.000 A 
ATOM      4  C   UNL     1       1.969   8.063  19.246  0.00  0.00    +0.000 A 
ATOM      5  C   UNL     1       2.793   8.058  18.122  0.00  0.00    +0.000 A 
ATOM      6  C   UNL     1       3.538   6.914  17.778  0.00  0.00    +0.000 A 
ATOM      7  C   UNL     1       4.426   6.968  16.560  0.00  0.00    +0.000 C 
ATOM      8  C   UNL     1       3.449   5.736  18.562  0.00  0.00    +0.000 A 
ENDROOT
BRANCH   4   9
ATOM      9  C   UNL     1       1.165   9.287  19.633  0.00  0.00    +0.000 C 
BRANCH   9  10
ATOM     10  C   UNL     1       0.466   9.091  20.977  0.00  0.00    +0.000 C 
BRANCH  10  11
ATOM     11  C   UNL     1       0.198  10.379  21.747  0.00  0.00    +0.000 C 
ATOM     12  O   UNL     1       0.161  10.389  22.974  0.00  0.00    +0.000 OA
BRANCH  11  13
ATOM     13  C   UNL     1       0.016  11.562  20.899  0.00  0.00    +0.000 A 
ATOM     14  C   UNL     1      -0.988  11.809  19.979  0.00  0.00    +0.000 A 
ATOM     15  C   UNL     1      -0.802  13.031  19.278  0.00  0.00    +0.000 A 
ATOM     16  C   UNL     1       0.295  13.732  19.738  0.00  0.00    +0.000 A 
ATOM     17  S   UNL     1       1.123  12.863  20.964  0.00  0.00    +0.000 S 
BRANCH  16  18
ATOM     18  C   UNL     1       0.786  15.084  19.294  0.00  0.00    +0.000 C 
BRANCH  18  19
ATOM     19  C   UNL     1       2.127  15.021  18.535  0.00  0.00    +0.000 C 
ATOM     20  C   UNL     1       3.310  15.470  19.397  0.00  0.00    +0.000 C 
ATOM     21  C   UNL     1       2.385  13.598  18.030  0.00  0.00    +0.000 C 
ENDBRANCH  18  19
ENDBRANCH  16  18
ENDBRANCH  11  13
ENDBRANCH  10  11
ENDBRANCH   9  10
ENDBRANCH   4   9
BRANCH   8  22
ATOM     22  O   UNL     1       4.250   4.717  18.107  0.00  0.00    +0.000 OA
BRANCH  22  23
ATOM     23  C   UNL     1       5.330   4.264  18.928  0.00  0.00    +0.000 C 
BRANCH  23  24
ATOM     24  C   UNL     1       6.507   5.248  18.827  0.00  0.00    +0.000 C 
BRANCH  24  25
ATOM     25  O   UNL     1       7.134   5.416  20.110  0.00  0.00    +0.000 OA
ATOM     26  H   UNL     1       6.927   6.322  20.405  0.00  0.00    +0.000 HD
ENDBRANCH  24  25
BRANCH  24  27
ATOM     27  C   UNL     1       7.551   4.781  17.807  0.00  0.00    +0.000 C 
BRANCH  27  28
ATOM     28  N   UNL     1       6.933   4.141  16.657  0.00  0.00    +0.000 N 
ATOM     29  C   UNL     1       7.054   4.670  15.392  0.00  0.00    +0.000 C 
ATOM     30  O   UNL     1       7.741   5.655  15.124  0.00  0.00    +0.000 OA
ATOM     31  H   UNL     1       6.220   3.444  16.848  0.00  0.00    +0.000 HD
BRANCH  29  32
ATOM     32  C   UNL     1       6.279   3.924  14.309  0.00  0.00    +0.000 C 
BRANCH  32  33
ATOM     33  O   UNL     1       4.903   4.275  14.312  0.00  0.00    +0.000 OA
ATOM     34  H   UNL     1       4.807   4.973  14.989  0.00  0.00    +0.000 HD
ENDBRANCH  32  33
ENDBRANCH  29  32
ENDBRANCH  27  28
ENDBRANCH  24  27
ENDBRANCH  23  24
ENDBRANCH  22  23
ENDBRANCH   8  22
TORSDOF 14
ENDMDL
MODEL 4
REMARK VINA RESULT:      -7.0      1.380      2.408
REMARK  Name = 
REMARK  18 active torsions:
REMARK  status: ('A' for Active; 'I' for Inactive)
REMARK    1  A    between atoms: C_1  and  C_2
REMARK    2  A    between atoms: C_4  and  C_5
REMARK    3  A    between atoms: C_5  and  C_6
REMARK    4  A    between atoms: C_6  and  C_7
REMARK    5  A    between atoms: C_7  and  C_9
REMARK    6  A    between atoms: C_12  and  C_13
REMARK    7  A    between atoms: C_13  and  C_14
REMARK    8  A    between atoms: C_14  and  C_15
REMARK    9  A    between atoms: C_14  and  C_16
REMARK   10  A    between atoms: C_19  and  C_20
REMARK   11  A    between atoms: C_21  and  O_22
REMARK   12  A    between atoms: O_22  and  C_23
REMARK   13  A    between atoms: C_23  and  C_24
REMARK   14  A    between atoms: C_24  and  O_25
REMARK   15  A    between atoms: C_24  and  C_26
REMARK   16  A    between atoms: C_26  and  N_27
REMARK   17  A    between atoms: C_28  and  C_30
REMARK   18  A    between atoms: C_30  and  O_31
REMARK                            x       y       z     vdW  Elec       q    Type
REMARK                         _______ _______ _______ _____ _____    ______ ____
ROOT
ATOM      1  C   UNL     1       2.041   4.539  20.768  0.00  0.00    +0.000 C 
ATOM      2  C   UNL     1       1.876   5.972  20.336  0.00  0.00    +0.000 A 
ATOM      3  C   UNL     1       1.252   6.823  21.273  0.00  0.00    +0.000 A 
ATOM      4  C   UNL     1       1.075   8.193  21.051  0.00  0.00    +0.000 A 
ATOM      5  C   UNL     1       1.531   8.727  19.846  0.00  0.00    +0.000 A 
ATOM      6  C   UNL     1       2.155   7.910  18.885  0.00  0.00    +0.000 A 
ATOM      7  C   UNL     1       2.644   8.542  17.605  0.00  0.00    +0.000 C 
ATOM      8  C   UNL     1       2.315   6.520  19.117  0.00  0.00    +0.000 A 
ENDROOT
BRANCH   4   9
ATOM      9  C   UNL     1       0.406   9.059  22.098  0.00  0.00    +0.000 C 
BRANCH   9  10
ATOM     10  C   UNL     1       0.707  10.538  21.871  0.00  0.00    +0.000 C 
BRANCH  10  11
ATOM     11  C   UNL     1      -0.483  11.468  22.085  0.00  0.00    +0.000 C 
ATOM     12  O   UNL     1      -0.713  11.961  23.184  0.00  0.00    +0.000 OA
BRANCH  11  13
ATOM     13  C   UNL     1      -1.277  11.718  20.877  0.00  0.00    +0.000 A 
ATOM     14  C   UNL     1      -2.534  12.292  20.784  0.00  0.00    +0.000 A 
ATOM     15  C   UNL     1      -3.034  12.304  19.454  0.00  0.00    +0.000 A 
ATOM     16  C   UNL     1      -2.114  11.814  18.548  0.00  0.00    +0.000 A 
ATOM     17  S   UNL     1      -0.685  11.283  19.334  0.00  0.00    +0.000 S 
BRANCH  16  18
ATOM     18  C   UNL     1      -2.245  11.718  17.051  0.00  0.00    +0.000 C 
BRANCH  18  19
ATOM     19  C   UNL     1      -3.363  10.753  16.604  0.00  0.00    +0.000 C 
ATOM     20  C   UNL     1      -3.252  10.375  15.124  0.00  0.00    +0.000 C 
ATOM     21  C   UNL     1      -3.333   9.478  17.452  0.00  0.00    +0.000 C 
ENDBRANCH  18  19
ENDBRANCH  16  18
ENDBRANCH  11  13
ENDBRANCH  10  11
ENDBRANCH   9  10
ENDBRANCH   4   9
BRANCH   8  22
ATOM     22  O   UNL     1       2.958   5.867  18.094  0.00  0.00    +0.000 OA
BRANCH  22  23
ATOM     23  C   UNL     1       4.387   5.805  18.100  0.00  0.00    +0.000 C 
BRANCH  23  24
ATOM     24  C   UNL     1       4.841   4.338  18.201  0.00  0.00    +0.000 C 
BRANCH  24  25
ATOM     25  O   UNL     1       4.060   3.509  17.323  0.00  0.00    +0.000 OA
ATOM     26  H   UNL     1       3.294   4.045  17.043  0.00  0.00    +0.000 HD
ENDBRANCH  24  25
BRANCH  24  27
ATOM     27  C   UNL     1       6.327   4.181  17.862  0.00  0.00    +0.000 C 
BRANCH  27  28
ATOM     28  N   UNL     1       6.544   4.066  16.429  0.00  0.00    +0.000 N 
ATOM     29  C   UNL     1       7.027   5.123  15.691  0.00  0.00    +0.000 C 
ATOM     30  O   UNL     1       7.378   6.196  16.180  0.00  0.00    +0.000 OA
ATOM     31  H   UNL     1       6.107   3.279  15.960  0.00  0.00    +0.000 HD
BRANCH  29  32
ATOM     32  C   UNL     1       7.120   4.867  14.189  0.00  0.00    +0.000 C 
BRANCH  32  33
ATOM     33  O   UNL     1       8.146   5.640  13.586  0.00  0.00    +0.000 OA
ATOM     34  H   UNL     1       8.913   5.041  13.493  0.00  0.00    +0.000 HD
ENDBRANCH  32  33
ENDBRANCH  29  32
ENDBRANCH  27  28
ENDBRANCH  24  27
ENDBRANCH  23  24
ENDBRANCH  22  23
ENDBRANCH   8  22
TORSDOF 14
ENDMDL
MODEL 5
REMARK VINA RESULT:      -7.0      2.191      2.495
REMARK  Name = 
REMARK  18 active torsions:
REMARK  status: ('A' for Active; 'I' for Inactive)
REMARK    1  A    between atoms: C_1  and  C_2
REMARK    2  A    between atoms: C_4  and  C_5
REMARK    3  A    between atoms: C_5  and  C_6
REMARK    4  A    between atoms: C_6  and  C_7
REMARK    5  A    between atoms: C_7  and  C_9
REMARK    6  A    between atoms: C_12  and  C_13
REMARK    7  A    between atoms: C_13  and  C_14
REMARK    8  A    between atoms: C_14  and  C_15
REMARK    9  A    between atoms: C_14  and  C_16
REMARK   10  A    between atoms: C_19  and  C_20
REMARK   11  A    between atoms: C_21  and  O_22
REMARK   12  A    between atoms: O_22  and  C_23
REMARK   13  A    between atoms: C_23  and  C_24
REMARK   14  A    between atoms: C_24  and  O_25
REMARK   15  A    between atoms: C_24  and  C_26
REMARK   16  A    between atoms: C_26  and  N_27
REMARK   17  A    between atoms: C_28  and  C_30
REMARK   18  A    between atoms: C_30  and  O_31
REMARK                            x       y       z     vdW  Elec       q    Type
REMARK                         _______ _______ _______ _____ _____    ______ ____
ROOT
ATOM      1  C   UNL     1       3.805   7.434  17.432  0.00  0.00    +0.000 C 
ATOM      2  C   UNL     1       3.159   6.701  18.576  0.00  0.00    +0.000 A 
ATOM      3  C   UNL     1       2.302   7.473  19.388  0.00  0.00    +0.000 A 
ATOM      4  C   UNL     1       1.580   6.931  20.458  0.00  0.00    +0.000 A 
ATOM      5  C   UNL     1       1.727   5.571  20.727  0.00  0.00    +0.000 A 
ATOM      6  C   UNL     1       2.575   4.768  19.942  0.00  0.00    +0.000 A 
ATOM      7  C   UNL     1       2.686   3.299  20.266  0.00  0.00    +0.000 C 
ATOM      8  C   UNL     1       3.312   5.333  18.870  0.00  0.00    +0.000 A 
ENDROOT
BRANCH   4   9
ATOM      9  C   UNL     1       0.667   7.809  21.290  0.00  0.00    +0.000 C 
BRANCH   9  10
ATOM     10  C   UNL     1       0.778   9.274  20.876  0.00  0.00    +0.000 C 
BRANCH  10  11
ATOM     11  C   UNL     1       0.135  10.258  21.847  0.00  0.00    +0.000 C 
ATOM     12  O   UNL     1       0.420  10.250  23.040  0.00  0.00    +0.000 OA
BRANCH  11  13
ATOM     13  C   UNL     1      -0.807  11.193  21.222  0.00  0.00    +0.000 A 
ATOM     14  C   UNL     1      -1.187  11.264  19.893  0.00  0.00    +0.000 A 
ATOM     15  C   UNL     1      -2.065  12.351  19.630  0.00  0.00    +0.000 A 
ATOM     16  C   UNL     1      -2.402  13.036  20.780  0.00  0.00    +0.000 A 
ATOM     17  S   UNL     1      -1.594  12.393  22.150  0.00  0.00    +0.000 S 
BRANCH  16  18
ATOM     18  C   UNL     1      -3.345  14.201  20.924  0.00  0.00    +0.000 C 
BRANCH  18  19
ATOM     19  C   UNL     1      -4.825  13.773  21.010  0.00  0.00    +0.000 C 
ATOM     20  C   UNL     1      -5.339  13.175  19.698  0.00  0.00    +0.000 C 
ATOM     21  C   UNL     1      -5.018  12.753  22.136  0.00  0.00    +0.000 C 
ENDBRANCH  18  19
ENDBRANCH  16  18
ENDBRANCH  11  13
ENDBRANCH  10  11
ENDBRANCH   9  10
ENDBRANCH   4   9
BRANCH   8  22
ATOM     22  O   UNL     1       4.077   4.417  18.191  0.00  0.00    +0.000 OA
BRANCH  22  23
ATOM     23  C   UNL     1       5.298   3.961  18.778  0.00  0.00    +0.000 C 
BRANCH  23  24
ATOM     24  C   UNL     1       6.388   5.033  18.607  0.00  0.00    +0.000 C 
BRANCH  24  25
ATOM     25  O   UNL     1       7.048   5.283  19.860  0.00  0.00    +0.000 OA
ATOM     26  H   UNL     1       7.755   4.616  19.940  0.00  0.00    +0.000 HD
ENDBRANCH  24  25
BRANCH  24  27
ATOM     27  C   UNL     1       7.427   4.623  17.557  0.00  0.00    +0.000 C 
BRANCH  27  28
ATOM     28  N   UNL     1       6.804   4.023  16.389  0.00  0.00    +0.000 N 
ATOM     29  C   UNL     1       6.847   4.639  15.159  0.00  0.00    +0.000 C 
ATOM     30  O   UNL     1       7.464   5.680  14.934  0.00  0.00    +0.000 OA
ATOM     31  H   UNL     1       6.141   3.273  16.556  0.00  0.00    +0.000 HD
BRANCH  29  32
ATOM     32  C   UNL     1       6.076   3.919  14.055  0.00  0.00    +0.000 C 
BRANCH  32  33
ATOM     33  O   UNL     1       6.784   3.933  12.824  0.00  0.00    +0.000 OA
ATOM     34  H   UNL     1       6.708   4.847  12.484  0.00  0.00    +0.000 HD
ENDBRANCH  32  33
ENDBRANCH  29  32
ENDBRANCH  27  28
ENDBRANCH  24  27
ENDBRANCH  23  24
ENDBRANCH  22  23
ENDBRANCH   8  22
TORSDOF 14
ENDMDL
MODEL 6
REMARK VINA RESULT:      -7.0      3.957      9.200
REMARK  Name = 
REMARK  18 active torsions:
REMARK  status: ('A' for Active; 'I' for Inactive)
REMARK    1  A    between atoms: C_1  and  C_2
REMARK    2  A    between atoms: C_4  and  C_5
REMARK    3  A    between atoms: C_5  and  C_6
REMARK    4  A    between atoms: C_6  and  C_7
REMARK    5  A    between atoms: C_7  and  C_9
REMARK    6  A    between atoms: C_12  and  C_13
REMARK    7  A    between atoms: C_13  and  C_14
REMARK    8  A    between atoms: C_14  and  C_15
REMARK    9  A    between atoms: C_14  and  C_16
REMARK   10  A    between atoms: C_19  and  C_20
REMARK   11  A    between atoms: C_21  and  O_22
REMARK   12  A    between atoms: O_22  and  C_23
REMARK   13  A    between atoms: C_23  and  C_24
REMARK   14  A    between atoms: C_24  and  O_25
REMARK   15  A    between atoms: C_24  and  C_26
REMARK   16  A    between atoms: C_26  and  N_27
REMARK   17  A    between atoms: C_28  and  C_30
REMARK   18  A    between atoms: C_30  and  O_31
REMARK                            x       y       z     vdW  Elec       q    Type
REMARK                         _______ _______ _______ _____ _____    ______ ____
ROOT
ATOM      1  C   UNL     1       2.219   9.135  17.595  0.00  0.00    +0.000 C 
ATOM      2  C   UNL     1       1.713   8.627  18.918  0.00  0.00    +0.000 A 
ATOM      3  C   UNL     1       2.090   7.308  19.250  0.00  0.00    +0.000 A 
ATOM      4  C   UNL     1       1.751   6.707  20.467  0.00  0.00    +0.000 A 
ATOM      5  C   UNL     1       1.003   7.449  21.380  0.00  0.00    +0.000 A 
ATOM      6  C   UNL     1       0.604   8.766  21.085  0.00  0.00    +0.000 A 
ATOM      7  C   UNL     1      -0.191   9.530  22.114  0.00  0.00    +0.000 C 
ATOM      8  C   UNL     1       0.942   9.358  19.841  0.00  0.00    +0.000 A 
ENDROOT
BRANCH   4   9
ATOM      9  C   UNL     1       2.192   5.290  20.771  0.00  0.00    +0.000 C 
BRANCH   9  10
ATOM     10  C   UNL     1       1.041   4.301  20.601  0.00  0.00    +0.000 C 
BRANCH  10  11
ATOM     11  C   UNL     1       1.229   3.296  19.470  0.00  0.00    +0.000 C 
ATOM     12  O   UNL     1       0.348   2.493  19.182  0.00  0.00    +0.000 OA
BRANCH  11  13
ATOM     13  C   UNL     1       2.518   3.402  18.777  0.00  0.00    +0.000 A 
ATOM     14  C   UNL     1       3.780   3.113  19.268  0.00  0.00    +0.000 A 
ATOM     15  C   UNL     1       4.812   3.410  18.337  0.00  0.00    +0.000 A 
ATOM     16  C   UNL     1       4.310   3.840  17.125  0.00  0.00    +0.000 A 
ATOM     17  S   UNL     1       2.599   3.944  17.158  0.00  0.00    +0.000 S 
BRANCH  16  18
ATOM     18  C   UNL     1       5.075   4.192  15.876  0.00  0.00    +0.000 C 
BRANCH  18  19
ATOM     19  C   UNL     1       5.745   5.580  15.950  0.00  0.00    +0.000 C 
ATOM     20  C   UNL     1       4.878   6.611  16.679  0.00  0.00    +0.000 C 
ATOM     21  C   UNL     1       7.101   5.478  16.653  0.00  0.00    +0.000 C 
ENDBRANCH  18  19
ENDBRANCH  16  18
ENDBRANCH  11  13
ENDBRANCH  10  11
ENDBRANCH   9  10
ENDBRANCH   4   9
BRANCH   8  22
ATOM     22  O   UNL     1       0.498  10.652  19.714  0.00  0.00    +0.000 OA
BRANCH  22  23
ATOM     23  C   UNL     1      -0.674  10.909  18.936  0.00  0.00    +0.000 C 
BRANCH  23  24
ATOM     24  C   UNL     1      -0.986  12.415  18.951  0.00  0.00    +0.000 C 
BRANCH  24  25
ATOM     25  O   UNL     1      -0.972  12.945  17.615  0.00  0.00    +0.000 OA
ATOM     26  H   UNL     1      -0.864  13.911  17.699  0.00  0.00    +0.000 HD
ENDBRANCH  24  25
BRANCH  24  27
ATOM     27  C   UNL     1      -2.343  12.707  19.600  0.00  0.00    +0.000 C 
BRANCH  27  28
ATOM     28  N   UNL     1      -2.424  12.166  20.947  0.00  0.00    +0.000 N 
ATOM     29  C   UNL     1      -2.544  12.990  22.043  0.00  0.00    +0.000 C 
ATOM     30  O   UNL     1      -2.669  14.212  21.972  0.00  0.00    +0.000 OA
ATOM     31  H   UNL     1      -2.147  11.197  21.070  0.00  0.00    +0.000 HD
BRANCH  29  32
ATOM     32  C   UNL     1      -2.534  12.270  23.390  0.00  0.00    +0.000 C 
BRANCH  32  33
ATOM     33  O   UNL     1      -3.848  11.974  23.839  0.00  0.00    +0.000 OA
ATOM     34  H   UNL     1      -4.431  12.117  23.067  0.00  0.00    +0.000 HD
ENDBRANCH  32  33
ENDBRANCH  29  32
ENDBRANCH  27  28
ENDBRANCH  24  27
ENDBRANCH  23  24
ENDBRANCH  22  23
ENDBRANCH   8  22
TORSDOF 14
ENDMDL
MODEL 7
REMARK VINA RESULT:      -6.7      3.688      8.877
REMARK  Name = 
REMARK  18 active torsions:
REMARK  status: ('A' for Active; 'I' for Inactive)
REMARK    1  A    between atoms: C_1  and  C_2
REMARK    2  A    between atoms: C_4  and  C_5
REMARK    3  A    between atoms: C_5  and  C_6
REMARK    4  A    between atoms: C_6  and  C_7
REMARK    5  A    between atoms: C_7  and  C_9
REMARK    6  A    between atoms: C_12  and  C_13
REMARK    7  A    between atoms: C_13  and  C_14
REMARK    8  A    between atoms: C_14  and  C_15
REMARK    9  A    between atoms: C_14  and  C_16
REMARK   10  A    between atoms: C_19  and  C_20
REMARK   11  A    between atoms: C_21  and  O_22
REMARK   12  A    between atoms: O_22  and  C_23
REMARK   13  A    between atoms: C_23  and  C_24
REMARK   14  A    between atoms: C_24  and  O_25
REMARK   15  A    between atoms: C_24  and  C_26
REMARK   16  A    between atoms: C_26  and  N_27
REMARK   17  A    between atoms: C_28  and  C_30
REMARK   18  A    between atoms: C_30  and  O_31
REMARK                            x       y       z     vdW  Elec       q    Type
REMARK                         _______ _______ _______ _____ _____    ______ ____
ROOT
ATOM      1  C   UNL     1       2.282   9.641  17.464  0.00  0.00    +0.000 C 
ATOM      2  C   UNL     1       1.894   8.835  18.675  0.00  0.00    +0.000 A 
ATOM      3  C   UNL     1       2.304   7.485  18.666  0.00  0.00    +0.000 A 
ATOM      4  C   UNL     1       2.074   6.617  19.739  0.00  0.00    +0.000 A 
ATOM      5  C   UNL     1       1.405   7.116  20.856  0.00  0.00    +0.000 A 
ATOM      6  C   UNL     1       0.977   8.456  20.902  0.00  0.00    +0.000 A 
ATOM      7  C   UNL     1       0.271   8.948  22.141  0.00  0.00    +0.000 C 
ATOM      8  C   UNL     1       1.204   9.321  19.801  0.00  0.00    +0.000 A 
ENDROOT
BRANCH   4   9
ATOM      9  C   UNL     1       2.546   5.179  19.675  0.00  0.00    +0.000 C 
BRANCH   9  10
ATOM     10  C   UNL     1       4.017   5.059  20.062  0.00  0.00    +0.000 C 
BRANCH  10  11
ATOM     11  C   UNL     1       4.764   3.921  19.375  0.00  0.00    +0.000 C 
ATOM     12  O   UNL     1       4.827   2.805  19.883  0.00  0.00    +0.000 OA
BRANCH  11  13
ATOM     13  C   UNL     1       5.357   4.281  18.083  0.00  0.00    +0.000 A 
ATOM     14  C   UNL     1       6.642   4.730  17.828  0.00  0.00    +0.000 A 
ATOM     15  C   UNL     1       6.846   5.060  16.460  0.00  0.00    +0.000 A 
ATOM     16  C   UNL     1       5.738   4.776  15.687  0.00  0.00    +0.000 A 
ATOM     17  S   UNL     1       4.444   4.181  16.642  0.00  0.00    +0.000 S 
BRANCH  16  18
ATOM     18  C   UNL     1       5.583   4.929  14.197  0.00  0.00    +0.000 C 
BRANCH  18  19
ATOM     19  C   UNL     1       6.553   4.038  13.394  0.00  0.00    +0.000 C 
ATOM     20  C   UNL     1       5.860   3.310  12.239  0.00  0.00    +0.000 C 
ATOM     21  C   UNL     1       7.708   4.876  12.838  0.00  0.00    +0.000 C 
ENDBRANCH  18  19
ENDBRANCH  16  18
ENDBRANCH  11  13
ENDBRANCH  10  11
ENDBRANCH   9  10
ENDBRANCH   4   9
BRANCH   8  22
ATOM     22  O   UNL     1       0.745  10.599  20.009  0.00  0.00    +0.000 OA
BRANCH  22  23
ATOM     23  C   UNL     1       0.320  11.375  18.885  0.00  0.00    +0.000 C 
BRANCH  23  24
ATOM     24  C   UNL     1      -0.855  12.280  19.294  0.00  0.00    +0.000 C 
BRANCH  24  25
ATOM     25  O   UNL     1      -0.763  13.552  18.631  0.00  0.00    +0.000 OA
ATOM     26  H   UNL     1      -1.614  14.006  18.779  0.00  0.00    +0.000 HD
ENDBRANCH  24  25
BRANCH  24  27
ATOM     27  C   UNL     1      -2.206  11.634  18.971  0.00  0.00    +0.000 C 
BRANCH  27  28
ATOM     28  N   UNL     1      -2.555  11.785  17.568  0.00  0.00    +0.000 N 
ATOM     29  C   UNL     1      -2.971  10.711  16.814  0.00  0.00    +0.000 C 
ATOM     30  O   UNL     1      -3.152   9.583  17.270  0.00  0.00    +0.000 OA
ATOM     31  H   UNL     1      -2.254  12.639  17.110  0.00  0.00    +0.000 HD
BRANCH  29  32
ATOM     32  C   UNL     1      -3.219  11.022  15.340  0.00  0.00    +0.000 C 
BRANCH  32  33
ATOM     33  O   UNL     1      -2.904   9.915  14.509  0.00  0.00    +0.000 OA
ATOM     34  H   UNL     1      -2.912   9.131  15.094  0.00  0.00    +0.000 HD
ENDBRANCH  32  33
ENDBRANCH  29  32
ENDBRANCH  27  28
ENDBRANCH  24  27
ENDBRANCH  23  24
ENDBRANCH  22  23
ENDBRANCH   8  22
TORSDOF 14
ENDMDL
MODEL 8
REMARK VINA RESULT:      -6.7      3.821      9.568
REMARK  Name = 
REMARK  18 active torsions:
REMARK  status: ('A' for Active; 'I' for Inactive)
REMARK    1  A    between atoms: C_1  and  C_2
REMARK    2  A    between atoms: C_4  and  C_5
REMARK    3  A    between atoms: C_5  and  C_6
REMARK    4  A    between atoms: C_6  and  C_7
REMARK    5  A    between atoms: C_7  and  C_9
REMARK    6  A    between atoms: C_12  and  C_13
REMARK    7  A    between atoms: C_13  and  C_14
REMARK    8  A    between atoms: C_14  and  C_15
REMARK    9  A    between atoms: C_14  and  C_16
REMARK   10  A    between atoms: C_19  and  C_20
REMARK   11  A    between atoms: C_21  and  O_22
REMARK   12  A    between atoms: O_22  and  C_23
REMARK   13  A    between atoms: C_23  and  C_24
REMARK   14  A    between atoms: C_24  and  O_25
REMARK   15  A    between atoms: C_24  and  C_26
REMARK   16  A    between atoms: C_26  and  N_27
REMARK   17  A    between atoms: C_28  and  C_30
REMARK   18  A    between atoms: C_30  and  O_31
REMARK                            x       y       z     vdW  Elec       q    Type
REMARK                         _______ _______ _______ _____ _____    ______ ____
ROOT
ATOM      1  C   UNL     1       0.859   9.156  22.437  0.00  0.00    +0.000 C 
ATOM      2  C   UNL     1       1.379   8.630  21.127  0.00  0.00    +0.000 A 
ATOM      3  C   UNL     1       1.811   7.287  21.137  0.00  0.00    +0.000 A 
ATOM      4  C   UNL     1       2.268   6.629  19.989  0.00  0.00    +0.000 A 
ATOM      5  C   UNL     1       2.300   7.344  18.792  0.00  0.00    +0.000 A 
ATOM      6  C   UNL     1       1.881   8.686  18.741  0.00  0.00    +0.000 A 
ATOM      7  C   UNL     1       1.921   9.408  17.417  0.00  0.00    +0.000 C 
ATOM      8  C   UNL     1       1.434   9.344  19.915  0.00  0.00    +0.000 A 
ENDROOT
BRANCH   4   9
ATOM      9  C   UNL     1       2.711   5.182  20.060  0.00  0.00    +0.000 C 
BRANCH   9  10
ATOM     10  C   UNL     1       3.057   4.639  18.676  0.00  0.00    +0.000 C 
BRANCH  10  11
ATOM     11  C   UNL     1       4.545   4.403  18.441  0.00  0.00    +0.000 C 
ATOM     12  O   UNL     1       5.249   3.880  19.300  0.00  0.00    +0.000 OA
BRANCH  11  13
ATOM     13  C   UNL     1       5.022   4.831  17.122  0.00  0.00    +0.000 A 
ATOM     14  C   UNL     1       4.842   6.057  16.504  0.00  0.00    +0.000 A 
ATOM     15  C   UNL     1       5.378   6.092  15.188  0.00  0.00    +0.000 A 
ATOM     16  C   UNL     1       6.029   4.919  14.861  0.00  0.00    +0.000 A 
ATOM     17  S   UNL     1       5.920   3.769  16.128  0.00  0.00    +0.000 S 
BRANCH  16  18
ATOM     18  C   UNL     1       6.770   4.592  13.592  0.00  0.00    +0.000 C 
BRANCH  18  19
ATOM     19  C   UNL     1       6.163   3.396  12.829  0.00  0.00    +0.000 C 
ATOM     20  C   UNL     1       4.770   3.702  12.273  0.00  0.00    +0.000 C 
ATOM     21  C   UNL     1       7.082   2.978  11.678  0.00  0.00    +0.000 C 
ENDBRANCH  18  19
ENDBRANCH  16  18
ENDBRANCH  11  13
ENDBRANCH  10  11
ENDBRANCH   9  10
ENDBRANCH   4   9
BRANCH   8  22
ATOM     22  O   UNL     1       1.042  10.643  19.697  0.00  0.00    +0.000 OA
BRANCH  22  23
ATOM     23  C   UNL     1      -0.351  10.932  19.553  0.00  0.00    +0.000 C 
BRANCH  23  24
ATOM     24  C   UNL     1      -0.529  12.351  18.986  0.00  0.00    +0.000 C 
BRANCH  24  25
ATOM     25  O   UNL     1      -1.157  12.300  17.693  0.00  0.00    +0.000 OA
ATOM     26  H   UNL     1      -1.845  11.611  17.745  0.00  0.00    +0.000 HD
ENDBRANCH  24  25
BRANCH  24  27
ATOM     27  C   UNL     1      -1.361  13.235  19.921  0.00  0.00    +0.000 C 
BRANCH  27  28
ATOM     28  N   UNL     1      -1.436  12.680  21.262  0.00  0.00    +0.000 N 
ATOM     29  C   UNL     1      -2.647  12.417  21.862  0.00  0.00    +0.000 C 
ATOM     30  O   UNL     1      -3.733  12.552  21.300  0.00  0.00    +0.000 OA
ATOM     31  H   UNL     1      -0.591  12.722  21.824  0.00  0.00    +0.000 HD
BRANCH  29  32
ATOM     32  C   UNL     1      -2.553  11.914  23.301  0.00  0.00    +0.000 C 
BRANCH  32  33
ATOM     33  O   UNL     1      -3.794  12.032  23.980  0.00  0.00    +0.000 OA
ATOM     34  H   UNL     1      -3.683  11.552  24.824  0.00  0.00    +0.000 HD
ENDBRANCH  32  33
ENDBRANCH  29  32
ENDBRANCH  27  28
ENDBRANCH  24  27
ENDBRANCH  23  24
ENDBRANCH  22  23
ENDBRANCH   8  22
TORSDOF 14
ENDMDL
MODEL 9
REMARK VINA RESULT:      -6.7      7.651     10.475
REMARK  Name = 
REMARK  18 active torsions:
REMARK  status: ('A' for Active; 'I' for Inactive)
REMARK    1  A    between atoms: C_1  and  C_2
REMARK    2  A    between atoms: C_4  and  C_5
REMARK    3  A    between atoms: C_5  and  C_6
REMARK    4  A    between atoms: C_6  and  C_7
REMARK    5  A    between atoms: C_7  and  C_9
REMARK    6  A    between atoms: C_12  and  C_13
REMARK    7  A    between atoms: C_13  and  C_14
REMARK    8  A    between atoms: C_14  and  C_15
REMARK    9  A    between atoms: C_14  and  C_16
REMARK   10  A    between atoms: C_19  and  C_20
REMARK   11  A    between atoms: C_21  and  O_22
REMARK   12  A    between atoms: O_22  and  C_23
REMARK   13  A    between atoms: C_23  and  C_24
REMARK   14  A    between atoms: C_24  and  O_25
REMARK   15  A    between atoms: C_24  and  C_26
REMARK   16  A    between atoms: C_26  and  N_27
REMARK   17  A    between atoms: C_28  and  C_30
REMARK   18  A    between atoms: C_30  and  O_31
REMARK                            x       y       z     vdW  Elec       q    Type
REMARK                         _______ _______ _______ _____ _____    ______ ____
ROOT
ATOM      1  C   UNL     1       7.644  12.938  16.942  0.00  0.00    +0.000 C 
ATOM      2  C   UNL     1       8.475  12.056  17.835  0.00  0.00    +0.000 A 
ATOM      3  C   UNL     1       8.111  10.694  17.857  0.00  0.00    +0.000 A 
ATOM      4  C   UNL     1       8.816   9.732  18.589  0.00  0.00    +0.000 A 
ATOM      5  C   UNL     1       9.920  10.152  19.331  0.00  0.00    +0.000 A 
ATOM      6  C   UNL     1      10.313  11.503  19.338  0.00  0.00    +0.000 A 
ATOM      7  C   UNL     1      11.524  11.900  20.145  0.00  0.00    +0.000 C 
ATOM      8  C   UNL     1       9.580  12.469  18.603  0.00  0.00    +0.000 A 
ENDROOT
BRANCH   4   9
ATOM      9  C   UNL     1       8.382   8.281  18.566  0.00  0.00    +0.000 C 
BRANCH   9  10
ATOM     10  C   UNL     1       7.551   7.969  17.324  0.00  0.00    +0.000 C 
BRANCH  10  11
ATOM     11  C   UNL     1       7.043   6.534  17.244  0.00  0.00    +0.000 C 
ATOM     12  O   UNL     1       7.748   5.635  16.798  0.00  0.00    +0.000 OA
BRANCH  11  13
ATOM     13  C   UNL     1       5.682   6.347  17.758  0.00  0.00    +0.000 A 
ATOM     14  C   UNL     1       4.521   6.987  17.357  0.00  0.00    +0.000 A 
ATOM     15  C   UNL     1       3.391   6.610  18.133  0.00  0.00    +0.000 A 
ATOM     16  C   UNL     1       3.697   5.629  19.055  0.00  0.00    +0.000 A 
ATOM     17  S   UNL     1       5.365   5.230  19.012  0.00  0.00    +0.000 S 
BRANCH  16  18
ATOM     18  C   UNL     1       2.768   4.933  20.013  0.00  0.00    +0.000 C 
BRANCH  18  19
ATOM     19  C   UNL     1       1.589   4.230  19.307  0.00  0.00    +0.000 C 
ATOM     20  C   UNL     1       2.039   3.392  18.108  0.00  0.00    +0.000 C 
ATOM     21  C   UNL     1       0.839   3.331  20.295  0.00  0.00    +0.000 C 
ENDBRANCH  18  19
ENDBRANCH  16  18
ENDBRANCH  11  13
ENDBRANCH  10  11
ENDBRANCH   9  10
ENDBRANCH   4   9
BRANCH   8  22
ATOM     22  O   UNL     1      10.102  13.736  18.697  0.00  0.00    +0.000 OA
BRANCH  22  23
ATOM     23  C   UNL     1      11.071  14.161  17.735  0.00  0.00    +0.000 C 
BRANCH  23  24
ATOM     24  C   UNL     1      10.707  15.562  17.215  0.00  0.00    +0.000 C 
BRANCH  24  25
ATOM     25  O   UNL     1       9.287  15.775  17.298  0.00  0.00    +0.000 OA
ATOM     26  H   UNL     1       8.882  15.223  16.602  0.00  0.00    +0.000 HD
ENDBRANCH  24  25
BRANCH  24  27
ATOM     27  C   UNL     1      11.433  16.663  17.996  0.00  0.00    +0.000 C 
BRANCH  27  28
ATOM     28  N   UNL     1      10.590  17.233  19.034  0.00  0.00    +0.000 N 
ATOM     29  C   UNL     1      10.695  16.827  20.345  0.00  0.00    +0.000 C 
ATOM     30  O   UNL     1      11.540  16.029  20.749  0.00  0.00    +0.000 OA
ATOM     31  H   UNL     1       9.771  17.750  18.728  0.00  0.00    +0.000 HD
BRANCH  29  32
ATOM     32  C   UNL     1       9.684  17.463  21.295  0.00  0.00    +0.000 C 
BRANCH  32  33
ATOM     33  O   UNL     1       8.401  17.578  20.698  0.00  0.00    +0.000 OA
ATOM     34  H   UNL     1       7.783  17.124  21.304  0.00  0.00    +0.000 HD
ENDBRANCH  32  33
ENDBRANCH  29  32
ENDBRANCH  27  28
ENDBRANCH  24  27
ENDBRANCH  23  24
ENDBRANCH  22  23
ENDBRANCH   8  22
TORSDOF 14
ENDMDL
