MODEL 1
REMARK VINA RESULT:      -9.4      0.000      0.000
REMARK  Name = 
REMARK  7 active torsions:
REMARK  status: ('A' for Active; 'I' for Inactive)
REMARK    1  A    between atoms: C_1  and  C_2
REMARK    2  A    between atoms: C_2  and  S_3
REMARK    3  A    between atoms: C_2  and  C_10
REMARK    4  A    between atoms: S_3  and  C_4
REMARK    5  A    between atoms: N_8  and  C_9
REMARK    6  A    between atoms: C_15  and  N_16
REMARK    7  A    between atoms: C_23  and  C_24
REMARK                            x       y       z     vdW  Elec       q    Type
REMARK                         _______ _______ _______ _____ _____    ______ ____
ROOT
ATOM      1  C   UNL     1       4.411   5.571  17.369  0.00  0.00    +0.000 A 
ATOM      2  C   UNL     1       3.706   4.366  17.465  0.00  0.00    +0.000 A 
ATOM      3  C   UNL     1       2.443   4.345  18.044  0.00  0.00    +0.000 A 
ATOM      4  F   UNL     1       1.780   3.182  18.122  0.00  0.00    +0.000 F 
ATOM      5  C   UNL     1       1.852   5.505  18.534  0.00  0.00    +0.000 A 
ATOM      6  C   UNL     1       2.528   6.725  18.462  0.00  0.00    +0.000 A 
ATOM      7  C   UNL     1       3.812   6.732  17.890  0.00  0.00    +0.000 A 
ENDROOT
BRANCH   6   8
ATOM      8  N   UNL     1       1.956   7.937  18.937  0.00  0.00    +0.000 N 
ATOM      9  C   UNL     1       1.386   8.052  20.278  0.00  0.00    +0.000 C 
ATOM     10  C   UNL     1       0.907   9.467  20.333  0.00  0.00    +0.000 A 
ATOM     11  C   UNL     1       1.196  10.094  19.124  0.00  0.00    +0.000 A 
ATOM     12  C   UNL     1       0.863  11.410  18.858  0.00  0.00    +0.000 A 
ATOM     13  C   UNL     1       0.205  12.118  19.861  0.00  0.00    +0.000 A 
ATOM     14  C   UNL     1      -0.090  11.503  21.094  0.00  0.00    +0.000 A 
ATOM     15  C   UNL     1       0.264  10.163  21.353  0.00  0.00    +0.000 A 
ATOM     16  C   UNL     1       1.869   9.138  18.242  0.00  0.00    +0.000 C 
ATOM     17  O   UNL     1       2.238   9.446  17.126  0.00  0.00    +0.000 OA
BRANCH  15  18
ATOM     18  C   UNL     1      -0.060   9.550  22.690  0.00  0.00    +0.000 C 
ATOM     19  F   UNL     1       1.038   9.185  23.407  0.00  0.00    +0.000 F 
ATOM     20  F   UNL     1      -0.757  10.403  23.492  0.00  0.00    +0.000 F 
ATOM     21  F   UNL     1      -0.825   8.431  22.579  0.00  0.00    +0.000 F 
ENDBRANCH  15  18
ENDBRANCH   6   8
BRANCH   1  23
ATOM     22  C   UNL     1       6.940   6.008  17.626  0.00  0.00    +0.000 C 
ATOM     23  C   UNL     1       5.779   5.606  16.708  0.00  0.00    +0.000 C 
BRANCH  23  24
ATOM     24  S   UNL     1       6.126   4.103  15.732  0.00  0.00    +0.000 S 
BRANCH  24  25
ATOM     25  C   UNL     1       6.997   4.669  14.355  0.00  0.00    +0.000 A 
ATOM     26  N   UNL     1       7.980   5.539  14.323  0.00  0.00    +0.000 NA
ATOM     27  N   UNL     1       8.322   5.744  13.005  0.00  0.00    +0.000 NA
ATOM     28  C   UNL     1       7.527   5.000  12.270  0.00  0.00    +0.000 A 
ATOM     29  N   UNL     1       6.688   4.293  13.078  0.00  0.00    +0.000 N 
ATOM     30  C   UNL     1       5.705   3.337  12.645  0.00  0.00    +0.000 C 
ENDBRANCH  24  25
ENDBRANCH  23  24
ENDBRANCH   1  23
TORSDOF 5
ENDMDL
MODEL 2
REMARK VINA RESULT:      -9.1      1.870      2.743
REMARK  Name = 
REMARK  7 active torsions:
REMARK  status: ('A' for Active; 'I' for Inactive)
REMARK    1  A    between atoms: C_1  and  C_2
REMARK    2  A    between atoms: C_2  and  S_3
REMARK    3  A    between atoms: C_2  and  C_10
REMARK    4  A    between atoms: S_3  and  C_4
REMARK    5  A    between atoms: N_8  and  C_9
REMARK    6  A    between atoms: C_15  and  N_16
REMARK    7  A    between atoms: C_23  and  C_24
REMARK                            x       y       z     vdW  Elec       q    Type
REMARK                         _______ _______ _______ _____ _____    ______ ____
ROOT
ATOM      1  C   UNL     1       4.239   4.876  17.742  0.00  0.00    +0.000 A 
ATOM      2  C   UNL     1       3.986   3.787  18.583  0.00  0.00    +0.000 A 
ATOM      3  C   UNL     1       3.122   3.931  19.662  0.00  0.00    +0.000 A 
ATOM      4  F   UNL     1       2.886   2.876  20.455  0.00  0.00    +0.000 F 
ATOM      5  C   UNL     1       2.491   5.142  19.928  0.00  0.00    +0.000 A 
ATOM      6  C   UNL     1       2.725   6.252  19.114  0.00  0.00    +0.000 A 
ATOM      7  C   UNL     1       3.614   6.100  18.036  0.00  0.00    +0.000 A 
ENDROOT
BRANCH   6   8
ATOM      8  N   UNL     1       2.092   7.505  19.341  0.00  0.00    +0.000 N 
ATOM      9  C   UNL     1       1.473   7.840  20.621  0.00  0.00    +0.000 C 
ATOM     10  C   UNL     1       0.939   9.219  20.400  0.00  0.00    +0.000 A 
ATOM     11  C   UNL     1       1.244   9.624  19.103  0.00  0.00    +0.000 A 
ATOM     12  C   UNL     1       0.870  10.853  18.589  0.00  0.00    +0.000 A 
ATOM     13  C   UNL     1       0.153  11.704  19.426  0.00  0.00    +0.000 A 
ATOM     14  C   UNL     1      -0.161  11.315  20.743  0.00  0.00    +0.000 A 
ATOM     15  C   UNL     1       0.235  10.063  21.255  0.00  0.00    +0.000 A 
ATOM     16  C   UNL     1       1.983   8.552  18.432  0.00  0.00    +0.000 C 
ATOM     17  O   UNL     1       2.377   8.665  17.288  0.00  0.00    +0.000 OA
BRANCH  15  18
ATOM     18  C   UNL     1      -0.110   9.693  22.674  0.00  0.00    +0.000 C 
ATOM     19  F   UNL     1       0.969   9.358  23.432  0.00  0.00    +0.000 F 
ATOM     20  F   UNL     1      -0.724  10.713  23.336  0.00  0.00    +0.000 F 
ATOM     21  F   UNL     1      -0.962   8.635  22.744  0.00  0.00    +0.000 F 
ENDBRANCH  15  18
ENDBRANCH   6   8
BRANCH   1  23
ATOM     22  C   UNL     1       4.955   5.741  15.419  0.00  0.00    +0.000 C 
ATOM     23  C   UNL     1       5.158   4.716  16.542  0.00  0.00    +0.000 C 
BRANCH  23  24
ATOM     24  S   UNL     1       6.909   4.518  17.020  0.00  0.00    +0.000 S 
BRANCH  24  25
ATOM     25  C   UNL     1       7.426   6.106  17.452  0.00  0.00    +0.000 A 
ATOM     26  N   UNL     1       7.506   7.167  16.681  0.00  0.00    +0.000 NA
ATOM     27  N   UNL     1       8.037   8.194  17.427  0.00  0.00    +0.000 NA
ATOM     28  C   UNL     1       8.278   7.726  18.630  0.00  0.00    +0.000 A 
ATOM     29  N   UNL     1       7.892   6.421  18.697  0.00  0.00    +0.000 N 
ATOM     30  C   UNL     1       7.956   5.579  19.862  0.00  0.00    +0.000 C 
ENDBRANCH  24  25
ENDBRANCH  23  24
ENDBRANCH   1  23
TORSDOF 5
ENDMDL
MODEL 3
REMARK VINA RESULT:      -8.7      4.058      9.022
REMARK  Name = 
REMARK  7 active torsions:
REMARK  status: ('A' for Active; 'I' for Inactive)
REMARK    1  A    between atoms: C_1  and  C_2
REMARK    2  A    between atoms: C_2  and  S_3
REMARK    3  A    between atoms: C_2  and  C_10
REMARK    4  A    between atoms: S_3  and  C_4
REMARK    5  A    between atoms: N_8  and  C_9
REMARK    6  A    between atoms: C_15  and  N_16
REMARK    7  A    between atoms: C_23  and  C_24
REMARK                            x       y       z     vdW  Elec       q    Type
REMARK                         _______ _______ _______ _____ _____    ______ ____
ROOT
ATOM      1  C   UNL     1       0.153  10.148  19.975  0.00  0.00    +0.000 A 
ATOM      2  C   UNL     1       0.187  10.273  21.367  0.00  0.00    +0.000 A 
ATOM      3  C   UNL     1       0.876   9.339  22.131  0.00  0.00    +0.000 A 
ATOM      4  F   UNL     1       0.903   9.477  23.464  0.00  0.00    +0.000 F 
ATOM      5  C   UNL     1       1.543   8.271  21.540  0.00  0.00    +0.000 A 
ATOM      6  C   UNL     1       1.525   8.110  20.152  0.00  0.00    +0.000 A 
ATOM      7  C   UNL     1       0.811   9.051  19.391  0.00  0.00    +0.000 A 
ENDROOT
BRANCH   6   8
ATOM      8  N   UNL     1       2.204   7.042  19.505  0.00  0.00    +0.000 N 
ATOM      9  C   UNL     1       3.168   7.273  18.430  0.00  0.00    +0.000 C 
ATOM     10  C   UNL     1       3.610   5.895  18.056  0.00  0.00    +0.000 A 
ATOM     11  C   UNL     1       2.953   4.969  18.862  0.00  0.00    +0.000 A 
ATOM     12  C   UNL     1       3.139   3.604  18.748  0.00  0.00    +0.000 A 
ATOM     13  C   UNL     1       4.027   3.159  17.771  0.00  0.00    +0.000 A 
ATOM     14  C   UNL     1       4.706   4.080  16.949  0.00  0.00    +0.000 A 
ATOM     15  C   UNL     1       4.512   5.470  17.084  0.00  0.00    +0.000 A 
ATOM     16  C   UNL     1       2.073   5.686  19.787  0.00  0.00    +0.000 C 
ATOM     17  O   UNL     1       1.394   5.102  20.609  0.00  0.00    +0.000 OA
BRANCH  15  18
ATOM     18  C   UNL     1       5.270   6.419  16.193  0.00  0.00    +0.000 C 
ATOM     19  F   UNL     1       4.470   7.232  15.450  0.00  0.00    +0.000 F 
ATOM     20  F   UNL     1       6.083   7.251  16.902  0.00  0.00    +0.000 F 
ATOM     21  F   UNL     1       6.075   5.773  15.307  0.00  0.00    +0.000 F 
ENDBRANCH  15  18
ENDBRANCH   6   8
BRANCH   1  23
ATOM     22  C   UNL     1       0.240  12.443  18.799  0.00  0.00    +0.000 C 
ATOM     23  C   UNL     1      -0.572  11.185  19.132  0.00  0.00    +0.000 C 
BRANCH  23  24
ATOM     24  S   UNL     1      -1.391  10.455  17.673  0.00  0.00    +0.000 S 
BRANCH  24  25
ATOM     25  C   UNL     1      -2.966  11.158  17.660  0.00  0.00    +0.000 A 
ATOM     26  N   UNL     1      -3.626  11.680  18.668  0.00  0.00    +0.000 NA
ATOM     27  N   UNL     1      -4.871  12.053  18.214  0.00  0.00    +0.000 NA
ATOM     28  C   UNL     1      -4.938  11.736  16.941  0.00  0.00    +0.000 A 
ATOM     29  N   UNL     1      -3.756  11.186  16.545  0.00  0.00    +0.000 N 
ATOM     30  C   UNL     1      -3.429  10.754  15.212  0.00  0.00    +0.000 C 
ENDBRANCH  24  25
ENDBRANCH  23  24
ENDBRANCH   1  23
TORSDOF 5
ENDMDL
MODEL 4
REMARK VINA RESULT:      -8.7      3.776      9.014
REMARK  Name = 
REMARK  7 active torsions:
REMARK  status: ('A' for Active; 'I' for Inactive)
REMARK    1  A    between atoms: C_1  and  C_2
REMARK    2  A    between atoms: C_2  and  S_3
REMARK    3  A    between atoms: C_2  and  C_10
REMARK    4  A    between atoms: S_3  and  C_4
REMARK    5  A    between atoms: N_8  and  C_9
REMARK    6  A    between atoms: C_15  and  N_16
REMARK    7  A    between atoms: C_23  and  C_24
REMARK                            x       y       z     vdW  Elec       q    Type
REMARK                         _______ _______ _______ _____ _____    ______ ____
ROOT
ATOM      1  C   UNL     1       0.824  10.378  19.669  0.00  0.00    +0.000 A 
ATOM      2  C   UNL     1       0.527  10.339  21.036  0.00  0.00    +0.000 A 
ATOM      3  C   UNL     1       0.831   9.206  21.780  0.00  0.00    +0.000 A 
ATOM      4  F   UNL     1       0.545   9.188  23.089  0.00  0.00    +0.000 F 
ATOM      5  C   UNL     1       1.433   8.096  21.195  0.00  0.00    +0.000 A 
ATOM      6  C   UNL     1       1.737   8.096  19.832  0.00  0.00    +0.000 A 
ATOM      7  C   UNL     1       1.410   9.241  19.086  0.00  0.00    +0.000 A 
ENDROOT
BRANCH   6   8
ATOM      8  N   UNL     1       2.364   6.990  19.196  0.00  0.00    +0.000 N 
ATOM      9  C   UNL     1       3.362   7.165  18.141  0.00  0.00    +0.000 C 
ATOM     10  C   UNL     1       3.728   5.763  17.772  0.00  0.00    +0.000 A 
ATOM     11  C   UNL     1       3.001   4.877  18.564  0.00  0.00    +0.000 A 
ATOM     12  C   UNL     1       3.108   3.503  18.451  0.00  0.00    +0.000 A 
ATOM     13  C   UNL     1       3.987   3.007  17.491  0.00  0.00    +0.000 A 
ATOM     14  C   UNL     1       4.735   3.887  16.684  0.00  0.00    +0.000 A 
ATOM     15  C   UNL     1       4.622   5.285  16.818  0.00  0.00    +0.000 A 
ATOM     16  C   UNL     1       2.147   5.644  19.473  0.00  0.00    +0.000 C 
ATOM     17  O   UNL     1       1.419   5.101  20.280  0.00  0.00    +0.000 OA
BRANCH  15  18
ATOM     18  C   UNL     1       5.452   6.189  15.944  0.00  0.00    +0.000 C 
ATOM     19  F   UNL     1       4.716   7.027  15.165  0.00  0.00    +0.000 F 
ATOM     20  F   UNL     1       6.278   6.991  16.672  0.00  0.00    +0.000 F 
ATOM     21  F   UNL     1       6.257   5.496  15.094  0.00  0.00    +0.000 F 
ENDBRANCH  15  18
ENDBRANCH   6   8
BRANCH   1  23
ATOM     22  C   UNL     1      -0.700  12.430  19.318  0.00  0.00    +0.000 C 
ATOM     23  C   UNL     1       0.523  11.627  18.858  0.00  0.00    +0.000 C 
BRANCH  23  24
ATOM     24  S   UNL     1       2.002  12.666  18.593  0.00  0.00    +0.000 S 
BRANCH  24  25
ATOM     25  C   UNL     1       2.088  13.667  19.995  0.00  0.00    +0.000 A 
ATOM     26  N   UNL     1       2.494  13.337  21.200  0.00  0.00    +0.000 NA
ATOM     27  N   UNL     1       2.322  14.430  22.019  0.00  0.00    +0.000 NA
ATOM     28  C   UNL     1       1.804  15.393  21.291  0.00  0.00    +0.000 A 
ATOM     29  N   UNL     1       1.656  14.964  20.006  0.00  0.00    +0.000 N 
ATOM     30  C   UNL     1       1.163  15.747  18.905  0.00  0.00    +0.000 C 
ENDBRANCH  24  25
ENDBRANCH  23  24
ENDBRANCH   1  23
TORSDOF 5
ENDMDL
MODEL 5
REMARK VINA RESULT:      -8.6      4.000      9.251
REMARK  Name = 
REMARK  7 active torsions:
REMARK  status: ('A' for Active; 'I' for Inactive)
REMARK    1  A    between atoms: C_1  and  C_2
REMARK    2  A    between atoms: C_2  and  S_3
REMARK    3  A    between atoms: C_2  and  C_10
REMARK    4  A    between atoms: S_3  and  C_4
REMARK    5  A    between atoms: N_8  and  C_9
REMARK    6  A    between atoms: C_15  and  N_16
REMARK    7  A    between atoms: C_23  and  C_24
REMARK                            x       y       z     vdW  Elec       q    Type
REMARK                         _______ _______ _______ _____ _____    ______ ____
ROOT
ATOM      1  C   UNL     1       0.535  10.442  20.030  0.00  0.00    +0.000 A 
ATOM      2  C   UNL     1       0.385  10.434  21.421  0.00  0.00    +0.000 A 
ATOM      3  C   UNL     1       0.837   9.348  22.162  0.00  0.00    +0.000 A 
ATOM      4  F   UNL     1       0.691   9.360  23.494  0.00  0.00    +0.000 F 
ATOM      5  C   UNL     1       1.445   8.257  21.549  0.00  0.00    +0.000 A 
ATOM      6  C   UNL     1       1.606   8.227  20.162  0.00  0.00    +0.000 A 
ATOM      7  C   UNL     1       1.130   9.322  19.421  0.00  0.00    +0.000 A 
ENDROOT
BRANCH   6   8
ATOM      8  N   UNL     1       2.234   7.139  19.495  0.00  0.00    +0.000 N 
ATOM      9  C   UNL     1       3.198   7.343  18.416  0.00  0.00    +0.000 C 
ATOM     10  C   UNL     1       3.578   5.952  18.020  0.00  0.00    +0.000 A 
ATOM     11  C   UNL     1       2.888   5.045  18.821  0.00  0.00    +0.000 A 
ATOM     12  C   UNL     1       3.015   3.674  18.689  0.00  0.00    +0.000 A 
ATOM     13  C   UNL     1       3.875   3.204  17.699  0.00  0.00    +0.000 A 
ATOM     14  C   UNL     1       4.586   4.106  16.883  0.00  0.00    +0.000 A 
ATOM     15  C   UNL     1       4.453   5.501  17.035  0.00  0.00    +0.000 A 
ATOM     16  C   UNL     1       2.047   5.787  19.763  0.00  0.00    +0.000 C 
ATOM     17  O   UNL     1       1.352   5.221  20.583  0.00  0.00    +0.000 OA
BRANCH  15  18
ATOM     18  C   UNL     1       5.242   6.429  16.149  0.00  0.00    +0.000 C 
ATOM     19  F   UNL     1       6.099   7.238  16.828  0.00  0.00    +0.000 F 
ATOM     20  F   UNL     1       6.009   5.751  15.249  0.00  0.00    +0.000 F 
ATOM     21  F   UNL     1       4.446   7.253  15.417  0.00  0.00    +0.000 F 
ENDBRANCH  15  18
ENDBRANCH   6   8
BRANCH   1  23
ATOM     22  C   UNL     1       1.187  12.437  18.531  0.00  0.00    +0.000 C 
ATOM     23  C   UNL     1       0.072  11.640  19.219  0.00  0.00    +0.000 C 
BRANCH  23  24
ATOM     24  S   UNL     1      -1.313  11.237  18.100  0.00  0.00    +0.000 S 
BRANCH  24  25
ATOM     25  C   UNL     1      -2.713  11.853  18.898  0.00  0.00    +0.000 A 
ATOM     26  N   UNL     1      -2.783  12.429  20.077  0.00  0.00    +0.000 NA
ATOM     27  N   UNL     1      -4.107  12.693  20.342  0.00  0.00    +0.000 NA
ATOM     28  C   UNL     1      -4.809  12.260  19.320  0.00  0.00    +0.000 A 
ATOM     29  N   UNL     1      -3.972  11.740  18.379  0.00  0.00    +0.000 N 
ATOM     30  C   UNL     1      -4.362  11.207  17.101  0.00  0.00    +0.000 C 
ENDBRANCH  24  25
ENDBRANCH  23  24
ENDBRANCH   1  23
TORSDOF 5
ENDMDL
MODEL 6
REMARK VINA RESULT:      -8.5      2.063      2.879
REMARK  Name = 
REMARK  7 active torsions:
REMARK  status: ('A' for Active; 'I' for Inactive)
REMARK    1  A    between atoms: C_1  and  C_2
REMARK    2  A    between atoms: C_2  and  S_3
REMARK    3  A    between atoms: C_2  and  C_10
REMARK    4  A    between atoms: S_3  and  C_4
REMARK    5  A    between atoms: N_8  and  C_9
REMARK    6  A    between atoms: C_15  and  N_16
REMARK    7  A    between atoms: C_23  and  C_24
REMARK                            x       y       z     vdW  Elec       q    Type
REMARK                         _______ _______ _______ _____ _____    ______ ____
ROOT
ATOM      1  C   UNL     1       4.255   5.323  17.329  0.00  0.00    +0.000 A 
ATOM      2  C   UNL     1       4.162   4.200  18.157  0.00  0.00    +0.000 A 
ATOM      3  C   UNL     1       3.402   4.255  19.319  0.00  0.00    +0.000 A 
ATOM      4  F   UNL     1       3.319   3.167  20.098  0.00  0.00    +0.000 F 
ATOM      5  C   UNL     1       2.720   5.412  19.683  0.00  0.00    +0.000 A 
ATOM      6  C   UNL     1       2.795   6.555  18.885  0.00  0.00    +0.000 A 
ATOM      7  C   UNL     1       3.580   6.493  17.721  0.00  0.00    +0.000 A 
ENDROOT
BRANCH   6   8
ATOM      8  N   UNL     1       2.104   7.754  19.212  0.00  0.00    +0.000 N 
ATOM      9  C   UNL     1       1.490   7.963  20.522  0.00  0.00    +0.000 C 
ATOM     10  C   UNL     1       0.884   9.325  20.410  0.00  0.00    +0.000 A 
ATOM     11  C   UNL     1       1.148   9.840  19.143  0.00  0.00    +0.000 A 
ATOM     12  C   UNL     1       0.705  11.082  18.726  0.00  0.00    +0.000 A 
ATOM     13  C   UNL     1      -0.040  11.832  19.632  0.00  0.00    +0.000 A 
ATOM     14  C   UNL     1      -0.313  11.331  20.921  0.00  0.00    +0.000 A 
ATOM     15  C   UNL     1       0.153  10.067  21.334  0.00  0.00    +0.000 A 
ATOM     16  C   UNL     1       1.928   8.859  18.385  0.00  0.00    +0.000 C 
ATOM     17  O   UNL     1       2.298   9.075  17.248  0.00  0.00    +0.000 OA
BRANCH  15  18
ATOM     18  C   UNL     1      -0.150   9.577  22.726  0.00  0.00    +0.000 C 
ATOM     19  F   UNL     1      -0.838  10.472  23.485  0.00  0.00    +0.000 F 
ATOM     20  F   UNL     1      -0.903   8.442  22.719  0.00  0.00    +0.000 F 
ATOM     21  F   UNL     1       0.976   9.276  23.429  0.00  0.00    +0.000 F 
ENDBRANCH  15  18
ENDBRANCH   6   8
BRANCH   1  23
ATOM     22  C   UNL     1       5.064   6.546  15.207  0.00  0.00    +0.000 C 
ATOM     23  C   UNL     1       5.058   5.259  16.041  0.00  0.00    +0.000 C 
BRANCH  23  24
ATOM     24  S   UNL     1       6.726   4.559  16.287  0.00  0.00    +0.000 S 
BRANCH  24  25
ATOM     25  C   UNL     1       7.217   5.137  17.837  0.00  0.00    +0.000 A 
ATOM     26  N   UNL     1       7.270   4.471  18.968  0.00  0.00    +0.000 NA
ATOM     27  N   UNL     1       7.647   5.347  19.959  0.00  0.00    +0.000 NA
ATOM     28  C   UNL     1       7.802   6.529  19.405  0.00  0.00    +0.000 A 
ATOM     29  N   UNL     1       7.559   6.440  18.067  0.00  0.00    +0.000 N 
ATOM     30  C   UNL     1       7.669   7.512  17.115  0.00  0.00    +0.000 C 
ENDBRANCH  24  25
ENDBRANCH  23  24
ENDBRANCH   1  23
TORSDOF 5
ENDMDL
MODEL 7
REMARK VINA RESULT:      -8.5      3.756      8.825
REMARK  Name = 
REMARK  7 active torsions:
REMARK  status: ('A' for Active; 'I' for Inactive)
REMARK    1  A    between atoms: C_1  and  C_2
REMARK    2  A    between atoms: C_2  and  S_3
REMARK    3  A    between atoms: C_2  and  C_10
REMARK    4  A    between atoms: S_3  and  C_4
REMARK    5  A    between atoms: N_8  and  C_9
REMARK    6  A    between atoms: C_15  and  N_16
REMARK    7  A    between atoms: C_23  and  C_24
REMARK                            x       y       z     vdW  Elec       q    Type
REMARK                         _______ _______ _______ _____ _____    ______ ____
ROOT
ATOM      1  C   UNL     1      -0.025  10.294  20.219  0.00  0.00    +0.000 A 
ATOM      2  C   UNL     1       0.016  10.315  21.618  0.00  0.00    +0.000 A 
ATOM      3  C   UNL     1       0.746   9.353  22.304  0.00  0.00    +0.000 A 
ATOM      4  F   UNL     1       0.779   9.391  23.644  0.00  0.00    +0.000 F 
ATOM      5  C   UNL     1       1.449   8.360  21.630  0.00  0.00    +0.000 A 
ATOM      6  C   UNL     1       1.426   8.303  20.235  0.00  0.00    +0.000 A 
ATOM      7  C   UNL     1       0.670   9.271  19.551  0.00  0.00    +0.000 A 
ENDROOT
BRANCH   6   8
ATOM      8  N   UNL     1       2.140   7.314  19.504  0.00  0.00    +0.000 N 
ATOM      9  C   UNL     1       2.104   5.900  19.873  0.00  0.00    +0.000 C 
ATOM     10  C   UNL     1       2.987   5.252  18.856  0.00  0.00    +0.000 A 
ATOM     11  C   UNL     1       3.470   6.225  17.984  0.00  0.00    +0.000 A 
ATOM     12  C   UNL     1       4.328   5.940  16.937  0.00  0.00    +0.000 A 
ATOM     13  C   UNL     1       4.716   4.613  16.772  0.00  0.00    +0.000 A 
ATOM     14  C   UNL     1       4.234   3.613  17.640  0.00  0.00    +0.000 A 
ATOM     15  C   UNL     1       3.353   3.918  18.697  0.00  0.00    +0.000 A 
ATOM     16  C   UNL     1       2.930   7.527  18.379  0.00  0.00    +0.000 C 
ATOM     17  O   UNL     1       3.193   8.543  17.766  0.00  0.00    +0.000 OA
BRANCH  15  18
ATOM     18  C   UNL     1       2.851   2.816  19.593  0.00  0.00    +0.000 C 
ATOM     19  F   UNL     1       1.495   2.727  19.648  0.00  0.00    +0.000 F 
ATOM     20  F   UNL     1       3.285   1.589  19.190  0.00  0.00    +0.000 F 
ATOM     21  F   UNL     1       3.271   2.958  20.879  0.00  0.00    +0.000 F 
ENDBRANCH  15  18
ENDBRANCH   6   8
BRANCH   1  23
ATOM     22  C   UNL     1      -0.090  12.718  19.341  0.00  0.00    +0.000 C 
ATOM     23  C   UNL     1      -0.796  11.362  19.462  0.00  0.00    +0.000 C 
BRANCH  23  24
ATOM     24  S   UNL     1      -1.458  10.756  17.872  0.00  0.00    +0.000 S 
BRANCH  24  25
ATOM     25  C   UNL     1      -3.079  11.344  17.821  0.00  0.00    +0.000 A 
ATOM     26  N   UNL     1      -3.780  11.865  18.802  0.00  0.00    +0.000 NA
ATOM     27  N   UNL     1      -5.045  12.126  18.327  0.00  0.00    +0.000 NA
ATOM     28  C   UNL     1      -5.082  11.745  17.070  0.00  0.00    +0.000 A 
ATOM     29  N   UNL     1      -3.861  11.263  16.704  0.00  0.00    +0.000 N 
ATOM     30  C   UNL     1      -3.497  10.792  15.395  0.00  0.00    +0.000 C 
ENDBRANCH  24  25
ENDBRANCH  23  24
ENDBRANCH   1  23
TORSDOF 5
ENDMDL
MODEL 8
REMARK VINA RESULT:      -8.5      4.462      9.647
REMARK  Name = 
REMARK  7 active torsions:
REMARK  status: ('A' for Active; 'I' for Inactive)
REMARK    1  A    between atoms: C_1  and  C_2
REMARK    2  A    between atoms: C_2  and  S_3
REMARK    3  A    between atoms: C_2  and  C_10
REMARK    4  A    between atoms: S_3  and  C_4
REMARK    5  A    between atoms: N_8  and  C_9
REMARK    6  A    between atoms: C_15  and  N_16
REMARK    7  A    between atoms: C_23  and  C_24
REMARK                            x       y       z     vdW  Elec       q    Type
REMARK                         _______ _______ _______ _____ _____    ______ ____
ROOT
ATOM      1  C   UNL     1       0.064  10.400  20.996  0.00  0.00    +0.000 A 
ATOM      2  C   UNL     1       0.236  11.499  20.149  0.00  0.00    +0.000 A 
ATOM      3  C   UNL     1       0.992  11.370  18.989  0.00  0.00    +0.000 A 
ATOM      4  F   UNL     1       1.141  12.433  18.186  0.00  0.00    +0.000 F 
ATOM      5  C   UNL     1       1.586  10.161  18.644  0.00  0.00    +0.000 A 
ATOM      6  C   UNL     1       1.442   9.043  19.469  0.00  0.00    +0.000 A 
ATOM      7  C   UNL     1       0.690   9.190  20.647  0.00  0.00    +0.000 A 
ENDROOT
BRANCH   6   8
ATOM      8  N   UNL     1       2.020   7.785  19.148  0.00  0.00    +0.000 N 
ATOM      9  C   UNL     1       1.800   6.597  19.972  0.00  0.00    +0.000 C 
ATOM     10  C   UNL     1       2.590   5.537  19.273  0.00  0.00    +0.000 A 
ATOM     11  C   UNL     1       3.195   6.087  18.145  0.00  0.00    +0.000 A 
ATOM     12  C   UNL     1       4.007   5.359  17.295  0.00  0.00    +0.000 A 
ATOM     13  C   UNL     1       4.218   4.018  17.606  0.00  0.00    +0.000 A 
ATOM     14  C   UNL     1       3.611   3.442  18.739  0.00  0.00    +0.000 A 
ATOM     15  C   UNL     1       2.778   4.195  19.591  0.00  0.00    +0.000 A 
ATOM     16  C   UNL     1       2.830   7.502  18.053  0.00  0.00    +0.000 C 
ATOM     17  O   UNL     1       3.222   8.207  17.144  0.00  0.00    +0.000 OA
BRANCH  15  18
ATOM     18  C   UNL     1       2.138   3.535  20.785  0.00  0.00    +0.000 C 
ATOM     19  F   UNL     1       2.509   4.077  21.976  0.00  0.00    +0.000 F 
ATOM     20  F   UNL     1       0.778   3.616  20.749  0.00  0.00    +0.000 F 
ATOM     21  F   UNL     1       2.431   2.209  20.866  0.00  0.00    +0.000 F 
ENDBRANCH  15  18
ENDBRANCH   6   8
BRANCH   1  23
ATOM     22  C   UNL     1      -0.355   9.644  23.427  0.00  0.00    +0.000 C 
ATOM     23  C   UNL     1      -0.787  10.526  22.249  0.00  0.00    +0.000 C 
BRANCH  23  24
ATOM     24  S   UNL     1      -1.080  12.264  22.726  0.00  0.00    +0.000 S 
BRANCH  24  25
ATOM     25  C   UNL     1      -2.798  12.419  22.775  0.00  0.00    +0.000 A 
ATOM     26  N   UNL     1      -3.602  12.178  23.785  0.00  0.00    +0.000 NA
ATOM     27  N   UNL     1      -4.895  12.365  23.352  0.00  0.00    +0.000 NA
ATOM     28  C   UNL     1      -4.842  12.704  22.084  0.00  0.00    +0.000 A 
ATOM     29  N   UNL     1      -3.541  12.768  21.683  0.00  0.00    +0.000 N 
ATOM     30  C   UNL     1      -3.077  13.150  20.376  0.00  0.00    +0.000 C 
ENDBRANCH  24  25
ENDBRANCH  23  24
ENDBRANCH   1  23
TORSDOF 5
ENDMDL
MODEL 9
REMARK VINA RESULT:      -8.5      3.782      8.703
REMARK  Name = 
REMARK  7 active torsions:
REMARK  status: ('A' for Active; 'I' for Inactive)
REMARK    1  A    between atoms: C_1  and  C_2
REMARK    2  A    between atoms: C_2  and  S_3
REMARK    3  A    between atoms: C_2  and  C_10
REMARK    4  A    between atoms: S_3  and  C_4
REMARK    5  A    between atoms: N_8  and  C_9
REMARK    6  A    between atoms: C_15  and  N_16
REMARK    7  A    between atoms: C_23  and  C_24
REMARK                            x       y       z     vdW  Elec       q    Type
REMARK                         _______ _______ _______ _____ _____    ______ ____
ROOT
ATOM      1  C   UNL     1       0.768  10.536  19.900  0.00  0.00    +0.000 A 
ATOM      2  C   UNL     1       0.568  10.556  21.285  0.00  0.00    +0.000 A 
ATOM      3  C   UNL     1       0.864   9.431  22.044  0.00  0.00    +0.000 A 
ATOM      4  F   UNL     1       0.672   9.469  23.371  0.00  0.00    +0.000 F 
ATOM      5  C   UNL     1       1.361   8.272  21.458  0.00  0.00    +0.000 A 
ATOM      6  C   UNL     1       1.567   8.212  20.077  0.00  0.00    +0.000 A 
ATOM      7  C   UNL     1       1.249   9.351  19.317  0.00  0.00    +0.000 A 
ENDROOT
BRANCH   6   8
ATOM      8  N   UNL     1       2.086   7.054  19.438  0.00  0.00    +0.000 N 
ATOM      9  C   UNL     1       1.680   5.705  19.828  0.00  0.00    +0.000 C 
ATOM     10  C   UNL     1       2.470   4.825  18.912  0.00  0.00    +0.000 A 
ATOM     11  C   UNL     1       3.246   5.620  18.072  0.00  0.00    +0.000 A 
ATOM     12  C   UNL     1       4.101   5.098  17.119  0.00  0.00    +0.000 A 
ATOM     13  C   UNL     1       4.174   3.711  17.016  0.00  0.00    +0.000 A 
ATOM     14  C   UNL     1       3.392   2.890  17.853  0.00  0.00    +0.000 A 
ATOM     15  C   UNL     1       2.519   3.437  18.815  0.00  0.00    +0.000 A 
ATOM     16  C   UNL     1       3.000   7.028  18.390  0.00  0.00    +0.000 C 
ATOM     17  O   UNL     1       3.551   7.926  17.785  0.00  0.00    +0.000 OA
BRANCH  15  18
ATOM     18  C   UNL     1       1.691   2.522  19.679  0.00  0.00    +0.000 C 
ATOM     19  F   UNL     1       0.354   2.766  19.614  0.00  0.00    +0.000 F 
ATOM     20  F   UNL     1       1.844   1.213  19.335  0.00  0.00    +0.000 F 
ATOM     21  F   UNL     1       2.025   2.605  20.995  0.00  0.00    +0.000 F 
ENDBRANCH  15  18
ENDBRANCH   6   8
BRANCH   1  23
ATOM     22  C   UNL     1      -0.683  12.643  19.569  0.00  0.00    +0.000 C 
ATOM     23  C   UNL     1       0.477  11.775  19.068  0.00  0.00    +0.000 C 
BRANCH  23  24
ATOM     24  S   UNL     1       1.982  12.738  18.694  0.00  0.00    +0.000 S 
BRANCH  24  25
ATOM     25  C   UNL     1       2.206  13.751  20.073  0.00  0.00    +0.000 A 
ATOM     26  N   UNL     1       2.665  13.413  21.256  0.00  0.00    +0.000 NA
ATOM     27  N   UNL     1       2.603  14.523  22.067  0.00  0.00    +0.000 NA
ATOM     28  C   UNL     1       2.096  15.505  21.356  0.00  0.00    +0.000 A 
ATOM     29  N   UNL     1       1.848  15.069  20.089  0.00  0.00    +0.000 N 
ATOM     30  C   UNL     1       1.334  15.865  19.007  0.00  0.00    +0.000 C 
ENDBRANCH  24  25
ENDBRANCH  23  24
ENDBRANCH   1  23
TORSDOF 5
ENDMDL
