MODEL 1
REMARK VINA RESULT:      -7.4      0.000      0.000
REMARK  Name = 
REMARK  6 active torsions:
REMARK  status: ('A' for Active; 'I' for Inactive)
REMARK    1  A    between atoms: C_1  and  C_2
REMARK    2  A    between atoms: C_2  and  N_3
REMARK    3  A    between atoms: C_7  and  C_8
REMARK    4  A    between atoms: C_8  and  C_9
REMARK    5  A    between atoms: C_9  and  C_10
REMARK    6  A    between atoms: N_20  and  C_21
REMARK                            x       y       z     vdW  Elec       q    Type
REMARK                         _______ _______ _______ _____ _____    ______ ____
ROOT
ATOM      1  N   UNL     1      -0.036  10.561  19.406  0.00  0.00    +0.000 N 
ATOM      2  C   UNL     1      -1.242  10.791  18.746  0.00  0.00    +0.000 A 
ATOM      3  N   UNL     1      -1.571  10.028  17.673  0.00  0.00    +0.000 NA
ATOM      4  C   UNL     1      -2.801  10.181  17.118  0.00  0.00    +0.000 A 
ATOM      5  C   UNL     1      -3.745  11.105  17.542  0.00  0.00    +0.000 A 
ATOM      6  C   UNL     1      -3.355  11.947  18.575  0.00  0.00    +0.000 A 
ATOM      7  C   UNL     1      -2.117  11.758  19.194  0.00  0.00    +0.000 A 
ATOM      8  C   UNL     1      -1.816  12.587  20.355  0.00  0.00    +0.000 C 
ATOM      9  O   UNL     1      -1.994  13.800  20.261  0.00  0.00    +0.000 OA
ATOM     10  N   UNL     1      -1.672  11.909  21.557  0.00  0.00    +0.000 N 
ATOM     11  C   UNL     1      -2.424  12.468  22.668  0.00  0.00    +0.000 C 
ATOM     12  C   UNL     1      -0.747  10.821  21.771  0.00  0.00    +0.000 A 
ATOM     13  C   UNL     1      -0.588  10.325  23.079  0.00  0.00    +0.000 A 
ATOM     14  C   UNL     1       0.373   9.367  23.377  0.00  0.00    +0.000 A 
ATOM     15  C   UNL     1       1.187   8.939  22.355  0.00  0.00    +0.000 A 
ATOM     16  N   UNL     1       1.088   9.388  21.089  0.00  0.00    +0.000 NA
ATOM     17  C   UNL     1       0.112  10.287  20.771  0.00  0.00    +0.000 A 
ENDROOT
BRANCH   1  19
ATOM     18  C   UNL     1       1.821  12.080  18.651  0.00  0.00    +0.000 C 
ATOM     19  C   UNL     1       1.175  10.705  18.596  0.00  0.00    +0.000 C 
ENDBRANCH   1  19
BRANCH   5  20
ATOM     20  C   UNL     1      -5.118  11.264  16.943  0.00  0.00    +0.000 C 
BRANCH  20  21
ATOM     21  C   UNL     1      -6.129  11.979  17.848  0.00  0.00    +0.000 C 
BRANCH  21  22
ATOM     22  C   UNL     1      -6.720  11.106  18.929  0.00  0.00    +0.000 A 
ATOM     23  C   UNL     1      -7.341  11.707  20.021  0.00  0.00    +0.000 A 
ATOM     24  C   UNL     1      -7.904  10.898  21.007  0.00  0.00    +0.000 A 
ATOM     25  C   UNL     1      -7.835   9.520  20.881  0.00  0.00    +0.000 A 
ATOM     26  C   UNL     1      -7.202   9.002  19.764  0.00  0.00    +0.000 A 
ATOM     27  N   UNL     1      -6.645   9.761  18.794  0.00  0.00    +0.000 NA
ENDBRANCH  21  22
ENDBRANCH  20  21
ENDBRANCH   5  20
TORSDOF 4
ENDMDL
MODEL 2
REMARK VINA RESULT:      -7.2      3.590      6.985
REMARK  Name = 
REMARK  6 active torsions:
REMARK  status: ('A' for Active; 'I' for Inactive)
REMARK    1  A    between atoms: C_1  and  C_2
REMARK    2  A    between atoms: C_2  and  N_3
REMARK    3  A    between atoms: C_7  and  C_8
REMARK    4  A    between atoms: C_8  and  C_9
REMARK    5  A    between atoms: C_9  and  C_10
REMARK    6  A    between atoms: N_20  and  C_21
REMARK                            x       y       z     vdW  Elec       q    Type
REMARK                         _______ _______ _______ _____ _____    ______ ____
ROOT
ATOM      1  N   UNL     1      -0.603  10.891  18.965  0.00  0.00    +0.000 N 
ATOM      2  C   UNL     1       0.333   9.860  18.893  0.00  0.00    +0.000 A 
ATOM      3  N   UNL     1       1.154   9.780  17.814  0.00  0.00    +0.000 NA
ATOM      4  C   UNL     1       2.141   8.847  17.815  0.00  0.00    +0.000 A 
ATOM      5  C   UNL     1       2.348   7.924  18.830  0.00  0.00    +0.000 A 
ATOM      6  C   UNL     1       1.438   7.954  19.879  0.00  0.00    +0.000 A 
ATOM      7  C   UNL     1       0.457   8.948  19.918  0.00  0.00    +0.000 A 
ATOM      8  C   UNL     1      -0.387   9.008  21.105  0.00  0.00    +0.000 C 
ATOM      9  O   UNL     1      -0.911   7.966  21.495  0.00  0.00    +0.000 OA
ATOM     10  N   UNL     1      -0.263  10.156  21.874  0.00  0.00    +0.000 N 
ATOM     11  C   UNL     1      -0.086   9.921  23.298  0.00  0.00    +0.000 C 
ATOM     12  C   UNL     1      -0.436  11.496  21.367  0.00  0.00    +0.000 A 
ATOM     13  C   UNL     1      -0.439  12.565  22.285  0.00  0.00    +0.000 A 
ATOM     14  C   UNL     1      -0.724  13.863  21.883  0.00  0.00    +0.000 A 
ATOM     15  C   UNL     1      -1.034  14.069  20.560  0.00  0.00    +0.000 A 
ATOM     16  N   UNL     1      -1.060  13.083  19.641  0.00  0.00    +0.000 NA
ATOM     17  C   UNL     1      -0.727  11.813  20.012  0.00  0.00    +0.000 A 
ENDROOT
BRANCH   1  19
ATOM     18  C   UNL     1      -2.771  10.008  18.045  0.00  0.00    +0.000 C 
ATOM     19  C   UNL     1      -1.584  10.943  17.880  0.00  0.00    +0.000 C 
ENDBRANCH   1  19
BRANCH   5  20
ATOM     20  C   UNL     1       3.453   6.901  18.846  0.00  0.00    +0.000 C 
BRANCH  20  21
ATOM     21  C   UNL     1       3.080   5.549  18.227  0.00  0.00    +0.000 C 
BRANCH  21  22
ATOM     22  C   UNL     1       2.410   4.593  19.185  0.00  0.00    +0.000 A 
ATOM     23  C   UNL     1       2.790   4.600  20.525  0.00  0.00    +0.000 A 
ATOM     24  C   UNL     1       2.155   3.732  21.412  0.00  0.00    +0.000 A 
ATOM     25  C   UNL     1       1.165   2.883  20.945  0.00  0.00    +0.000 A 
ATOM     26  C   UNL     1       0.846   2.938  19.598  0.00  0.00    +0.000 A 
ATOM     27  N   UNL     1       1.445   3.768  18.716  0.00  0.00    +0.000 NA
ENDBRANCH  21  22
ENDBRANCH  20  21
ENDBRANCH   5  20
TORSDOF 4
ENDMDL
MODEL 3
REMARK VINA RESULT:      -7.1     10.597     12.731
REMARK  Name = 
REMARK  6 active torsions:
REMARK  status: ('A' for Active; 'I' for Inactive)
REMARK    1  A    between atoms: C_1  and  C_2
REMARK    2  A    between atoms: C_2  and  N_3
REMARK    3  A    between atoms: C_7  and  C_8
REMARK    4  A    between atoms: C_8  and  C_9
REMARK    5  A    between atoms: C_9  and  C_10
REMARK    6  A    between atoms: N_20  and  C_21
REMARK                            x       y       z     vdW  Elec       q    Type
REMARK                         _______ _______ _______ _____ _____    ______ ____
ROOT
ATOM      1  N   UNL     1      10.555  14.781  18.992  0.00  0.00    +0.000 N 
ATOM      2  C   UNL     1      10.212  13.432  18.890  0.00  0.00    +0.000 A 
ATOM      3  N   UNL     1      11.147  12.485  19.158  0.00  0.00    +0.000 NA
ATOM      4  C   UNL     1      10.766  11.181  19.175  0.00  0.00    +0.000 A 
ATOM      5  C   UNL     1       9.485  10.733  18.889  0.00  0.00    +0.000 A 
ATOM      6  C   UNL     1       8.566  11.707  18.518  0.00  0.00    +0.000 A 
ATOM      7  C   UNL     1       8.930  13.055  18.556  0.00  0.00    +0.000 A 
ATOM      8  C   UNL     1       7.888  14.037  18.281  0.00  0.00    +0.000 C 
ATOM      9  O   UNL     1       7.193  13.877  17.280  0.00  0.00    +0.000 OA
ATOM     10  N   UNL     1       7.557  14.875  19.338  0.00  0.00    +0.000 N 
ATOM     11  C   UNL     1       6.132  14.992  19.601  0.00  0.00    +0.000 C 
ATOM     12  C   UNL     1       8.505  15.698  20.049  0.00  0.00    +0.000 A 
ATOM     13  C   UNL     1       8.014  16.619  20.995  0.00  0.00    +0.000 A 
ATOM     14  C   UNL     1       8.857  17.527  21.624  0.00  0.00    +0.000 A 
ATOM     15  C   UNL     1      10.185  17.517  21.271  0.00  0.00    +0.000 A 
ATOM     16  N   UNL     1      10.707  16.668  20.364  0.00  0.00    +0.000 NA
ATOM     17  C   UNL     1       9.901  15.734  19.780  0.00  0.00    +0.000 A 
ENDROOT
BRANCH   1  19
ATOM     18  C   UNL     1      11.218  15.694  16.744  0.00  0.00    +0.000 C 
ATOM     19  C   UNL     1      11.647  15.231  18.127  0.00  0.00    +0.000 C 
ENDBRANCH   1  19
BRANCH   5  20
ATOM     20  C   UNL     1       9.052   9.292  18.926  0.00  0.00    +0.000 C 
BRANCH  20  21
ATOM     21  C   UNL     1       8.007   8.912  17.871  0.00  0.00    +0.000 C 
BRANCH  21  22
ATOM     22  C   UNL     1       7.775   7.426  17.735  0.00  0.00    +0.000 A 
ATOM     23  C   UNL     1       7.987   6.603  18.839  0.00  0.00    +0.000 A 
ATOM     24  C   UNL     1       7.752   5.235  18.717  0.00  0.00    +0.000 A 
ATOM     25  C   UNL     1       7.314   4.723  17.506  0.00  0.00    +0.000 A 
ATOM     26  C   UNL     1       7.126   5.608  16.458  0.00  0.00    +0.000 A 
ATOM     27  N   UNL     1       7.349   6.938  16.547  0.00  0.00    +0.000 NA
ENDBRANCH  21  22
ENDBRANCH  20  21
ENDBRANCH   5  20
TORSDOF 4
ENDMDL
MODEL 4
REMARK VINA RESULT:      -7.1      3.993      7.289
REMARK  Name = 
REMARK  6 active torsions:
REMARK  status: ('A' for Active; 'I' for Inactive)
REMARK    1  A    between atoms: C_1  and  C_2
REMARK    2  A    between atoms: C_2  and  N_3
REMARK    3  A    between atoms: C_7  and  C_8
REMARK    4  A    between atoms: C_8  and  C_9
REMARK    5  A    between atoms: C_9  and  C_10
REMARK    6  A    between atoms: N_20  and  C_21
REMARK                            x       y       z     vdW  Elec       q    Type
REMARK                         _______ _______ _______ _____ _____    ______ ____
ROOT
ATOM      1  N   UNL     1      -0.567  10.907  19.013  0.00  0.00    +0.000 N 
ATOM      2  C   UNL     1       0.365   9.871  18.936  0.00  0.00    +0.000 A 
ATOM      3  N   UNL     1       1.191   9.797  17.861  0.00  0.00    +0.000 NA
ATOM      4  C   UNL     1       2.173   8.859  17.859  0.00  0.00    +0.000 A 
ATOM      5  C   UNL     1       2.371   7.926  18.866  0.00  0.00    +0.000 A 
ATOM      6  C   UNL     1       1.455   7.951  19.911  0.00  0.00    +0.000 A 
ATOM      7  C   UNL     1       0.479   8.949  19.953  0.00  0.00    +0.000 A 
ATOM      8  C   UNL     1      -0.371   9.003  21.136  0.00  0.00    +0.000 C 
ATOM      9  O   UNL     1      -0.902   7.960  21.515  0.00  0.00    +0.000 OA
ATOM     10  N   UNL     1      -0.245  10.144  21.917  0.00  0.00    +0.000 N 
ATOM     11  C   UNL     1      -0.077   9.896  23.339  0.00  0.00    +0.000 C 
ATOM     12  C   UNL     1      -0.409  11.489  21.421  0.00  0.00    +0.000 A 
ATOM     13  C   UNL     1      -0.411  12.550  22.348  0.00  0.00    +0.000 A 
ATOM     14  C   UNL     1      -0.688  13.853  21.956  0.00  0.00    +0.000 A 
ATOM     15  C   UNL     1      -0.990  14.072  20.633  0.00  0.00    +0.000 A 
ATOM     16  N   UNL     1      -1.016  13.095  19.705  0.00  0.00    +0.000 NA
ATOM     17  C   UNL     1      -0.691  11.819  20.066  0.00  0.00    +0.000 A 
ENDROOT
BRANCH   1  19
ATOM     18  C   UNL     1      -2.518   9.810  17.867  0.00  0.00    +0.000 C 
ATOM     19  C   UNL     1      -1.542  10.973  17.923  0.00  0.00    +0.000 C 
ENDBRANCH   1  19
BRANCH   5  20
ATOM     20  C   UNL     1       3.471   6.897  18.879  0.00  0.00    +0.000 C 
BRANCH  20  21
ATOM     21  C   UNL     1       3.337   5.807  17.808  0.00  0.00    +0.000 C 
BRANCH  21  22
ATOM     22  C   UNL     1       2.841   4.481  18.332  0.00  0.00    +0.000 A 
ATOM     23  C   UNL     1       1.529   4.096  18.065  0.00  0.00    +0.000 A 
ATOM     24  C   UNL     1       1.079   2.862  18.532  0.00  0.00    +0.000 A 
ATOM     25  C   UNL     1       1.942   2.047  19.248  0.00  0.00    +0.000 A 
ATOM     26  C   UNL     1       3.230   2.504  19.470  0.00  0.00    +0.000 A 
ATOM     27  N   UNL     1       3.693   3.696  19.032  0.00  0.00    +0.000 NA
ENDBRANCH  21  22
ENDBRANCH  20  21
ENDBRANCH   5  20
TORSDOF 4
ENDMDL
MODEL 5
REMARK VINA RESULT:      -7.1      3.003      7.182
REMARK  Name = 
REMARK  6 active torsions:
REMARK  status: ('A' for Active; 'I' for Inactive)
REMARK    1  A    between atoms: C_1  and  C_2
REMARK    2  A    between atoms: C_2  and  N_3
REMARK    3  A    between atoms: C_7  and  C_8
REMARK    4  A    between atoms: C_8  and  C_9
REMARK    5  A    between atoms: C_9  and  C_10
REMARK    6  A    between atoms: N_20  and  C_21
REMARK                            x       y       z     vdW  Elec       q    Type
REMARK                         _______ _______ _______ _____ _____    ______ ____
ROOT
ATOM      1  N   UNL     1      -1.690  12.719  22.266  0.00  0.00    +0.000 N 
ATOM      2  C   UNL     1      -0.946  11.558  22.058  0.00  0.00    +0.000 A 
ATOM      3  N   UNL     1      -0.529  10.832  23.127  0.00  0.00    +0.000 NA
ATOM      4  C   UNL     1       0.087   9.642  22.906  0.00  0.00    +0.000 A 
ATOM      5  C   UNL     1       0.367   9.124  21.650  0.00  0.00    +0.000 A 
ATOM      6  C   UNL     1       0.025   9.925  20.568  0.00  0.00    +0.000 A 
ATOM      7  C   UNL     1      -0.663  11.122  20.781  0.00  0.00    +0.000 A 
ATOM      8  C   UNL     1      -1.109  11.857  19.604  0.00  0.00    +0.000 C 
ATOM      9  O   UNL     1      -0.292  12.061  18.707  0.00  0.00    +0.000 OA
ATOM     10  N   UNL     1      -2.484  11.971  19.451  0.00  0.00    +0.000 N 
ATOM     11  C   UNL     1      -2.982  11.627  18.129  0.00  0.00    +0.000 C 
ATOM     12  C   UNL     1      -3.369  12.523  20.448  0.00  0.00    +0.000 A 
ATOM     13  C   UNL     1      -4.720  12.727  20.106  0.00  0.00    +0.000 A 
ATOM     14  C   UNL     1      -5.596  13.367  20.972  0.00  0.00    +0.000 A 
ATOM     15  C   UNL     1      -5.094  13.824  22.167  0.00  0.00    +0.000 A 
ATOM     16  N   UNL     1      -3.809  13.669  22.541  0.00  0.00    +0.000 NA
ATOM     17  C   UNL     1      -2.951  12.992  21.724  0.00  0.00    +0.000 A 
ENDROOT
BRANCH   1  19
ATOM     18  C   UNL     1       0.051  14.533  22.330  0.00  0.00    +0.000 C 
ATOM     19  C   UNL     1      -1.038  13.763  23.059  0.00  0.00    +0.000 C 
ENDBRANCH   1  19
BRANCH   5  20
ATOM     20  C   UNL     1       1.031   7.796  21.399  0.00  0.00    +0.000 C 
BRANCH  20  21
ATOM     21  C   UNL     1       1.940   7.759  20.165  0.00  0.00    +0.000 C 
BRANCH  21  22
ATOM     22  C   UNL     1       2.223   6.370  19.645  0.00  0.00    +0.000 A 
ATOM     23  C   UNL     1       1.842   5.270  20.409  0.00  0.00    +0.000 A 
ATOM     24  C   UNL     1       2.085   3.989  19.917  0.00  0.00    +0.000 A 
ATOM     25  C   UNL     1       2.699   3.837  18.684  0.00  0.00    +0.000 A 
ATOM     26  C   UNL     1       3.046   4.982  17.986  0.00  0.00    +0.000 A 
ATOM     27  N   UNL     1       2.824   6.236  18.440  0.00  0.00    +0.000 NA
ENDBRANCH  21  22
ENDBRANCH  20  21
ENDBRANCH   5  20
TORSDOF 4
ENDMDL
MODEL 6
REMARK VINA RESULT:      -6.9      3.289      7.067
REMARK  Name = 
REMARK  6 active torsions:
REMARK  status: ('A' for Active; 'I' for Inactive)
REMARK    1  A    between atoms: C_1  and  C_2
REMARK    2  A    between atoms: C_2  and  N_3
REMARK    3  A    between atoms: C_7  and  C_8
REMARK    4  A    between atoms: C_8  and  C_9
REMARK    5  A    between atoms: C_9  and  C_10
REMARK    6  A    between atoms: N_20  and  C_21
REMARK                            x       y       z     vdW  Elec       q    Type
REMARK                         _______ _______ _______ _____ _____    ______ ____
ROOT
ATOM      1  N   UNL     1      -1.367  11.951  21.867  0.00  0.00    +0.000 N 
ATOM      2  C   UNL     1      -0.486  10.931  21.506  0.00  0.00    +0.000 A 
ATOM      3  N   UNL     1      -0.120  10.008  22.433  0.00  0.00    +0.000 NA
ATOM      4  C   UNL     1       0.638   8.953  22.036  0.00  0.00    +0.000 A 
ATOM      5  C   UNL     1       1.113   8.768  20.746  0.00  0.00    +0.000 A 
ATOM      6  C   UNL     1       0.815   9.773  19.834  0.00  0.00    +0.000 A 
ATOM      7  C   UNL     1      -0.015  10.831  20.215  0.00  0.00    +0.000 A 
ATOM      8  C   UNL     1      -0.398  11.785  19.182  0.00  0.00    +0.000 C 
ATOM      9  O   UNL     1       0.490  12.257  18.473  0.00  0.00    +0.000 OA
ATOM     10  N   UNL     1      -1.750  11.828  18.874  0.00  0.00    +0.000 N 
ATOM     11  C   UNL     1      -2.055  11.768  17.454  0.00  0.00    +0.000 C 
ATOM     12  C   UNL     1      -2.797  12.061  19.840  0.00  0.00    +0.000 A 
ATOM     13  C   UNL     1      -4.114  12.237  19.372  0.00  0.00    +0.000 A 
ATOM     14  C   UNL     1      -5.146  12.588  20.233  0.00  0.00    +0.000 A 
ATOM     15  C   UNL     1      -4.835  12.787  21.556  0.00  0.00    +0.000 A 
ATOM     16  N   UNL     1      -3.592  12.645  22.057  0.00  0.00    +0.000 NA
ATOM     17  C   UNL     1      -2.579  12.247  21.233  0.00  0.00    +0.000 A 
ENDROOT
BRANCH   1  19
ATOM     18  C   UNL     1      -0.597  14.249  22.535  0.00  0.00    +0.000 C 
ATOM     19  C   UNL     1      -0.923  12.825  22.953  0.00  0.00    +0.000 C 
ENDBRANCH   1  19
BRANCH   5  20
ATOM     20  C   UNL     1       1.937   7.590  20.296  0.00  0.00    +0.000 C 
BRANCH  20  21
ATOM     21  C   UNL     1       1.546   6.255  20.942  0.00  0.00    +0.000 C 
BRANCH  21  22
ATOM     22  C   UNL     1       1.561   5.080  19.993  0.00  0.00    +0.000 A 
ATOM     23  C   UNL     1       1.011   3.869  20.407  0.00  0.00    +0.000 A 
ATOM     24  C   UNL     1       1.007   2.792  19.522  0.00  0.00    +0.000 A 
ATOM     25  C   UNL     1       1.547   2.947  18.255  0.00  0.00    +0.000 A 
ATOM     26  C   UNL     1       2.073   4.184  17.922  0.00  0.00    +0.000 A 
ATOM     27  N   UNL     1       2.093   5.245  18.760  0.00  0.00    +0.000 NA
ENDBRANCH  21  22
ENDBRANCH  20  21
ENDBRANCH   5  20
TORSDOF 4
ENDMDL
MODEL 7
REMARK VINA RESULT:      -6.7      4.414      8.352
REMARK  Name = 
REMARK  6 active torsions:
REMARK  status: ('A' for Active; 'I' for Inactive)
REMARK    1  A    between atoms: C_1  and  C_2
REMARK    2  A    between atoms: C_2  and  N_3
REMARK    3  A    between atoms: C_7  and  C_8
REMARK    4  A    between atoms: C_8  and  C_9
REMARK    5  A    between atoms: C_9  and  C_10
REMARK    6  A    between atoms: N_20  and  C_21
REMARK                            x       y       z     vdW  Elec       q    Type
REMARK                         _______ _______ _______ _____ _____    ______ ____
ROOT
ATOM      1  N   UNL     1      -0.335  10.644  18.854  0.00  0.00    +0.000 N 
ATOM      2  C   UNL     1       0.570   9.582  18.877  0.00  0.00    +0.000 A 
ATOM      3  N   UNL     1       1.426   9.413  17.836  0.00  0.00    +0.000 NA
ATOM      4  C   UNL     1       2.381   8.452  17.929  0.00  0.00    +0.000 A 
ATOM      5  C   UNL     1       2.522   7.585  19.003  0.00  0.00    +0.000 A 
ATOM      6  C   UNL     1       1.576   7.705  20.014  0.00  0.00    +0.000 A 
ATOM      7  C   UNL     1       0.627   8.729  19.958  0.00  0.00    +0.000 A 
ATOM      8  C   UNL     1      -0.256   8.886  21.106  0.00  0.00    +0.000 C 
ATOM      9  O   UNL     1      -0.827   7.885  21.537  0.00  0.00    +0.000 OA
ATOM     10  N   UNL     1      -0.122  10.074  21.812  0.00  0.00    +0.000 N 
ATOM     11  C   UNL     1      -0.004   9.919  23.252  0.00  0.00    +0.000 C 
ATOM     12  C   UNL     1      -0.234  11.386  21.221  0.00  0.00    +0.000 A 
ATOM     13  C   UNL     1      -0.234  12.507  22.074  0.00  0.00    +0.000 A 
ATOM     14  C   UNL     1      -0.462  13.787  21.586  0.00  0.00    +0.000 A 
ATOM     15  C   UNL     1      -0.718  13.922  20.242  0.00  0.00    +0.000 A 
ATOM     16  N   UNL     1      -0.743  12.885  19.382  0.00  0.00    +0.000 NA
ATOM     17  C   UNL     1      -0.465  11.629  19.839  0.00  0.00    +0.000 A 
ENDROOT
BRANCH   1  19
ATOM     18  C   UNL     1      -2.565   9.895  17.967  0.00  0.00    +0.000 C 
ATOM     19  C   UNL     1      -1.274  10.660  17.731  0.00  0.00    +0.000 C 
ENDBRANCH   1  19
BRANCH   5  20
ATOM     20  C   UNL     1       3.592   6.532  19.120  0.00  0.00    +0.000 C 
BRANCH  20  21
ATOM     21  C   UNL     1       3.472   5.386  18.109  0.00  0.00    +0.000 C 
BRANCH  21  22
ATOM     22  C   UNL     1       4.715   5.156  17.282  0.00  0.00    +0.000 A 
ATOM     23  C   UNL     1       5.774   6.055  17.387  0.00  0.00    +0.000 A 
ATOM     24  C   UNL     1       6.928   5.829  16.639  0.00  0.00    +0.000 A 
ATOM     25  C   UNL     1       6.998   4.721  15.810  0.00  0.00    +0.000 A 
ATOM     26  C   UNL     1       5.902   3.876  15.764  0.00  0.00    +0.000 A 
ATOM     27  N   UNL     1       4.770   4.071  16.476  0.00  0.00    +0.000 NA
ENDBRANCH  21  22
ENDBRANCH  20  21
ENDBRANCH   5  20
TORSDOF 4
ENDMDL
MODEL 8
REMARK VINA RESULT:      -6.7      1.677      2.413
REMARK  Name = 
REMARK  6 active torsions:
REMARK  status: ('A' for Active; 'I' for Inactive)
REMARK    1  A    between atoms: C_1  and  C_2
REMARK    2  A    between atoms: C_2  and  N_3
REMARK    3  A    between atoms: C_7  and  C_8
REMARK    4  A    between atoms: C_8  and  C_9
REMARK    5  A    between atoms: C_9  and  C_10
REMARK    6  A    between atoms: N_20  and  C_21
REMARK                            x       y       z     vdW  Elec       q    Type
REMARK                         _______ _______ _______ _____ _____    ______ ____
ROOT
ATOM      1  N   UNL     1       0.024  10.538  19.418  0.00  0.00    +0.000 N 
ATOM      2  C   UNL     1      -1.153  10.788  18.711  0.00  0.00    +0.000 A 
ATOM      3  N   UNL     1      -1.460  10.018  17.636  0.00  0.00    +0.000 NA
ATOM      4  C   UNL     1      -2.665  10.192  17.034  0.00  0.00    +0.000 A 
ATOM      5  C   UNL     1      -3.602  11.144  17.412  0.00  0.00    +0.000 A 
ATOM      6  C   UNL     1      -3.230  11.990  18.449  0.00  0.00    +0.000 A 
ATOM      7  C   UNL     1      -2.019  11.781  19.114  0.00  0.00    +0.000 A 
ATOM      8  C   UNL     1      -1.741  12.617  20.276  0.00  0.00    +0.000 C 
ATOM      9  O   UNL     1      -1.887  13.832  20.160  0.00  0.00    +0.000 OA
ATOM     10  N   UNL     1      -1.658  11.951  21.491  0.00  0.00    +0.000 N 
ATOM     11  C   UNL     1      -2.437  12.542  22.566  0.00  0.00    +0.000 C 
ATOM     12  C   UNL     1      -0.767  10.845  21.751  0.00  0.00    +0.000 A 
ATOM     13  C   UNL     1      -0.667  10.362  23.071  0.00  0.00    +0.000 A 
ATOM     14  C   UNL     1       0.259   9.386  23.415  0.00  0.00    +0.000 A 
ATOM     15  C   UNL     1       1.098   8.925  22.429  0.00  0.00    +0.000 A 
ATOM     16  N   UNL     1       1.057   9.360  21.154  0.00  0.00    +0.000 NA
ATOM     17  C   UNL     1       0.115  10.278  20.790  0.00  0.00    +0.000 A 
ENDROOT
BRANCH   1  19
ATOM     18  C   UNL     1       1.855  12.042  18.576  0.00  0.00    +0.000 C 
ATOM     19  C   UNL     1       1.266  10.643  18.651  0.00  0.00    +0.000 C 
ENDBRANCH   1  19
BRANCH   5  20
ATOM     20  C   UNL     1      -4.947  11.327  16.761  0.00  0.00    +0.000 C 
BRANCH  20  21
ATOM     21  C   UNL     1      -6.076  11.708  17.727  0.00  0.00    +0.000 C 
BRANCH  21  22
ATOM     22  C   UNL     1      -6.436  13.175  17.712  0.00  0.00    +0.000 A 
ATOM     23  C   UNL     1      -6.447  13.882  18.912  0.00  0.00    +0.000 A 
ATOM     24  C   UNL     1      -6.759  15.240  18.892  0.00  0.00    +0.000 A 
ATOM     25  C   UNL     1      -7.051  15.856  17.686  0.00  0.00    +0.000 A 
ATOM     26  C   UNL     1      -7.017  15.083  16.538  0.00  0.00    +0.000 A 
ATOM     27  N   UNL     1      -6.720  13.764  16.527  0.00  0.00    +0.000 NA
ENDBRANCH  21  22
ENDBRANCH  20  21
ENDBRANCH   5  20
TORSDOF 4
ENDMDL
MODEL 9
REMARK VINA RESULT:      -6.7      3.898      7.314
REMARK  Name = 
REMARK  6 active torsions:
REMARK  status: ('A' for Active; 'I' for Inactive)
REMARK    1  A    between atoms: C_1  and  C_2
REMARK    2  A    between atoms: C_2  and  N_3
REMARK    3  A    between atoms: C_7  and  C_8
REMARK    4  A    between atoms: C_8  and  C_9
REMARK    5  A    between atoms: C_9  and  C_10
REMARK    6  A    between atoms: N_20  and  C_21
REMARK                            x       y       z     vdW  Elec       q    Type
REMARK                         _______ _______ _______ _____ _____    ______ ____
ROOT
ATOM      1  N   UNL     1      -0.002  10.394  18.554  0.00  0.00    +0.000 N 
ATOM      2  C   UNL     1       0.920   9.348  18.572  0.00  0.00    +0.000 A 
ATOM      3  N   UNL     1       1.713   9.139  17.490  0.00  0.00    +0.000 NA
ATOM      4  C   UNL     1       2.688   8.198  17.570  0.00  0.00    +0.000 A 
ATOM      5  C   UNL     1       2.911   7.389  18.675  0.00  0.00    +0.000 A 
ATOM      6  C   UNL     1       2.028   7.546  19.735  0.00  0.00    +0.000 A 
ATOM      7  C   UNL     1       1.060   8.552  19.688  0.00  0.00    +0.000 A 
ATOM      8  C   UNL     1       0.246   8.754  20.881  0.00  0.00    +0.000 C 
ATOM      9  O   UNL     1      -0.279   7.768  21.396  0.00  0.00    +0.000 OA
ATOM     10  N   UNL     1       0.404   9.978  21.517  0.00  0.00    +0.000 N 
ATOM     11  C   UNL     1       0.613   9.898  22.953  0.00  0.00    +0.000 C 
ATOM     12  C   UNL     1       0.233  11.257  20.870  0.00  0.00    +0.000 A 
ATOM     13  C   UNL     1       0.266  12.419  21.665  0.00  0.00    +0.000 A 
ATOM     14  C   UNL     1      -0.014  13.670  21.129  0.00  0.00    +0.000 A 
ATOM     15  C   UNL     1      -0.356  13.733  19.799  0.00  0.00    +0.000 A 
ATOM     16  N   UNL     1      -0.416  12.654  18.995  0.00  0.00    +0.000 NA
ATOM     17  C   UNL     1      -0.089  11.426  19.495  0.00  0.00    +0.000 A 
ENDROOT
BRANCH   1  19
ATOM     18  C   UNL     1      -2.415  10.004  17.962  0.00  0.00    +0.000 C 
ATOM     19  C   UNL     1      -1.009  10.341  17.493  0.00  0.00    +0.000 C 
ENDBRANCH   1  19
BRANCH   5  20
ATOM     20  C   UNL     1       4.004   6.358  18.776  0.00  0.00    +0.000 C 
BRANCH  20  21
ATOM     21  C   UNL     1       3.613   4.962  18.277  0.00  0.00    +0.000 C 
BRANCH  21  22
ATOM     22  C   UNL     1       2.740   4.184  19.233  0.00  0.00    +0.000 A 
ATOM     23  C   UNL     1       1.510   3.704  18.788  0.00  0.00    +0.000 A 
ATOM     24  C   UNL     1       0.716   2.968  19.665  0.00  0.00    +0.000 A 
ATOM     25  C   UNL     1       1.163   2.730  20.955  0.00  0.00    +0.000 A 
ATOM     26  C   UNL     1       2.398   3.241  21.318  0.00  0.00    +0.000 A 
ATOM     27  N   UNL     1       3.188   3.959  20.490  0.00  0.00    +0.000 NA
ENDBRANCH  21  22
ENDBRANCH  20  21
ENDBRANCH   5  20
TORSDOF 4
ENDMDL
