MODEL 1
REMARK VINA RESULT:      -8.4      0.000      0.000
REMARK  Name = 
REMARK  6 active torsions:
REMARK  status: ('A' for Active; 'I' for Inactive)
REMARK    1  A    between atoms: C_2  and  C_20
REMARK    2  A    between atoms: N_3  and  C_4
REMARK    3  A    between atoms: C_4  and  C_5
REMARK    4  A    between atoms: C_8  and  S_9
REMARK    5  A    between atoms: S_9  and  N_12
REMARK    6  A    between atoms: C_26  and  O_27
REMARK                            x       y       z     vdW  Elec       q    Type
REMARK                         _______ _______ _______ _____ _____    ______ ____
ROOT
ATOM      1  C   UNL     1       1.603   8.847  19.177  0.00  0.00    +0.000 A 
ATOM      2  C   UNL     1       2.233   8.795  17.925  0.00  0.00    +0.000 A 
ATOM      3  C   UNL     1       3.044   7.709  17.584  0.00  0.00    +0.000 A 
ATOM      4  C   UNL     1       3.216   6.661  18.491  0.00  0.00    +0.000 A 
ATOM      5  C   UNL     1       2.537   6.660  19.710  0.00  0.00    +0.000 A 
ATOM      6  C   UNL     1       1.737   7.753  20.051  0.00  0.00    +0.000 A 
ENDROOT
BRANCH   4   7
ATOM      7  S   UNL     1       4.328   5.326  18.097  0.00  0.00    +0.000 S 
ATOM      8  O   UNL     1       4.878   4.852  19.350  0.00  0.00    +0.000 OA
ATOM      9  O   UNL     1       3.629   4.422  17.205  0.00  0.00    +0.000 OA
BRANCH   7  10
ATOM     10  N   UNL     1       5.586   6.053  17.205  0.00  0.00    +0.000 NA
ATOM     11  C   UNL     1       5.801   5.608  15.794  0.00  0.00    +0.000 C 
ATOM     12  C   UNL     1       6.607   4.306  15.708  0.00  0.00    +0.000 C 
ATOM     13  O   UNL     1       7.856   4.410  16.404  0.00  0.00    +0.000 OA
ATOM     14  C   UNL     1       7.656   4.754  17.782  0.00  0.00    +0.000 C 
ATOM     15  C   UNL     1       6.910   6.086  17.917  0.00  0.00    +0.000 C 
ENDBRANCH   7  10
ENDBRANCH   4   7
BRANCH   1  16
ATOM     16  C   UNL     1       0.824  10.067  19.595  0.00  0.00    +0.000 C 
BRANCH  16  19
ATOM     17  O   UNL     1      -0.644  12.404  19.285  0.00  0.00    +0.000 OA
ATOM     18  C   UNL     1      -1.103  11.357  18.834  0.00  0.00    +0.000 C 
ATOM     19  N   UNL     1      -0.470  10.143  18.970  0.00  0.00    +0.000 N 
ATOM     20  H   UNL     1      -0.809   9.365  18.414  0.00  0.00    +0.000 HD
BRANCH  18  21
ATOM     21  C   UNL     1      -2.421  11.365  18.142  0.00  0.00    +0.000 A 
ATOM     22  C   UNL     1      -2.461  10.818  16.849  0.00  0.00    +0.000 A 
ATOM     23  C   UNL     1      -3.652  10.810  16.129  0.00  0.00    +0.000 A 
ATOM     24 CL   UNL     1      -3.684  10.174  14.532  0.00  0.00    +0.000 Cl
ATOM     25  C   UNL     1      -4.819  11.327  16.689  0.00  0.00    +0.000 A 
ATOM     26  C   UNL     1      -4.795  11.861  17.980  0.00  0.00    +0.000 A 
ATOM     27  C   UNL     1      -3.600  11.883  18.702  0.00  0.00    +0.000 A 
BRANCH  27  28
ATOM     28  O   UNL     1      -3.596  12.414  19.964  0.00  0.00    +0.000 OA
ATOM     29  H   UNL     1      -3.473  11.696  20.611  0.00  0.00    +0.000 HD
ENDBRANCH  27  28
ENDBRANCH  18  21
ENDBRANCH  16  19
ENDBRANCH   1  16
TORSDOF 6
ENDMDL
MODEL 2
REMARK VINA RESULT:      -8.3      0.473      1.044
REMARK  Name = 
REMARK  6 active torsions:
REMARK  status: ('A' for Active; 'I' for Inactive)
REMARK    1  A    between atoms: C_2  and  C_20
REMARK    2  A    between atoms: N_3  and  C_4
REMARK    3  A    between atoms: C_4  and  C_5
REMARK    4  A    between atoms: C_8  and  S_9
REMARK    5  A    between atoms: S_9  and  N_12
REMARK    6  A    between atoms: C_26  and  O_27
REMARK                            x       y       z     vdW  Elec       q    Type
REMARK                         _______ _______ _______ _____ _____    ______ ____
ROOT
ATOM      1  C   UNL     1       1.567   8.707  19.434  0.00  0.00    +0.000 A 
ATOM      2  C   UNL     1       1.824   7.606  20.264  0.00  0.00    +0.000 A 
ATOM      3  C   UNL     1       2.641   6.561  19.824  0.00  0.00    +0.000 A 
ATOM      4  C   UNL     1       3.220   6.621  18.555  0.00  0.00    +0.000 A 
ATOM      5  C   UNL     1       3.037   7.743  17.745  0.00  0.00    +0.000 A 
ATOM      6  C   UNL     1       2.210   8.780  18.185  0.00  0.00    +0.000 A 
ENDROOT
BRANCH   4   7
ATOM      7  S   UNL     1       4.180   5.245  17.955  0.00  0.00    +0.000 S 
ATOM      8  O   UNL     1       4.809   4.636  19.107  0.00  0.00    +0.000 OA
ATOM      9  O   UNL     1       3.328   4.467  17.077  0.00  0.00    +0.000 OA
BRANCH   7  10
ATOM     10  N   UNL     1       5.398   5.950  16.992  0.00  0.00    +0.000 NA
ATOM     11  C   UNL     1       5.639   5.382  15.630  0.00  0.00    +0.000 C 
ATOM     12  C   UNL     1       6.514   4.123  15.667  0.00  0.00    +0.000 C 
ATOM     13  O   UNL     1       7.753   4.360  16.345  0.00  0.00    +0.000 OA
ATOM     14  C   UNL     1       7.534   4.824  17.684  0.00  0.00    +0.000 C 
ATOM     15  C   UNL     1       6.717   6.121  17.694  0.00  0.00    +0.000 C 
ENDBRANCH   7  10
ENDBRANCH   4   7
BRANCH   1  16
ATOM     16  C   UNL     1       0.595   9.778  19.856  0.00  0.00    +0.000 C 
BRANCH  16  19
ATOM     17  O   UNL     1      -1.381  11.718  20.062  0.00  0.00    +0.000 OA
ATOM     18  C   UNL     1      -1.415  10.943  19.109  0.00  0.00    +0.000 C 
ATOM     19  N   UNL     1      -0.504   9.926  18.939  0.00  0.00    +0.000 N 
ATOM     20  H   UNL     1      -0.480   9.454  18.040  0.00  0.00    +0.000 HD
BRANCH  18  21
ATOM     21  C   UNL     1      -2.503  11.060  18.099  0.00  0.00    +0.000 A 
ATOM     22  C   UNL     1      -2.244  10.526  16.826  0.00  0.00    +0.000 A 
ATOM     23  C   UNL     1      -3.204  10.618  15.821  0.00  0.00    +0.000 A 
ATOM     24 CL   UNL     1      -2.866   9.997  14.253  0.00  0.00    +0.000 Cl
ATOM     25  C   UNL     1      -4.435  11.222  16.073  0.00  0.00    +0.000 A 
ATOM     26  C   UNL     1      -4.709  11.743  17.340  0.00  0.00    +0.000 A 
ATOM     27  C   UNL     1      -3.744  11.666  18.348  0.00  0.00    +0.000 A 
BRANCH  27  28
ATOM     28  O   UNL     1      -4.030  12.186  19.582  0.00  0.00    +0.000 OA
ATOM     29  H   UNL     1      -3.538  11.688  20.259  0.00  0.00    +0.000 HD
ENDBRANCH  27  28
ENDBRANCH  18  21
ENDBRANCH  16  19
ENDBRANCH   1  16
TORSDOF 6
ENDMDL
MODEL 3
REMARK VINA RESULT:      -8.3      2.047      2.690
REMARK  Name = 
REMARK  6 active torsions:
REMARK  status: ('A' for Active; 'I' for Inactive)
REMARK    1  A    between atoms: C_2  and  C_20
REMARK    2  A    between atoms: N_3  and  C_4
REMARK    3  A    between atoms: C_4  and  C_5
REMARK    4  A    between atoms: C_8  and  S_9
REMARK    5  A    between atoms: S_9  and  N_12
REMARK    6  A    between atoms: C_26  and  O_27
REMARK                            x       y       z     vdW  Elec       q    Type
REMARK                         _______ _______ _______ _____ _____    ______ ____
ROOT
ATOM      1  C   UNL     1       1.595   9.425  18.874  0.00  0.00    +0.000 A 
ATOM      2  C   UNL     1       2.232   8.748  17.824  0.00  0.00    +0.000 A 
ATOM      3  C   UNL     1       2.749   7.464  18.018  0.00  0.00    +0.000 A 
ATOM      4  C   UNL     1       2.614   6.844  19.262  0.00  0.00    +0.000 A 
ATOM      5  C   UNL     1       1.917   7.471  20.296  0.00  0.00    +0.000 A 
ATOM      6  C   UNL     1       1.413   8.759  20.100  0.00  0.00    +0.000 A 
ENDROOT
BRANCH   4   7
ATOM      7  S   UNL     1       3.359   5.249  19.539  0.00  0.00    +0.000 S 
ATOM      8  O   UNL     1       4.793   5.443  19.514  0.00  0.00    +0.000 OA
ATOM      9  O   UNL     1       2.711   4.658  20.694  0.00  0.00    +0.000 OA
BRANCH   7  10
ATOM     10  N   UNL     1       2.922   4.320  18.178  0.00  0.00    +0.000 NA
ATOM     11  C   UNL     1       1.510   3.841  18.072  0.00  0.00    +0.000 C 
ATOM     12  C   UNL     1       1.254   2.582  18.908  0.00  0.00    +0.000 C 
ATOM     13  O   UNL     1       2.173   1.532  18.577  0.00  0.00    +0.000 OA
ATOM     14  C   UNL     1       3.531   1.953  18.758  0.00  0.00    +0.000 C 
ATOM     15  C   UNL     1       3.853   3.175  17.888  0.00  0.00    +0.000 C 
ENDBRANCH   7  10
ENDBRANCH   4   7
BRANCH   1  16
ATOM     16  C   UNL     1       1.142  10.852  18.705  0.00  0.00    +0.000 C 
BRANCH  16  19
ATOM     17  O   UNL     1      -1.247  11.109  20.097  0.00  0.00    +0.000 OA
ATOM     18  C   UNL     1      -1.279  11.115  18.868  0.00  0.00    +0.000 C 
ATOM     19  N   UNL     1      -0.155  10.956  18.091  0.00  0.00    +0.000 N 
ATOM     20  H   UNL     1      -0.230  11.161  17.099  0.00  0.00    +0.000 HD
BRANCH  18  21
ATOM     21  C   UNL     1      -2.583  11.256  18.163  0.00  0.00    +0.000 A 
ATOM     22  C   UNL     1      -2.663  10.715  16.869  0.00  0.00    +0.000 A 
ATOM     23  C   UNL     1      -3.841  10.828  16.137  0.00  0.00    +0.000 A 
ATOM     24 CL   UNL     1      -3.920  10.199  14.538  0.00  0.00    +0.000 Cl
ATOM     25  C   UNL     1      -4.957  11.459  16.685  0.00  0.00    +0.000 A 
ATOM     26  C   UNL     1      -4.893  11.987  17.977  0.00  0.00    +0.000 A 
ATOM     27  C   UNL     1      -3.709  11.889  18.711  0.00  0.00    +0.000 A 
BRANCH  27  28
ATOM     28  O   UNL     1      -3.665  12.416  19.974  0.00  0.00    +0.000 OA
ATOM     29  H   UNL     1      -3.804  11.702  20.622  0.00  0.00    +0.000 HD
ENDBRANCH  27  28
ENDBRANCH  18  21
ENDBRANCH  16  19
ENDBRANCH   1  16
TORSDOF 6
ENDMDL
MODEL 4
REMARK VINA RESULT:      -8.2      2.528      3.328
REMARK  Name = 
REMARK  6 active torsions:
REMARK  status: ('A' for Active; 'I' for Inactive)
REMARK    1  A    between atoms: C_2  and  C_20
REMARK    2  A    between atoms: N_3  and  C_4
REMARK    3  A    between atoms: C_4  and  C_5
REMARK    4  A    between atoms: C_8  and  S_9
REMARK    5  A    between atoms: S_9  and  N_12
REMARK    6  A    between atoms: C_26  and  O_27
REMARK                            x       y       z     vdW  Elec       q    Type
REMARK                         _______ _______ _______ _____ _____    ______ ____
ROOT
ATOM      1  C   UNL     1       1.400   9.627  18.873  0.00  0.00    +0.000 A 
ATOM      2  C   UNL     1       1.232   9.050  20.140  0.00  0.00    +0.000 A 
ATOM      3  C   UNL     1       1.701   7.759  20.400  0.00  0.00    +0.000 A 
ATOM      4  C   UNL     1       2.358   7.046  19.396  0.00  0.00    +0.000 A 
ATOM      5  C   UNL     1       2.602   7.632  18.153  0.00  0.00    +0.000 A 
ATOM      6  C   UNL     1       2.121   8.917  17.894  0.00  0.00    +0.000 A 
ENDROOT
BRANCH   4   7
ATOM      7  S   UNL     1       2.868   5.365  19.696  0.00  0.00    +0.000 S 
ATOM      8  O   UNL     1       4.312   5.337  19.596  0.00  0.00    +0.000 OA
ATOM      9  O   UNL     1       2.199   4.913  20.900  0.00  0.00    +0.000 OA
BRANCH   7  10
ATOM     10  N   UNL     1       2.226   4.475  18.391  0.00  0.00    +0.000 NA
ATOM     11  C   UNL     1       1.284   3.354  18.695  0.00  0.00    +0.000 C 
ATOM     12  C   UNL     1       2.015   2.069  19.102  0.00  0.00    +0.000 C 
ATOM     13  O   UNL     1       2.976   1.672  18.115  0.00  0.00    +0.000 OA
ATOM     14  C   UNL     1       3.937   2.709  17.878  0.00  0.00    +0.000 C 
ATOM     15  C   UNL     1       3.255   3.998  17.404  0.00  0.00    +0.000 C 
ENDBRANCH   7  10
ENDBRANCH   4   7
BRANCH   1  16
ATOM     16  C   UNL     1       0.794  10.968  18.552  0.00  0.00    +0.000 C 
BRANCH  16  19
ATOM     17  O   UNL     1      -1.101  12.870  19.261  0.00  0.00    +0.000 OA
ATOM     18  C   UNL     1      -1.461  11.899  18.601  0.00  0.00    +0.000 C 
ATOM     19  N   UNL     1      -0.607  10.885  18.233  0.00  0.00    +0.000 N 
ATOM     20  H   UNL     1      -0.928  10.221  17.535  0.00  0.00    +0.000 HD
BRANCH  18  21
ATOM     21  C   UNL     1      -2.890  11.764  18.203  0.00  0.00    +0.000 A 
ATOM     22  C   UNL     1      -3.848  11.946  19.214  0.00  0.00    +0.000 A 
ATOM     23  C   UNL     1      -5.203  11.813  18.925  0.00  0.00    +0.000 A 
ATOM     24 CL   UNL     1      -6.369  11.998  20.176  0.00  0.00    +0.000 Cl
ATOM     25  C   UNL     1      -5.624  11.517  17.629  0.00  0.00    +0.000 A 
ATOM     26  C   UNL     1      -4.680  11.348  16.612  0.00  0.00    +0.000 A 
ATOM     27  C   UNL     1      -3.318  11.467  16.900  0.00  0.00    +0.000 A 
BRANCH  27  28
ATOM     28  O   UNL     1      -2.409  11.295  15.890  0.00  0.00    +0.000 OA
ATOM     29  H   UNL     1      -2.194  12.163  15.504  0.00  0.00    +0.000 HD
ENDBRANCH  27  28
ENDBRANCH  18  21
ENDBRANCH  16  19
ENDBRANCH   1  16
TORSDOF 6
ENDMDL
MODEL 5
REMARK VINA RESULT:      -8.1      2.434      3.199
REMARK  Name = 
REMARK  6 active torsions:
REMARK  status: ('A' for Active; 'I' for Inactive)
REMARK    1  A    between atoms: C_2  and  C_20
REMARK    2  A    between atoms: N_3  and  C_4
REMARK    3  A    between atoms: C_4  and  C_5
REMARK    4  A    between atoms: C_8  and  S_9
REMARK    5  A    between atoms: S_9  and  N_12
REMARK    6  A    between atoms: C_26  and  O_27
REMARK                            x       y       z     vdW  Elec       q    Type
REMARK                         _______ _______ _______ _____ _____    ______ ____
ROOT
ATOM      1  C   UNL     1       1.403   9.511  18.885  0.00  0.00    +0.000 A 
ATOM      2  C   UNL     1       1.984   8.815  17.814  0.00  0.00    +0.000 A 
ATOM      3  C   UNL     1       2.523   7.540  18.007  0.00  0.00    +0.000 A 
ATOM      4  C   UNL     1       2.467   6.947  19.269  0.00  0.00    +0.000 A 
ATOM      5  C   UNL     1       1.824   7.592  20.328  0.00  0.00    +0.000 A 
ATOM      6  C   UNL     1       1.298   8.872  20.133  0.00  0.00    +0.000 A 
ENDROOT
BRANCH   4   7
ATOM      7  S   UNL     1       3.241   5.365  19.538  0.00  0.00    +0.000 S 
ATOM      8  O   UNL     1       4.671   5.589  19.533  0.00  0.00    +0.000 OA
ATOM      9  O   UNL     1       2.591   4.748  20.678  0.00  0.00    +0.000 OA
BRANCH   7  10
ATOM     10  N   UNL     1       2.841   4.443  18.161  0.00  0.00    +0.000 NA
ATOM     11  C   UNL     1       1.461   3.873  18.068  0.00  0.00    +0.000 C 
ATOM     12  C   UNL     1       1.307   2.579  18.875  0.00  0.00    +0.000 C 
ATOM     13  O   UNL     1       2.287   1.602  18.501  0.00  0.00    +0.000 OA
ATOM     14  C   UNL     1       3.617   2.109  18.668  0.00  0.00    +0.000 C 
ATOM     15  C   UNL     1       3.839   3.370  17.825  0.00  0.00    +0.000 C 
ENDBRANCH   7  10
ENDBRANCH   4   7
BRANCH   1  16
ATOM     16  C   UNL     1       0.927  10.930  18.711  0.00  0.00    +0.000 C 
BRANCH  16  19
ATOM     17  O   UNL     1      -1.308  11.710  20.163  0.00  0.00    +0.000 OA
ATOM     18  C   UNL     1      -1.445  11.441  18.972  0.00  0.00    +0.000 C 
ATOM     19  N   UNL     1      -0.407  11.009  18.178  0.00  0.00    +0.000 N 
ATOM     20  H   UNL     1      -0.552  10.991  17.173  0.00  0.00    +0.000 HD
BRANCH  18  21
ATOM     21  C   UNL     1      -2.791  11.536  18.342  0.00  0.00    +0.000 A 
ATOM     22  C   UNL     1      -3.834  12.019  19.149  0.00  0.00    +0.000 A 
ATOM     23  C   UNL     1      -5.126  12.115  18.639  0.00  0.00    +0.000 A 
ATOM     24 CL   UNL     1      -6.405  12.671  19.645  0.00  0.00    +0.000 Cl
ATOM     25  C   UNL     1      -5.393  11.751  17.320  0.00  0.00    +0.000 A 
ATOM     26  C   UNL     1      -4.361  11.283  16.504  0.00  0.00    +0.000 A 
ATOM     27  C   UNL     1      -3.065  11.172  17.015  0.00  0.00    +0.000 A 
BRANCH  27  28
ATOM     28  O   UNL     1      -2.068  10.708  16.200  0.00  0.00    +0.000 OA
ATOM     29  H   UNL     1      -1.240  10.652  16.710  0.00  0.00    +0.000 HD
ENDBRANCH  27  28
ENDBRANCH  18  21
ENDBRANCH  16  19
ENDBRANCH   1  16
TORSDOF 6
ENDMDL
MODEL 6
REMARK VINA RESULT:      -8.1      2.569      3.228
REMARK  Name = 
REMARK  6 active torsions:
REMARK  status: ('A' for Active; 'I' for Inactive)
REMARK    1  A    between atoms: C_2  and  C_20
REMARK    2  A    between atoms: N_3  and  C_4
REMARK    3  A    between atoms: C_4  and  C_5
REMARK    4  A    between atoms: C_8  and  S_9
REMARK    5  A    between atoms: S_9  and  N_12
REMARK    6  A    between atoms: C_26  and  O_27
REMARK                            x       y       z     vdW  Elec       q    Type
REMARK                         _______ _______ _______ _____ _____    ______ ____
ROOT
ATOM      1  C   UNL     1       1.072   9.533  19.512  0.00  0.00    +0.000 A 
ATOM      2  C   UNL     1       1.510   9.302  18.200  0.00  0.00    +0.000 A 
ATOM      3  C   UNL     1       2.218   8.139  17.883  0.00  0.00    +0.000 A 
ATOM      4  C   UNL     1       2.477   7.193  18.876  0.00  0.00    +0.000 A 
ATOM      5  C   UNL     1       1.984   7.370  20.170  0.00  0.00    +0.000 A 
ATOM      6  C   UNL     1       1.287   8.539  20.485  0.00  0.00    +0.000 A 
ENDROOT
BRANCH   4   7
ATOM      7  S   UNL     1       3.465   5.760  18.496  0.00  0.00    +0.000 S 
ATOM      8  O   UNL     1       4.217   6.071  17.299  0.00  0.00    +0.000 OA
ATOM      9  O   UNL     1       4.142   5.359  19.714  0.00  0.00    +0.000 OA
BRANCH   7  10
ATOM     10  N   UNL     1       2.336   4.540  18.115  0.00  0.00    +0.000 NA
ATOM     11  C   UNL     1       1.610   3.872  19.238  0.00  0.00    +0.000 C 
ATOM     12  C   UNL     1       2.446   2.773  19.904  0.00  0.00    +0.000 C 
ATOM     13  O   UNL     1       2.905   1.807  18.950  0.00  0.00    +0.000 OA
ATOM     14  C   UNL     1       3.677   2.426  17.912  0.00  0.00    +0.000 C 
ATOM     15  C   UNL     1       2.857   3.490  17.173  0.00  0.00    +0.000 C 
ENDBRANCH   7  10
ENDBRANCH   4   7
BRANCH   1  16
ATOM     16  C   UNL     1       0.413  10.836  19.884  0.00  0.00    +0.000 C 
BRANCH  16  19
ATOM     17  O   UNL     1      -0.677  12.628  18.064  0.00  0.00    +0.000 OA
ATOM     18  C   UNL     1      -1.414  11.788  18.575  0.00  0.00    +0.000 C 
ATOM     19  N   UNL     1      -0.977  10.882  19.514  0.00  0.00    +0.000 N 
ATOM     20  H   UNL     1      -1.588  10.105  19.746  0.00  0.00    +0.000 HD
BRANCH  18  21
ATOM     21  C   UNL     1      -2.858  11.752  18.213  0.00  0.00    +0.000 A 
ATOM     22  C   UNL     1      -3.776  11.989  19.249  0.00  0.00    +0.000 A 
ATOM     23  C   UNL     1      -5.144  11.949  18.993  0.00  0.00    +0.000 A 
ATOM     24 CL   UNL     1      -6.263  12.201  20.275  0.00  0.00    +0.000 Cl
ATOM     25  C   UNL     1      -5.615  11.693  17.707  0.00  0.00    +0.000 A 
ATOM     26  C   UNL     1      -4.711  11.471  16.666  0.00  0.00    +0.000 A 
ATOM     27  C   UNL     1      -3.337  11.496  16.919  0.00  0.00    +0.000 A 
BRANCH  27  28
ATOM     28  O   UNL     1      -2.467  11.273  15.886  0.00  0.00    +0.000 OA
ATOM     29  H   UNL     1      -1.723  10.733  16.207  0.00  0.00    +0.000 HD
ENDBRANCH  27  28
ENDBRANCH  18  21
ENDBRANCH  16  19
ENDBRANCH   1  16
TORSDOF 6
ENDMDL
MODEL 7
REMARK VINA RESULT:      -8.0      2.126      2.784
REMARK  Name = 
REMARK  6 active torsions:
REMARK  status: ('A' for Active; 'I' for Inactive)
REMARK    1  A    between atoms: C_2  and  C_20
REMARK    2  A    between atoms: N_3  and  C_4
REMARK    3  A    between atoms: C_4  and  C_5
REMARK    4  A    between atoms: C_8  and  S_9
REMARK    5  A    between atoms: S_9  and  N_12
REMARK    6  A    between atoms: C_26  and  O_27
REMARK                            x       y       z     vdW  Elec       q    Type
REMARK                         _______ _______ _______ _____ _____    ______ ____
ROOT
ATOM      1  C   UNL     1       1.504   9.655  19.101  0.00  0.00    +0.000 A 
ATOM      2  C   UNL     1       1.276   9.032  20.337  0.00  0.00    +0.000 A 
ATOM      3  C   UNL     1       1.674   7.708  20.547  0.00  0.00    +0.000 A 
ATOM      4  C   UNL     1       2.320   7.008  19.526  0.00  0.00    +0.000 A 
ATOM      5  C   UNL     1       2.623   7.637  18.317  0.00  0.00    +0.000 A 
ATOM      6  C   UNL     1       2.212   8.956  18.107  0.00  0.00    +0.000 A 
ENDROOT
BRANCH   4   7
ATOM      7  S   UNL     1       2.738   5.292  19.759  0.00  0.00    +0.000 S 
ATOM      8  O   UNL     1       4.183   5.205  19.750  0.00  0.00    +0.000 OA
ATOM      9  O   UNL     1       1.972   4.804  20.889  0.00  0.00    +0.000 OA
BRANCH   7  10
ATOM     10  N   UNL     1       2.148   4.506  18.365  0.00  0.00    +0.000 NA
ATOM     11  C   UNL     1       1.245   3.328  18.546  0.00  0.00    +0.000 C 
ATOM     12  C   UNL     1       2.018   2.038  18.844  0.00  0.00    +0.000 C 
ATOM     13  O   UNL     1       3.007   1.771  17.842  0.00  0.00    +0.000 OA
ATOM     14  C   UNL     1       3.932   2.859  17.719  0.00  0.00    +0.000 C 
ATOM     15  C   UNL     1       3.209   4.162  17.356  0.00  0.00    +0.000 C 
ENDBRANCH   7  10
ENDBRANCH   4   7
BRANCH   1  16
ATOM     16  C   UNL     1       0.973  11.039  18.830  0.00  0.00    +0.000 C 
BRANCH  16  19
ATOM     17  O   UNL     1      -1.388  11.768  20.096  0.00  0.00    +0.000 OA
ATOM     18  C   UNL     1      -1.433  11.439  18.913  0.00  0.00    +0.000 C 
ATOM     19  N   UNL     1      -0.325  11.026  18.209  0.00  0.00    +0.000 N 
ATOM     20  H   UNL     1      -0.402  10.955  17.199  0.00  0.00    +0.000 HD
BRANCH  18  21
ATOM     21  C   UNL     1      -2.737  11.437  18.195  0.00  0.00    +0.000 A 
ATOM     22  C   UNL     1      -2.747  10.884  16.904  0.00  0.00    +0.000 A 
ATOM     23  C   UNL     1      -3.924  10.867  16.160  0.00  0.00    +0.000 A 
ATOM     24 CL   UNL     1      -3.920  10.224  14.565  0.00  0.00    +0.000 Cl
ATOM     25  C   UNL     1      -5.105  11.380  16.694  0.00  0.00    +0.000 A 
ATOM     26  C   UNL     1      -5.110  11.919  17.983  0.00  0.00    +0.000 A 
ATOM     27  C   UNL     1      -3.929  11.951  18.728  0.00  0.00    +0.000 A 
BRANCH  27  28
ATOM     28  O   UNL     1      -3.954  12.487  19.988  0.00  0.00    +0.000 OA
ATOM     29  H   UNL     1      -3.099  12.917  20.168  0.00  0.00    +0.000 HD
ENDBRANCH  27  28
ENDBRANCH  18  21
ENDBRANCH  16  19
ENDBRANCH   1  16
TORSDOF 6
ENDMDL
MODEL 8
REMARK VINA RESULT:      -8.0      1.486      1.817
REMARK  Name = 
REMARK  6 active torsions:
REMARK  status: ('A' for Active; 'I' for Inactive)
REMARK    1  A    between atoms: C_2  and  C_20
REMARK    2  A    between atoms: N_3  and  C_4
REMARK    3  A    between atoms: C_4  and  C_5
REMARK    4  A    between atoms: C_8  and  S_9
REMARK    5  A    between atoms: S_9  and  N_12
REMARK    6  A    between atoms: C_26  and  O_27
REMARK                            x       y       z     vdW  Elec       q    Type
REMARK                         _______ _______ _______ _____ _____    ______ ____
ROOT
ATOM      1  C   UNL     1       1.436   9.222  19.144  0.00  0.00    +0.000 A 
ATOM      2  C   UNL     1       2.029   9.095  17.879  0.00  0.00    +0.000 A 
ATOM      3  C   UNL     1       2.804   7.974  17.568  0.00  0.00    +0.000 A 
ATOM      4  C   UNL     1       2.976   6.966  18.519  0.00  0.00    +0.000 A 
ATOM      5  C   UNL     1       2.331   7.039  19.755  0.00  0.00    +0.000 A 
ATOM      6  C   UNL     1       1.567   8.167  20.064  0.00  0.00    +0.000 A 
ENDROOT
BRANCH   4   7
ATOM      7  S   UNL     1       4.044   5.586  18.160  0.00  0.00    +0.000 S 
ATOM      8  O   UNL     1       4.728   5.250  19.391  0.00  0.00    +0.000 OA
ATOM      9  O   UNL     1       3.257   4.594  17.455  0.00  0.00    +0.000 OA
BRANCH   7  10
ATOM     10  N   UNL     1       5.195   6.199  17.061  0.00  0.00    +0.000 NA
ATOM     11  C   UNL     1       5.411   5.462  15.778  0.00  0.00    +0.000 C 
ATOM     12  C   UNL     1       6.340   4.254  15.946  0.00  0.00    +0.000 C 
ATOM     13  O   UNL     1       7.592   4.627  16.535  0.00  0.00    +0.000 OA
ATOM     14  C   UNL     1       7.402   5.259  17.808  0.00  0.00    +0.000 C 
ATOM     15  C   UNL     1       6.530   6.514  17.678  0.00  0.00    +0.000 C 
ENDBRANCH   7  10
ENDBRANCH   4   7
BRANCH   1  16
ATOM     16  C   UNL     1       0.698  10.480  19.523  0.00  0.00    +0.000 C 
BRANCH  16  19
ATOM     17  O   UNL     1      -1.332  12.198  20.322  0.00  0.00    +0.000 OA
ATOM     18  C   UNL     1      -1.509  11.503  19.324  0.00  0.00    +0.000 C 
ATOM     19  N   UNL     1      -0.580  10.595  18.871  0.00  0.00    +0.000 N 
ATOM     20  H   UNL     1      -0.712  10.201  17.945  0.00  0.00    +0.000 HD
BRANCH  18  21
ATOM     21  C   UNL     1      -2.793  11.595  18.577  0.00  0.00    +0.000 A 
ATOM     22  C   UNL     1      -3.922  12.003  19.307  0.00  0.00    +0.000 A 
ATOM     23  C   UNL     1      -5.163  12.091  18.683  0.00  0.00    +0.000 A 
ATOM     24 CL   UNL     1      -6.549  12.553  19.592  0.00  0.00    +0.000 Cl
ATOM     25  C   UNL     1      -5.296  11.794  17.327  0.00  0.00    +0.000 A 
ATOM     26  C   UNL     1      -4.177  11.402  16.588  0.00  0.00    +0.000 A 
ATOM     27  C   UNL     1      -2.931  11.299  17.212  0.00  0.00    +0.000 A 
BRANCH  27  28
ATOM     28  O   UNL     1      -1.847  10.910  16.471  0.00  0.00    +0.000 OA
ATOM     29  H   UNL     1      -1.842  11.404  15.631  0.00  0.00    +0.000 HD
ENDBRANCH  27  28
ENDBRANCH  18  21
ENDBRANCH  16  19
ENDBRANCH   1  16
TORSDOF 6
ENDMDL
MODEL 9
REMARK VINA RESULT:      -7.9      2.538      3.424
REMARK  Name = 
REMARK  6 active torsions:
REMARK  status: ('A' for Active; 'I' for Inactive)
REMARK    1  A    between atoms: C_2  and  C_20
REMARK    2  A    between atoms: N_3  and  C_4
REMARK    3  A    between atoms: C_4  and  C_5
REMARK    4  A    between atoms: C_8  and  S_9
REMARK    5  A    between atoms: S_9  and  N_12
REMARK    6  A    between atoms: C_26  and  O_27
REMARK                            x       y       z     vdW  Elec       q    Type
REMARK                         _______ _______ _______ _____ _____    ______ ____
ROOT
ATOM      1  C   UNL     1       1.144   9.279  19.669  0.00  0.00    +0.000 A 
ATOM      2  C   UNL     1       1.412   8.280  20.616  0.00  0.00    +0.000 A 
ATOM      3  C   UNL     1       2.114   7.128  20.252  0.00  0.00    +0.000 A 
ATOM      4  C   UNL     1       2.567   6.978  18.940  0.00  0.00    +0.000 A 
ATOM      5  C   UNL     1       2.376   7.995  18.003  0.00  0.00    +0.000 A 
ATOM      6  C   UNL     1       1.663   9.139  18.369  0.00  0.00    +0.000 A 
ENDROOT
BRANCH   4   7
ATOM      7  S   UNL     1       3.375   5.466  18.451  0.00  0.00    +0.000 S 
ATOM      8  O   UNL     1       4.084   5.746  17.220  0.00  0.00    +0.000 OA
ATOM      9  O   UNL     1       4.076   4.950  19.610  0.00  0.00    +0.000 OA
BRANCH   7  10
ATOM     10  N   UNL     1       2.103   4.386  18.100  0.00  0.00    +0.000 NA
ATOM     11  C   UNL     1       1.323   3.817  19.242  0.00  0.00    +0.000 C 
ATOM     12  C   UNL     1       2.035   2.632  19.904  0.00  0.00    +0.000 C 
ATOM     13  O   UNL     1       2.360   1.611  18.953  0.00  0.00    +0.000 OA
ATOM     14  C   UNL     1       3.182   2.126  17.896  0.00  0.00    +0.000 C 
ATOM     15  C   UNL     1       2.480   3.274  17.160  0.00  0.00    +0.000 C 
ENDBRANCH   7  10
ENDBRANCH   4   7
BRANCH   1  16
ATOM     16  C   UNL     1       0.287  10.466  20.025  0.00  0.00    +0.000 C 
BRANCH  16  19
ATOM     17  O   UNL     1      -1.545  12.550  20.136  0.00  0.00    +0.000 OA
ATOM     18  C   UNL     1      -1.755  11.623  19.357  0.00  0.00    +0.000 C 
ATOM     19  N   UNL     1      -0.928  10.529  19.256  0.00  0.00    +0.000 N 
ATOM     20  H   UNL     1      -1.058   9.904  18.467  0.00  0.00    +0.000 HD
BRANCH  18  21
ATOM     21  C   UNL     1      -2.974  11.637  18.502  0.00  0.00    +0.000 A 
ATOM     22  C   UNL     1      -4.164  12.077  19.105  0.00  0.00    +0.000 A 
ATOM     23  C   UNL     1      -5.350  12.096  18.377  0.00  0.00    +0.000 A 
ATOM     24 CL   UNL     1      -6.812  12.598  19.133  0.00  0.00    +0.000 Cl
ATOM     25  C   UNL     1      -5.366  11.699  17.041  0.00  0.00    +0.000 A 
ATOM     26  C   UNL     1      -4.186  11.274  16.427  0.00  0.00    +0.000 A 
ATOM     27  C   UNL     1      -2.995  11.239  17.156  0.00  0.00    +0.000 A 
BRANCH  27  28
ATOM     28  O   UNL     1      -1.849  10.817  16.537  0.00  0.00    +0.000 OA
ATOM     29  H   UNL     1      -1.102  10.905  17.156  0.00  0.00    +0.000 HD
ENDBRANCH  27  28
ENDBRANCH  18  21
ENDBRANCH  16  19
ENDBRANCH   1  16
TORSDOF 6
ENDMDL
