MODEL 1
REMARK VINA RESULT:      -7.8      0.000      0.000
REMARK  Name = 
REMARK  2 active torsions:
REMARK  status: ('A' for Active; 'I' for Inactive)
REMARK    1  A    between atoms: C_1  and  N_2
REMARK    2  A    between atoms: C_7  and  C_8
REMARK                            x       y       z     vdW  Elec       q    Type
REMARK                         _______ _______ _______ _____ _____    ______ ____
ROOT
ATOM      1  C   UNL     1       0.813   4.368  20.433  0.00  0.00    +0.000 C 
ATOM      2  N   UNL     1       1.623   3.950  19.301  0.00  0.00    +0.000 N 
ATOM      3  C   UNL     1       1.304   2.656  18.874  0.00  0.00    +0.000 C 
ATOM      4  O   UNL     1       0.164   2.215  18.805  0.00  0.00    +0.000 OA
ATOM      5  C   UNL     1       2.493   1.799  18.666  0.00  0.00    +0.000 C 
ATOM      6  C   UNL     1       3.406   2.491  17.703  0.00  0.00    +0.000 C 
ATOM      7  C   UNL     1       4.041   3.776  18.296  0.00  0.00    +0.000 C 
ATOM      8  C   UNL     1       5.114   3.413  19.357  0.00  0.00    +0.000 C 
ATOM      9  C   UNL     1       4.781   4.429  17.115  0.00  0.00    +0.000 A 
ATOM     10  C   UNL     1       5.644   3.651  16.305  0.00  0.00    +0.000 A 
ATOM     11  C   UNL     1       6.185   4.147  15.125  0.00  0.00    +0.000 A 
ATOM     12  C   UNL     1       5.922   5.460  14.759  0.00  0.00    +0.000 A 
ATOM     13  C   UNL     1       5.168   6.276  15.593  0.00  0.00    +0.000 A 
ATOM     14  C   UNL     1       4.586   5.767  16.774  0.00  0.00    +0.000 A 
ATOM     15  C   UNL     1       3.851   6.681  17.701  0.00  0.00    +0.000 C 
ATOM     16  C   UNL     1       2.643   6.016  18.354  0.00  0.00    +0.000 C 
ATOM     17  C   UNL     1       2.925   4.650  19.028  0.00  0.00    +0.000 C 
ENDROOT
TORSDOF 0
ENDMDL
MODEL 2
REMARK VINA RESULT:      -7.5      2.473      5.358
REMARK  Name = 
REMARK  2 active torsions:
REMARK  status: ('A' for Active; 'I' for Inactive)
REMARK    1  A    between atoms: C_1  and  N_2
REMARK    2  A    between atoms: C_7  and  C_8
REMARK                            x       y       z     vdW  Elec       q    Type
REMARK                         _______ _______ _______ _____ _____    ______ ____
ROOT
ATOM      1  C   UNL     1       6.366   4.363  15.008  0.00  0.00    +0.000 C 
ATOM      2  N   UNL     1       5.374   4.884  15.934  0.00  0.00    +0.000 N 
ATOM      3  C   UNL     1       5.210   6.268  15.805  0.00  0.00    +0.000 C 
ATOM      4  O   UNL     1       5.191   6.864  14.736  0.00  0.00    +0.000 OA
ATOM      5  C   UNL     1       5.226   6.982  17.103  0.00  0.00    +0.000 C 
ATOM      6  C   UNL     1       4.176   6.377  17.982  0.00  0.00    +0.000 C 
ATOM      7  C   UNL     1       4.516   4.926  18.413  0.00  0.00    +0.000 C 
ATOM      8  C   UNL     1       5.668   4.923  19.454  0.00  0.00    +0.000 C 
ATOM      9  C   UNL     1       3.254   4.428  19.140  0.00  0.00    +0.000 A 
ATOM     10  C   UNL     1       2.653   5.227  20.142  0.00  0.00    +0.000 A 
ATOM     11  C   UNL     1       1.417   4.907  20.691  0.00  0.00    +0.000 A 
ATOM     12  C   UNL     1       0.781   3.740  20.290  0.00  0.00    +0.000 A 
ATOM     13  C   UNL     1       1.401   2.884  19.389  0.00  0.00    +0.000 A 
ATOM     14  C   UNL     1       2.639   3.222  18.801  0.00  0.00    +0.000 A 
ATOM     15  C   UNL     1       3.331   2.250  17.901  0.00  0.00    +0.000 C 
ATOM     16  C   UNL     1       4.063   2.929  16.746  0.00  0.00    +0.000 C 
ATOM     17  C   UNL     1       5.011   4.084  17.153  0.00  0.00    +0.000 C 
ENDROOT
TORSDOF 0
ENDMDL
MODEL 3
REMARK VINA RESULT:      -7.3      3.049      4.951
REMARK  Name = 
REMARK  2 active torsions:
REMARK  status: ('A' for Active; 'I' for Inactive)
REMARK    1  A    between atoms: C_1  and  N_2
REMARK    2  A    between atoms: C_7  and  C_8
REMARK                            x       y       z     vdW  Elec       q    Type
REMARK                         _______ _______ _______ _____ _____    ______ ____
ROOT
ATOM      1  C   UNL     1       7.015   8.162  17.426  0.00  0.00    +0.000 C 
ATOM      2  N   UNL     1       6.497   6.848  17.770  0.00  0.00    +0.000 N 
ATOM      3  C   UNL     1       7.491   6.009  18.283  0.00  0.00    +0.000 C 
ATOM      4  O   UNL     1       8.366   6.370  19.060  0.00  0.00    +0.000 OA
ATOM      5  C   UNL     1       7.493   4.661  17.669  0.00  0.00    +0.000 C 
ATOM      6  C   UNL     1       6.128   4.070  17.833  0.00  0.00    +0.000 C 
ATOM      7  C   UNL     1       5.051   4.802  16.989  0.00  0.00    +0.000 C 
ATOM      8  C   UNL     1       5.226   4.476  15.482  0.00  0.00    +0.000 C 
ATOM      9  C   UNL     1       3.716   4.178  17.432  0.00  0.00    +0.000 A 
ATOM     10  C   UNL     1       3.578   2.770  17.490  0.00  0.00    +0.000 A 
ATOM     11  C   UNL     1       2.462   2.166  18.056  0.00  0.00    +0.000 A 
ATOM     12  C   UNL     1       1.426   2.962  18.524  0.00  0.00    +0.000 A 
ATOM     13  C   UNL     1       1.490   4.342  18.379  0.00  0.00    +0.000 A 
ATOM     14  C   UNL     1       2.637   4.963  17.838  0.00  0.00    +0.000 A 
ATOM     15  C   UNL     1       2.651   6.440  17.610  0.00  0.00    +0.000 C 
ATOM     16  C   UNL     1       4.018   7.066  17.873  0.00  0.00    +0.000 C 
ATOM     17  C   UNL     1       5.208   6.381  17.156  0.00  0.00    +0.000 C 
ENDROOT
TORSDOF 0
ENDMDL
MODEL 4
REMARK VINA RESULT:      -6.9      2.711      5.140
REMARK  Name = 
REMARK  2 active torsions:
REMARK  status: ('A' for Active; 'I' for Inactive)
REMARK    1  A    between atoms: C_1  and  N_2
REMARK    2  A    between atoms: C_7  and  C_8
REMARK                            x       y       z     vdW  Elec       q    Type
REMARK                         _______ _______ _______ _____ _____    ______ ____
ROOT
ATOM      1  C   UNL     1       5.044   6.837  15.857  0.00  0.00    +0.000 C 
ATOM      2  N   UNL     1       4.995   6.093  17.105  0.00  0.00    +0.000 N 
ATOM      3  C   UNL     1       6.246   6.031  17.729  0.00  0.00    +0.000 C 
ATOM      4  O   UNL     1       7.035   6.965  17.788  0.00  0.00    +0.000 OA
ATOM      5  C   UNL     1       6.608   4.666  18.178  0.00  0.00    +0.000 C 
ATOM      6  C   UNL     1       5.516   4.163  19.069  0.00  0.00    +0.000 C 
ATOM      7  C   UNL     1       4.189   3.904  18.307  0.00  0.00    +0.000 C 
ATOM      8  C   UNL     1       4.312   2.641  17.414  0.00  0.00    +0.000 C 
ATOM      9  C   UNL     1       3.163   3.578  19.407  0.00  0.00    +0.000 A 
ATOM     10  C   UNL     1       3.476   2.626  20.406  0.00  0.00    +0.000 A 
ATOM     11  C   UNL     1       2.663   2.436  21.517  0.00  0.00    +0.000 A 
ATOM     12  C   UNL     1       1.481   3.155  21.621  0.00  0.00    +0.000 A 
ATOM     13  C   UNL     1       1.098   4.015  20.600  0.00  0.00    +0.000 A 
ATOM     14  C   UNL     1       1.937   4.240  19.487  0.00  0.00    +0.000 A 
ATOM     15  C   UNL     1       1.470   5.101  18.359  0.00  0.00    +0.000 C 
ATOM     16  C   UNL     1       2.593   5.931  17.743  0.00  0.00    +0.000 C 
ATOM     17  C   UNL     1       3.862   5.136  17.348  0.00  0.00    +0.000 C 
ENDROOT
TORSDOF 0
ENDMDL
MODEL 5
REMARK VINA RESULT:      -6.8      1.629      2.864
REMARK  Name = 
REMARK  2 active torsions:
REMARK  status: ('A' for Active; 'I' for Inactive)
REMARK    1  A    between atoms: C_1  and  N_2
REMARK    2  A    between atoms: C_7  and  C_8
REMARK                            x       y       z     vdW  Elec       q    Type
REMARK                         _______ _______ _______ _____ _____    ______ ____
ROOT
ATOM      1  C   UNL     1       0.712   2.441  19.588  0.00  0.00    +0.000 C 
ATOM      2  N   UNL     1       1.882   3.302  19.595  0.00  0.00    +0.000 N 
ATOM      3  C   UNL     1       2.114   3.864  20.855  0.00  0.00    +0.000 C 
ATOM      4  O   UNL     1       1.988   3.261  21.913  0.00  0.00    +0.000 OA
ATOM      5  C   UNL     1       2.373   5.322  20.807  0.00  0.00    +0.000 C 
ATOM      6  C   UNL     1       3.516   5.563  19.872  0.00  0.00    +0.000 C 
ATOM      7  C   UNL     1       3.159   5.255  18.394  0.00  0.00    +0.000 C 
ATOM      8  C   UNL     1       2.209   6.342  17.826  0.00  0.00    +0.000 C 
ATOM      9  C   UNL     1       4.492   5.383  17.634  0.00  0.00    +0.000 A 
ATOM     10  C   UNL     1       5.310   6.521  17.829  0.00  0.00    +0.000 A 
ATOM     11  C   UNL     1       6.599   6.594  17.312  0.00  0.00    +0.000 A 
ATOM     12  C   UNL     1       7.075   5.549  16.533  0.00  0.00    +0.000 A 
ATOM     13  C   UNL     1       6.251   4.471  16.237  0.00  0.00    +0.000 A 
ATOM     14  C   UNL     1       4.955   4.374  16.789  0.00  0.00    +0.000 A 
ATOM     15  C   UNL     1       4.053   3.251  16.391  0.00  0.00    +0.000 C 
ATOM     16  C   UNL     1       3.180   2.756  17.540  0.00  0.00    +0.000 C 
ATOM     17  C   UNL     1       2.396   3.858  18.297  0.00  0.00    +0.000 C 
ENDROOT
TORSDOF 0
ENDMDL
MODEL 6
REMARK VINA RESULT:      -6.8      2.775      5.117
REMARK  Name = 
REMARK  2 active torsions:
REMARK  status: ('A' for Active; 'I' for Inactive)
REMARK    1  A    between atoms: C_1  and  N_2
REMARK    2  A    between atoms: C_7  and  C_8
REMARK                            x       y       z     vdW  Elec       q    Type
REMARK                         _______ _______ _______ _____ _____    ______ ____
ROOT
ATOM      1  C   UNL     1       6.147   5.163  16.068  0.00  0.00    +0.000 C 
ATOM      2  N   UNL     1       5.462   5.321  17.341  0.00  0.00    +0.000 N 
ATOM      3  C   UNL     1       6.035   4.537  18.348  0.00  0.00    +0.000 C 
ATOM      4  O   UNL     1       7.240   4.378  18.497  0.00  0.00    +0.000 OA
ATOM      5  C   UNL     1       5.037   3.771  19.131  0.00  0.00    +0.000 C 
ATOM      6  C   UNL     1       4.035   4.737  19.681  0.00  0.00    +0.000 C 
ATOM      7  C   UNL     1       3.150   5.377  18.580  0.00  0.00    +0.000 C 
ATOM      8  C   UNL     1       2.138   4.340  18.024  0.00  0.00    +0.000 C 
ATOM      9  C   UNL     1       2.330   6.454  19.313  0.00  0.00    +0.000 A 
ATOM     10  C   UNL     1       1.655   6.133  20.515  0.00  0.00    +0.000 A 
ATOM     11  C   UNL     1       1.060   7.109  21.305  0.00  0.00    +0.000 A 
ATOM     12  C   UNL     1       1.077   8.429  20.875  0.00  0.00    +0.000 A 
ATOM     13  C   UNL     1       1.637   8.753  19.647  0.00  0.00    +0.000 A 
ATOM     14  C   UNL     1       2.275   7.772  18.857  0.00  0.00    +0.000 A 
ATOM     15  C   UNL     1       2.796   8.123  17.502  0.00  0.00    +0.000 C 
ATOM     16  C   UNL     1       4.091   7.393  17.157  0.00  0.00    +0.000 C 
ATOM     17  C   UNL     1       4.058   5.858  17.360  0.00  0.00    +0.000 C 
ENDROOT
TORSDOF 0
ENDMDL
MODEL 7
REMARK VINA RESULT:      -6.6      2.462      3.970
REMARK  Name = 
REMARK  2 active torsions:
REMARK  status: ('A' for Active; 'I' for Inactive)
REMARK    1  A    between atoms: C_1  and  N_2
REMARK    2  A    between atoms: C_7  and  C_8
REMARK                            x       y       z     vdW  Elec       q    Type
REMARK                         _______ _______ _______ _____ _____    ______ ____
ROOT
ATOM      1  C   UNL     1       1.425   2.663  21.035  0.00  0.00    +0.000 C 
ATOM      2  N   UNL     1       1.427   3.680  19.996  0.00  0.00    +0.000 N 
ATOM      3  C   UNL     1       1.199   3.138  18.727  0.00  0.00    +0.000 C 
ATOM      4  O   UNL     1       0.389   2.250  18.492  0.00  0.00    +0.000 OA
ATOM      5  C   UNL     1       2.154   3.623  17.704  0.00  0.00    +0.000 C 
ATOM      6  C   UNL     1       2.100   5.118  17.686  0.00  0.00    +0.000 C 
ATOM      7  C   UNL     1       2.671   5.755  18.980  0.00  0.00    +0.000 C 
ATOM      8  C   UNL     1       4.216   5.615  19.020  0.00  0.00    +0.000 C 
ATOM      9  C   UNL     1       2.361   7.257  18.848  0.00  0.00    +0.000 A 
ATOM     10  C   UNL     1       2.679   7.942  17.651  0.00  0.00    +0.000 A 
ATOM     11  C   UNL     1       2.251   9.243  17.416  0.00  0.00    +0.000 A 
ATOM     12  C   UNL     1       1.545   9.912  18.406  0.00  0.00    +0.000 A 
ATOM     13  C   UNL     1       1.316   9.300  19.630  0.00  0.00    +0.000 A 
ATOM     14  C   UNL     1       1.715   7.966  19.861  0.00  0.00    +0.000 A 
ATOM     15  C   UNL     1       1.536   7.353  21.213  0.00  0.00    +0.000 C 
ATOM     16  C   UNL     1       1.170   5.873  21.149  0.00  0.00    +0.000 C 
ATOM     17  C   UNL     1       2.092   5.002  20.261  0.00  0.00    +0.000 C 
ENDROOT
TORSDOF 0
ENDMDL
MODEL 8
REMARK VINA RESULT:      -6.5      2.903      5.082
REMARK  Name = 
REMARK  2 active torsions:
REMARK  status: ('A' for Active; 'I' for Inactive)
REMARK    1  A    between atoms: C_1  and  N_2
REMARK    2  A    between atoms: C_7  and  C_8
REMARK                            x       y       z     vdW  Elec       q    Type
REMARK                         _______ _______ _______ _____ _____    ______ ____
ROOT
ATOM      1  C   UNL     1       6.547   7.798  17.008  0.00  0.00    +0.000 C 
ATOM      2  N   UNL     1       6.081   6.665  17.789  0.00  0.00    +0.000 N 
ATOM      3  C   UNL     1       7.137   5.967  18.386  0.00  0.00    +0.000 C 
ATOM      4  O   UNL     1       8.114   6.499  18.896  0.00  0.00    +0.000 OA
ATOM      5  C   UNL     1       7.047   4.500  18.199  0.00  0.00    +0.000 C 
ATOM      6  C   UNL     1       5.719   4.043  18.714  0.00  0.00    +0.000 C 
ATOM      7  C   UNL     1       4.534   4.546  17.848  0.00  0.00    +0.000 C 
ATOM      8  C   UNL     1       4.490   3.789  16.494  0.00  0.00    +0.000 C 
ATOM      9  C   UNL     1       3.274   4.136  18.632  0.00  0.00    +0.000 A 
ATOM     10  C   UNL     1       3.143   2.813  19.118  0.00  0.00    +0.000 A 
ATOM     11  C   UNL     1       2.119   2.449  19.984  0.00  0.00    +0.000 A 
ATOM     12  C   UNL     1       1.162   3.392  20.334  0.00  0.00    +0.000 A 
ATOM     13  C   UNL     1       1.207   4.666  19.784  0.00  0.00    +0.000 A 
ATOM     14  C   UNL     1       2.266   5.052  18.933  0.00  0.00    +0.000 A 
ATOM     15  C   UNL     1       2.251   6.397  18.283  0.00  0.00    +0.000 C 
ATOM     16  C   UNL     1       3.643   7.012  18.161  0.00  0.00    +0.000 C 
ATOM     17  C   UNL     1       4.716   6.096  17.521  0.00  0.00    +0.000 C 
ENDROOT
TORSDOF 0
ENDMDL
MODEL 9
REMARK VINA RESULT:      -6.4      2.092      3.634
REMARK  Name = 
REMARK  2 active torsions:
REMARK  status: ('A' for Active; 'I' for Inactive)
REMARK    1  A    between atoms: C_1  and  N_2
REMARK    2  A    between atoms: C_7  and  C_8
REMARK                            x       y       z     vdW  Elec       q    Type
REMARK                         _______ _______ _______ _____ _____    ______ ____
ROOT
ATOM      1  C   UNL     1       4.490   1.574  20.266  0.00  0.00    +0.000 C 
ATOM      2  N   UNL     1       3.701   2.791  20.176  0.00  0.00    +0.000 N 
ATOM      3  C   UNL     1       2.672   2.823  21.123  0.00  0.00    +0.000 C 
ATOM      4  O   UNL     1       2.788   2.441  22.281  0.00  0.00    +0.000 OA
ATOM      5  C   UNL     1       1.362   3.212  20.551  0.00  0.00    +0.000 C 
ATOM      6  C   UNL     1       1.526   4.531  19.864  0.00  0.00    +0.000 C 
ATOM      7  C   UNL     1       2.413   4.442  18.595  0.00  0.00    +0.000 C 
ATOM      8  C   UNL     1       1.654   3.718  17.451  0.00  0.00    +0.000 C 
ATOM      9  C   UNL     1       2.608   5.902  18.150  0.00  0.00    +0.000 A 
ATOM     10  C   UNL     1       1.490   6.764  18.041  0.00  0.00    +0.000 A 
ATOM     11  C   UNL     1       1.635   8.129  17.826  0.00  0.00    +0.000 A 
ATOM     12  C   UNL     1       2.908   8.654  17.651  0.00  0.00    +0.000 A 
ATOM     13  C   UNL     1       4.013   7.813  17.644  0.00  0.00    +0.000 A 
ATOM     14  C   UNL     1       3.875   6.431  17.899  0.00  0.00    +0.000 A 
ATOM     15  C   UNL     1       5.062   5.529  17.802  0.00  0.00    +0.000 C 
ATOM     16  C   UNL     1       5.042   4.410  18.840  0.00  0.00    +0.000 C 
ATOM     17  C   UNL     1       3.727   3.594  18.906  0.00  0.00    +0.000 C 
ENDROOT
TORSDOF 0
ENDMDL
