MODEL 1
REMARK VINA RESULT:      -7.0      0.000      0.000
REMARK  Name = 
REMARK  9 active torsions:
REMARK  status: ('A' for Active; 'I' for Inactive)
REMARK    1  A    between atoms: C_1  and  C_2
REMARK    2  A    between atoms: C_2  and  C_3
REMARK    3  A    between atoms: C_3  and  C_4
REMARK    4  A    between atoms: C_4  and  O_5
REMARK    5  A    between atoms: O_5  and  N_6
REMARK    6  A    between atoms: C_7  and  C_8
REMARK    7  A    between atoms: C_8  and  C_9
REMARK    8  A    between atoms: C_9  and  C_10
REMARK    9  A    between atoms: C_13  and  C_14
REMARK                            x       y       z     vdW  Elec       q    Type
REMARK                         _______ _______ _______ _____ _____    ______ ____
ROOT
ATOM      1  N   UNL     1       4.655   4.962  18.160  0.00  0.00    +0.000 N 
ATOM      2  C   UNL     1       4.607   3.895  17.288  0.00  0.00    +0.000 A 
ATOM      3  N   UNL     1       3.529   3.161  17.505  0.00  0.00    +0.000 NA
ATOM      4  C   UNL     1       2.844   3.788  18.520  0.00  0.00    +0.000 A 
ATOM      5  C   UNL     1       1.609   3.435  19.106  0.00  0.00    +0.000 A 
ATOM      6  C   UNL     1       0.779   2.276  18.640  0.00  0.00    +0.000 C 
ATOM      7  C   UNL     1       1.134   4.229  20.170  0.00  0.00    +0.000 A 
ATOM      8  C   UNL     1       1.833   5.352  20.604  0.00  0.00    +0.000 A 
ATOM      9  C   UNL     1       3.021   5.733  19.986  0.00  0.00    +0.000 A 
ATOM     10  C   UNL     1       3.524   4.925  18.958  0.00  0.00    +0.000 A 
ENDROOT
BRANCH   1  11
ATOM     11  O   UNL     1       5.651   5.968  18.099  0.00  0.00    +0.000 OA
BRANCH  11  12
ATOM     12  C   UNL     1       6.732   5.675  18.981  0.00  0.00    +0.000 C 
BRANCH  12  13
ATOM     13  C   UNL     1       7.949   6.534  18.665  0.00  0.00    +0.000 C 
BRANCH  13  15
ATOM     14  C   UNL     1       8.138   8.927  17.885  0.00  0.00    +0.000 C 
ATOM     15  C   UNL     1       7.600   7.546  17.570  0.00  0.00    +0.000 C 
ENDBRANCH  13  15
ENDBRANCH  12  13
ENDBRANCH  11  12
ENDBRANCH   1  11
BRANCH   2  16
ATOM     16  C   UNL     1       5.587   3.654  16.187  0.00  0.00    +0.000 C 
BRANCH  16  17
ATOM     17  C   UNL     1       5.366   4.475  14.918  0.00  0.00    +0.000 C 
ATOM     18  C   UNL     1       6.303   4.116  13.776  0.00  0.00    +0.000 C 
ENDBRANCH  16  17
ENDBRANCH   2  16
TORSDOF 6
ENDMDL
MODEL 2
REMARK VINA RESULT:      -6.8      1.398      4.183
REMARK  Name = 
REMARK  9 active torsions:
REMARK  status: ('A' for Active; 'I' for Inactive)
REMARK    1  A    between atoms: C_1  and  C_2
REMARK    2  A    between atoms: C_2  and  C_3
REMARK    3  A    between atoms: C_3  and  C_4
REMARK    4  A    between atoms: C_4  and  O_5
REMARK    5  A    between atoms: O_5  and  N_6
REMARK    6  A    between atoms: C_7  and  C_8
REMARK    7  A    between atoms: C_8  and  C_9
REMARK    8  A    between atoms: C_9  and  C_10
REMARK    9  A    between atoms: C_13  and  C_14
REMARK                            x       y       z     vdW  Elec       q    Type
REMARK                         _______ _______ _______ _____ _____    ______ ____
ROOT
ATOM      1  N   UNL     1       5.653   4.384  17.326  0.00  0.00    +0.000 N 
ATOM      2  C   UNL     1       6.191   5.071  18.394  0.00  0.00    +0.000 A 
ATOM      3  N   UNL     1       5.262   5.336  19.296  0.00  0.00    +0.000 NA
ATOM      4  C   UNL     1       4.100   4.779  18.816  0.00  0.00    +0.000 A 
ATOM      5  C   UNL     1       2.821   4.744  19.411  0.00  0.00    +0.000 A 
ATOM      6  C   UNL     1       2.533   5.303  20.773  0.00  0.00    +0.000 C 
ATOM      7  C   UNL     1       1.774   4.138  18.689  0.00  0.00    +0.000 A 
ATOM      8  C   UNL     1       1.996   3.549  17.448  0.00  0.00    +0.000 A 
ATOM      9  C   UNL     1       3.270   3.531  16.888  0.00  0.00    +0.000 A 
ATOM     10  C   UNL     1       4.308   4.171  17.577  0.00  0.00    +0.000 A 
ENDROOT
BRANCH   1  11
ATOM     11  O   UNL     1       6.433   3.887  16.252  0.00  0.00    +0.000 OA
BRANCH  11  12
ATOM     12  C   UNL     1       6.413   4.784  15.145  0.00  0.00    +0.000 C 
BRANCH  12  13
ATOM     13  C   UNL     1       5.532   4.254  14.021  0.00  0.00    +0.000 C 
BRANCH  13  15
ATOM     14  C   UNL     1       5.635   2.866  11.917  0.00  0.00    +0.000 C 
ATOM     15  C   UNL     1       6.406   3.761  12.865  0.00  0.00    +0.000 C 
ENDBRANCH  13  15
ENDBRANCH  12  13
ENDBRANCH  11  12
ENDBRANCH   1  11
BRANCH   2  16
ATOM     16  C   UNL     1       7.643   5.387  18.555  0.00  0.00    +0.000 C 
BRANCH  16  17
ATOM     17  C   UNL     1       7.982   6.871  18.678  0.00  0.00    +0.000 C 
ATOM     18  C   UNL     1       7.603   7.696  17.459  0.00  0.00    +0.000 C 
ENDBRANCH  16  17
ENDBRANCH   2  16
TORSDOF 6
ENDMDL
MODEL 3
REMARK VINA RESULT:      -6.6      1.833      4.529
REMARK  Name = 
REMARK  9 active torsions:
REMARK  status: ('A' for Active; 'I' for Inactive)
REMARK    1  A    between atoms: C_1  and  C_2
REMARK    2  A    between atoms: C_2  and  C_3
REMARK    3  A    between atoms: C_3  and  C_4
REMARK    4  A    between atoms: C_4  and  O_5
REMARK    5  A    between atoms: O_5  and  N_6
REMARK    6  A    between atoms: C_7  and  C_8
REMARK    7  A    between atoms: C_8  and  C_9
REMARK    8  A    between atoms: C_9  and  C_10
REMARK    9  A    between atoms: C_13  and  C_14
REMARK                            x       y       z     vdW  Elec       q    Type
REMARK                         _______ _______ _______ _____ _____    ______ ____
ROOT
ATOM      1  N   UNL     1       5.767   5.178  16.761  0.00  0.00    +0.000 N 
ATOM      2  C   UNL     1       6.003   6.465  17.200  0.00  0.00    +0.000 A 
ATOM      3  N   UNL     1       4.924   6.970  17.771  0.00  0.00    +0.000 NA
ATOM      4  C   UNL     1       3.975   5.975  17.731  0.00  0.00    +0.000 A 
ATOM      5  C   UNL     1       2.658   5.985  18.240  0.00  0.00    +0.000 A 
ATOM      6  C   UNL     1       2.078   7.142  18.999  0.00  0.00    +0.000 C 
ATOM      7  C   UNL     1       1.864   4.839  18.035  0.00  0.00    +0.000 A 
ATOM      8  C   UNL     1       2.369   3.713  17.392  0.00  0.00    +0.000 A 
ATOM      9  C   UNL     1       3.687   3.682  16.942  0.00  0.00    +0.000 A 
ATOM     10  C   UNL     1       4.470   4.833  17.102  0.00  0.00    +0.000 A 
ENDROOT
BRANCH   1  11
ATOM     11  O   UNL     1       6.771   4.358  16.191  0.00  0.00    +0.000 OA
BRANCH  11  12
ATOM     12  C   UNL     1       6.868   4.564  14.784  0.00  0.00    +0.000 C 
BRANCH  12  13
ATOM     13  C   UNL     1       5.817   3.756  14.035  0.00  0.00    +0.000 C 
BRANCH  13  15
ATOM     14  C   UNL     1       5.091   3.128  11.701  0.00  0.00    +0.000 C 
ATOM     15  C   UNL     1       6.244   3.580  12.574  0.00  0.00    +0.000 C 
ENDBRANCH  13  15
ENDBRANCH  12  13
ENDBRANCH  11  12
ENDBRANCH   1  11
BRANCH   2  16
ATOM     16  C   UNL     1       7.326   7.157  17.126  0.00  0.00    +0.000 C 
BRANCH  16  17
ATOM     17  C   UNL     1       8.125   7.187  18.427  0.00  0.00    +0.000 C 
ATOM     18  C   UNL     1       7.992   5.925  19.265  0.00  0.00    +0.000 C 
ENDBRANCH  16  17
ENDBRANCH   2  16
TORSDOF 6
ENDMDL
MODEL 4
REMARK VINA RESULT:      -6.5      1.504      3.874
REMARK  Name = 
REMARK  9 active torsions:
REMARK  status: ('A' for Active; 'I' for Inactive)
REMARK    1  A    between atoms: C_1  and  C_2
REMARK    2  A    between atoms: C_2  and  C_3
REMARK    3  A    between atoms: C_3  and  C_4
REMARK    4  A    between atoms: C_4  and  O_5
REMARK    5  A    between atoms: O_5  and  N_6
REMARK    6  A    between atoms: C_7  and  C_8
REMARK    7  A    between atoms: C_8  and  C_9
REMARK    8  A    between atoms: C_9  and  C_10
REMARK    9  A    between atoms: C_13  and  C_14
REMARK                            x       y       z     vdW  Elec       q    Type
REMARK                         _______ _______ _______ _____ _____    ______ ____
ROOT
ATOM      1  N   UNL     1       4.950   5.118  17.391  0.00  0.00    +0.000 N 
ATOM      2  C   UNL     1       5.977   4.786  18.250  0.00  0.00    +0.000 A 
ATOM      3  N   UNL     1       5.533   4.034  19.242  0.00  0.00    +0.000 NA
ATOM      4  C   UNL     1       4.191   3.846  19.002  0.00  0.00    +0.000 A 
ATOM      5  C   UNL     1       3.256   3.088  19.739  0.00  0.00    +0.000 A 
ATOM      6  C   UNL     1       3.624   2.277  20.946  0.00  0.00    +0.000 C 
ATOM      7  C   UNL     1       1.917   3.086  19.300  0.00  0.00    +0.000 A 
ATOM      8  C   UNL     1       1.530   3.771  18.152  0.00  0.00    +0.000 A 
ATOM      9  C   UNL     1       2.464   4.470  17.392  0.00  0.00    +0.000 A 
ATOM     10  C   UNL     1       3.789   4.514  17.845  0.00  0.00    +0.000 A 
ENDROOT
BRANCH   1  11
ATOM     11  O   UNL     1       5.149   5.841  16.189  0.00  0.00    +0.000 OA
BRANCH  11  12
ATOM     12  C   UNL     1       6.074   5.173  15.334  0.00  0.00    +0.000 C 
BRANCH  12  13
ATOM     13  C   UNL     1       5.362   4.196  14.408  0.00  0.00    +0.000 C 
BRANCH  13  15
ATOM     14  C   UNL     1       5.530   3.228  12.084  0.00  0.00    +0.000 C 
ATOM     15  C   UNL     1       6.295   3.798  13.261  0.00  0.00    +0.000 C 
ENDBRANCH  13  15
ENDBRANCH  12  13
ENDBRANCH  11  12
ENDBRANCH   1  11
BRANCH   2  16
ATOM     16  C   UNL     1       7.411   5.147  18.037  0.00  0.00    +0.000 C 
BRANCH  16  17
ATOM     17  C   UNL     1       7.844   6.490  18.621  0.00  0.00    +0.000 C 
ATOM     18  C   UNL     1       7.715   7.656  17.654  0.00  0.00    +0.000 C 
ENDBRANCH  16  17
ENDBRANCH   2  16
TORSDOF 6
ENDMDL
MODEL 5
REMARK VINA RESULT:      -6.5      1.452      4.153
REMARK  Name = 
REMARK  9 active torsions:
REMARK  status: ('A' for Active; 'I' for Inactive)
REMARK    1  A    between atoms: C_1  and  C_2
REMARK    2  A    between atoms: C_2  and  C_3
REMARK    3  A    between atoms: C_3  and  C_4
REMARK    4  A    between atoms: C_4  and  O_5
REMARK    5  A    between atoms: O_5  and  N_6
REMARK    6  A    between atoms: C_7  and  C_8
REMARK    7  A    between atoms: C_8  and  C_9
REMARK    8  A    between atoms: C_9  and  C_10
REMARK    9  A    between atoms: C_13  and  C_14
REMARK                            x       y       z     vdW  Elec       q    Type
REMARK                         _______ _______ _______ _____ _____    ______ ____
ROOT
ATOM      1  N   UNL     1       4.848   4.406  16.837  0.00  0.00    +0.000 N 
ATOM      2  C   UNL     1       5.046   5.699  17.276  0.00  0.00    +0.000 A 
ATOM      3  N   UNL     1       4.166   6.017  18.209  0.00  0.00    +0.000 NA
ATOM      4  C   UNL     1       3.399   4.891  18.404  0.00  0.00    +0.000 A 
ATOM      5  C   UNL     1       2.343   4.685  19.317  0.00  0.00    +0.000 A 
ATOM      6  C   UNL     1       1.905   5.716  20.315  0.00  0.00    +0.000 C 
ATOM      7  C   UNL     1       1.685   3.438  19.293  0.00  0.00    +0.000 A 
ATOM      8  C   UNL     1       2.088   2.423  18.431  0.00  0.00    +0.000 A 
ATOM      9  C   UNL     1       3.169   2.607  17.572  0.00  0.00    +0.000 A 
ATOM     10  C   UNL     1       3.800   3.857  17.557  0.00  0.00    +0.000 A 
ENDROOT
BRANCH   1  11
ATOM     11  O   UNL     1       5.701   3.766  15.905  0.00  0.00    +0.000 OA
BRANCH  11  12
ATOM     12  C   UNL     1       5.353   4.112  14.567  0.00  0.00    +0.000 C 
BRANCH  12  13
ATOM     13  C   UNL     1       6.571   4.078  13.654  0.00  0.00    +0.000 C 
BRANCH  13  15
ATOM     14  C   UNL     1       4.787   3.504  11.965  0.00  0.00    +0.000 C 
ATOM     15  C   UNL     1       6.234   3.315  12.370  0.00  0.00    +0.000 C 
ENDBRANCH  13  15
ENDBRANCH  12  13
ENDBRANCH  11  12
ENDBRANCH   1  11
BRANCH   2  16
ATOM     16  C   UNL     1       6.161   6.586  16.827  0.00  0.00    +0.000 C 
BRANCH  16  17
ATOM     17  C   UNL     1       7.299   6.769  17.829  0.00  0.00    +0.000 C 
ATOM     18  C   UNL     1       7.702   5.492  18.549  0.00  0.00    +0.000 C 
ENDBRANCH  16  17
ENDBRANCH   2  16
TORSDOF 6
ENDMDL
MODEL 6
REMARK VINA RESULT:      -6.5      2.012      3.629
REMARK  Name = 
REMARK  9 active torsions:
REMARK  status: ('A' for Active; 'I' for Inactive)
REMARK    1  A    between atoms: C_1  and  C_2
REMARK    2  A    between atoms: C_2  and  C_3
REMARK    3  A    between atoms: C_3  and  C_4
REMARK    4  A    between atoms: C_4  and  O_5
REMARK    5  A    between atoms: O_5  and  N_6
REMARK    6  A    between atoms: C_7  and  C_8
REMARK    7  A    between atoms: C_8  and  C_9
REMARK    8  A    between atoms: C_9  and  C_10
REMARK    9  A    between atoms: C_13  and  C_14
REMARK                            x       y       z     vdW  Elec       q    Type
REMARK                         _______ _______ _______ _____ _____    ______ ____
ROOT
ATOM      1  N   UNL     1       3.841   5.468  17.334  0.00  0.00    +0.000 N 
ATOM      2  C   UNL     1       3.075   6.379  18.031  0.00  0.00    +0.000 A 
ATOM      3  N   UNL     1       2.252   5.760  18.860  0.00  0.00    +0.000 NA
ATOM      4  C   UNL     1       2.514   4.417  18.720  0.00  0.00    +0.000 A 
ATOM      5  C   UNL     1       1.937   3.325  19.403  0.00  0.00    +0.000 A 
ATOM      6  C   UNL     1       0.921   3.483  20.496  0.00  0.00    +0.000 C 
ATOM      7  C   UNL     1       2.356   2.028  19.045  0.00  0.00    +0.000 A 
ATOM      8  C   UNL     1       3.339   1.824  18.082  0.00  0.00    +0.000 A 
ATOM      9  C   UNL     1       3.950   2.904  17.450  0.00  0.00    +0.000 A 
ATOM     10  C   UNL     1       3.509   4.196  17.767  0.00  0.00    +0.000 A 
ENDROOT
BRANCH   1  11
ATOM     11  O   UNL     1       4.874   5.848  16.441  0.00  0.00    +0.000 OA
BRANCH  11  12
ATOM     12  C   UNL     1       6.156   5.697  17.045  0.00  0.00    +0.000 C 
BRANCH  12  13
ATOM     13  C   UNL     1       6.922   7.013  17.051  0.00  0.00    +0.000 C 
BRANCH  13  15
ATOM     14  C   UNL     1       7.750   5.812  19.110  0.00  0.00    +0.000 C 
ATOM     15  C   UNL     1       7.844   7.071  18.272  0.00  0.00    +0.000 C 
ENDBRANCH  13  15
ENDBRANCH  12  13
ENDBRANCH  11  12
ENDBRANCH   1  11
BRANCH   2  16
ATOM     16  C   UNL     1       3.223   7.862  17.934  0.00  0.00    +0.000 C 
BRANCH  16  17
ATOM     17  C   UNL     1       1.929   8.636  17.687  0.00  0.00    +0.000 C 
ATOM     18  C   UNL     1       1.390   9.350  18.917  0.00  0.00    +0.000 C 
ENDBRANCH  16  17
ENDBRANCH   2  16
TORSDOF 6
ENDMDL
MODEL 7
REMARK VINA RESULT:      -6.4      1.823      4.432
REMARK  Name = 
REMARK  9 active torsions:
REMARK  status: ('A' for Active; 'I' for Inactive)
REMARK    1  A    between atoms: C_1  and  C_2
REMARK    2  A    between atoms: C_2  and  C_3
REMARK    3  A    between atoms: C_3  and  C_4
REMARK    4  A    between atoms: C_4  and  O_5
REMARK    5  A    between atoms: O_5  and  N_6
REMARK    6  A    between atoms: C_7  and  C_8
REMARK    7  A    between atoms: C_8  and  C_9
REMARK    8  A    between atoms: C_9  and  C_10
REMARK    9  A    between atoms: C_13  and  C_14
REMARK                            x       y       z     vdW  Elec       q    Type
REMARK                         _______ _______ _______ _____ _____    ______ ____
ROOT
ATOM      1  N   UNL     1       4.475   4.442  18.897  0.00  0.00    +0.000 N 
ATOM      2  C   UNL     1       4.997   5.026  17.762  0.00  0.00    +0.000 A 
ATOM      3  N   UNL     1       4.376   6.161  17.492  0.00  0.00    +0.000 NA
ATOM      4  C   UNL     1       3.451   6.333  18.496  0.00  0.00    +0.000 A 
ATOM      5  C   UNL     1       2.553   7.403  18.701  0.00  0.00    +0.000 A 
ATOM      6  C   UNL     1       2.509   8.619  17.823  0.00  0.00    +0.000 C 
ATOM      7  C   UNL     1       1.670   7.322  19.796  0.00  0.00    +0.000 A 
ATOM      8  C   UNL     1       1.708   6.246  20.678  0.00  0.00    +0.000 A 
ATOM      9  C   UNL     1       2.634   5.220  20.510  0.00  0.00    +0.000 A 
ATOM     10  C   UNL     1       3.485   5.269  19.398  0.00  0.00    +0.000 A 
ENDROOT
BRANCH   1  11
ATOM     11  O   UNL     1       5.008   3.263  19.475  0.00  0.00    +0.000 OA
BRANCH  11  12
ATOM     12  C   UNL     1       4.003   2.263  19.622  0.00  0.00    +0.000 C 
BRANCH  12  13
ATOM     13  C   UNL     1       3.668   1.617  18.284  0.00  0.00    +0.000 C 
BRANCH  13  15
ATOM     14  C   UNL     1       1.287   2.247  18.831  0.00  0.00    +0.000 C 
ATOM     15  C   UNL     1       2.348   2.182  17.752  0.00  0.00    +0.000 C 
ENDBRANCH  13  15
ENDBRANCH  12  13
ENDBRANCH  11  12
ENDBRANCH   1  11
BRANCH   2  16
ATOM     16  C   UNL     1       6.167   4.499  16.997  0.00  0.00    +0.000 C 
BRANCH  16  17
ATOM     17  C   UNL     1       7.523   4.649  17.684  0.00  0.00    +0.000 C 
ATOM     18  C   UNL     1       7.672   5.933  18.485  0.00  0.00    +0.000 C 
ENDBRANCH  16  17
ENDBRANCH   2  16
TORSDOF 6
ENDMDL
MODEL 8
REMARK VINA RESULT:      -6.4      1.835      6.033
REMARK  Name = 
REMARK  9 active torsions:
REMARK  status: ('A' for Active; 'I' for Inactive)
REMARK    1  A    between atoms: C_1  and  C_2
REMARK    2  A    between atoms: C_2  and  C_3
REMARK    3  A    between atoms: C_3  and  C_4
REMARK    4  A    between atoms: C_4  and  O_5
REMARK    5  A    between atoms: O_5  and  N_6
REMARK    6  A    between atoms: C_7  and  C_8
REMARK    7  A    between atoms: C_8  and  C_9
REMARK    8  A    between atoms: C_9  and  C_10
REMARK    9  A    between atoms: C_13  and  C_14
REMARK                            x       y       z     vdW  Elec       q    Type
REMARK                         _______ _______ _______ _____ _____    ______ ____
ROOT
ATOM      1  N   UNL     1       3.462   4.695  17.585  0.00  0.00    +0.000 N 
ATOM      2  C   UNL     1       3.557   5.697  18.529  0.00  0.00    +0.000 A 
ATOM      3  N   UNL     1       4.736   6.291  18.463  0.00  0.00    +0.000 NA
ATOM      4  C   UNL     1       5.409   5.681  17.429  0.00  0.00    +0.000 A 
ATOM      5  C   UNL     1       6.694   5.965  16.918  0.00  0.00    +0.000 A 
ATOM      6  C   UNL     1       7.553   7.084  17.428  0.00  0.00    +0.000 C 
ATOM      7  C   UNL     1       7.176   5.161  15.866  0.00  0.00    +0.000 A 
ATOM      8  C   UNL     1       6.398   4.148  15.313  0.00  0.00    +0.000 A 
ATOM      9  C   UNL     1       5.108   3.908  15.778  0.00  0.00    +0.000 A 
ATOM     10  C   UNL     1       4.637   4.672  16.853  0.00  0.00    +0.000 A 
ENDROOT
BRANCH   1  11
ATOM     11  O   UNL     1       2.277   3.950  17.364  0.00  0.00    +0.000 OA
BRANCH  11  12
ATOM     12  C   UNL     1       2.486   2.564  17.620  0.00  0.00    +0.000 C 
BRANCH  12  13
ATOM     13  C   UNL     1       2.520   2.278  19.116  0.00  0.00    +0.000 C 
BRANCH  13  15
ATOM     14  C   UNL     1       1.318   2.876  21.252  0.00  0.00    +0.000 C 
ATOM     15  C   UNL     1       1.191   2.693  19.753  0.00  0.00    +0.000 C 
ENDBRANCH  13  15
ENDBRANCH  12  13
ENDBRANCH  11  12
ENDBRANCH   1  11
BRANCH   2  16
ATOM     16  C   UNL     1       2.447   6.116  19.436  0.00  0.00    +0.000 C 
BRANCH  16  17
ATOM     17  C   UNL     1       2.163   7.616  19.476  0.00  0.00    +0.000 C 
ATOM     18  C   UNL     1       1.991   8.251  18.106  0.00  0.00    +0.000 C 
ENDBRANCH  16  17
ENDBRANCH   2  16
TORSDOF 6
ENDMDL
MODEL 9
REMARK VINA RESULT:      -6.4      2.125      3.958
REMARK  Name = 
REMARK  9 active torsions:
REMARK  status: ('A' for Active; 'I' for Inactive)
REMARK    1  A    between atoms: C_1  and  C_2
REMARK    2  A    between atoms: C_2  and  C_3
REMARK    3  A    between atoms: C_3  and  C_4
REMARK    4  A    between atoms: C_4  and  O_5
REMARK    5  A    between atoms: O_5  and  N_6
REMARK    6  A    between atoms: C_7  and  C_8
REMARK    7  A    between atoms: C_8  and  C_9
REMARK    8  A    between atoms: C_9  and  C_10
REMARK    9  A    between atoms: C_13  and  C_14
REMARK                            x       y       z     vdW  Elec       q    Type
REMARK                         _______ _______ _______ _____ _____    ______ ____
ROOT
ATOM      1  N   UNL     1       3.733   5.399  17.377  0.00  0.00    +0.000 N 
ATOM      2  C   UNL     1       3.017   6.315  18.120  0.00  0.00    +0.000 A 
ATOM      3  N   UNL     1       2.268   5.704  19.021  0.00  0.00    +0.000 NA
ATOM      4  C   UNL     1       2.531   4.360  18.882  0.00  0.00    +0.000 A 
ATOM      5  C   UNL     1       2.020   3.275  19.627  0.00  0.00    +0.000 A 
ATOM      6  C   UNL     1       1.093   3.443  20.794  0.00  0.00    +0.000 C 
ATOM      7  C   UNL     1       2.421   1.976  19.257  0.00  0.00    +0.000 A 
ATOM      8  C   UNL     1       3.326   1.764  18.221  0.00  0.00    +0.000 A 
ATOM      9  C   UNL     1       3.875   2.839  17.525  0.00  0.00    +0.000 A 
ATOM     10  C   UNL     1       3.448   4.131  17.856  0.00  0.00    +0.000 A 
ENDROOT
BRANCH   1  11
ATOM     11  O   UNL     1       4.688   5.772  16.400  0.00  0.00    +0.000 OA
BRANCH  11  12
ATOM     12  C   UNL     1       5.998   5.838  16.959  0.00  0.00    +0.000 C 
BRANCH  12  13
ATOM     13  C   UNL     1       6.865   4.685  16.471  0.00  0.00    +0.000 C 
BRANCH  13  15
ATOM     14  C   UNL     1       7.015   4.809  13.956  0.00  0.00    +0.000 C 
ATOM     15  C   UNL     1       6.326   4.159  15.138  0.00  0.00    +0.000 C 
ENDBRANCH  13  15
ENDBRANCH  12  13
ENDBRANCH  11  12
ENDBRANCH   1  11
BRANCH   2  16
ATOM     16  C   UNL     1       3.143   7.798  17.988  0.00  0.00    +0.000 C 
BRANCH  16  17
ATOM     17  C   UNL     1       1.859   8.535  17.611  0.00  0.00    +0.000 C 
ATOM     18  C   UNL     1       1.648   9.837  18.365  0.00  0.00    +0.000 C 
ENDBRANCH  16  17
ENDBRANCH   2  16
TORSDOF 6
ENDMDL
