MODEL 1
REMARK VINA RESULT:      -7.8      0.000      0.000
REMARK  Name = 
REMARK  9 active torsions:
REMARK  status: ('A' for Active; 'I' for Inactive)
REMARK    1  A    between atoms: C_6  and  N_7
REMARK    2  A    between atoms: N_7  and  C_8
REMARK    3  A    between atoms: C_8  and  C_9
REMARK    4  A    between atoms: C_9  and  C_10
REMARK    5  A    between atoms: C_10  and  C_11
REMARK    6  A    between atoms: C_11  and  N_12
REMARK    7  A    between atoms: N_12  and  C_13
REMARK    8  A    between atoms: N_12  and  C_24
REMARK    9  A    between atoms: C_13  and  C_14
REMARK                            x       y       z     vdW  Elec       q    Type
REMARK                         _______ _______ _______ _____ _____    ______ ____
ROOT
ATOM      1  N   UNL     1       8.978  11.322  18.278  0.00  0.00    +0.000 NA
ENDROOT
BRANCH   1   2
ATOM      2  C   UNL     1       8.909  12.569  17.434  0.00  0.00    +0.000 C 
ATOM      3  C   UNL     1       7.538  13.291  17.407  0.00  0.00    +0.000 C 
ATOM      4  C   UNL     1       7.465  14.459  18.379  0.00  0.00    +0.000 C 
ATOM      5  C   UNL     1       8.513  15.502  18.016  0.00  0.00    +0.000 C 
ATOM      6  C   UNL     1       9.874  14.916  17.751  0.00  0.00    +0.000 A 
ATOM      7  C   UNL     1      10.959  15.784  17.579  0.00  0.00    +0.000 A 
ATOM      8  C   UNL     1      12.203  15.280  17.227  0.00  0.00    +0.000 A 
ATOM      9  C   UNL     1      12.333  13.913  17.078  0.00  0.00    +0.000 A 
ATOM     10  N   UNL     1      11.312  13.044  17.229  0.00  0.00    +0.000 NA
ATOM     11  C   UNL     1      10.088  13.546  17.552  0.00  0.00    +0.000 A 
ENDBRANCH   1   2
BRANCH   1  12
ATOM     12  C   UNL     1       8.175  10.216  17.676  0.00  0.00    +0.000 C 
BRANCH  12  13
ATOM     13  C   UNL     1       8.457   8.822  18.296  0.00  0.00    +0.000 C 
BRANCH  13  14
ATOM     14  C   UNL     1       7.676   7.632  17.730  0.00  0.00    +0.000 C 
BRANCH  14  15
ATOM     15  C   UNL     1       7.793   6.336  18.541  0.00  0.00    +0.000 C 
BRANCH  15  16
ATOM     16  N   UNL     1       6.536   5.779  19.060  0.00  0.00    +0.000 NA
ATOM     17  H   UNL     1       6.636   5.662  20.068  0.00  0.00    +0.000 HD
BRANCH  16  23
ATOM     18  F   UNL     1       2.688   4.042  17.203  0.00  0.00    +0.000 F 
ATOM     19  C   UNL     1       3.205   5.140  17.813  0.00  0.00    +0.000 C 
ATOM     20  F   UNL     1       2.193   6.043  17.895  0.00  0.00    +0.000 F 
ATOM     21  C   UNL     1       3.647   4.756  19.216  0.00  0.00    +0.000 C 
ATOM     22  C   UNL     1       4.888   3.865  19.175  0.00  0.00    +0.000 C 
ATOM     23  C   UNL     1       6.055   4.540  18.431  0.00  0.00    +0.000 C 
ATOM     24  C   UNL     1       5.584   4.850  16.990  0.00  0.00    +0.000 C 
ATOM     25  C   UNL     1       4.315   5.709  16.943  0.00  0.00    +0.000 C 
ENDBRANCH  16  23
ENDBRANCH  15  16
ENDBRANCH  14  15
ENDBRANCH  13  14
ENDBRANCH  12  13
ENDBRANCH   1  12
BRANCH   1  26
ATOM     26  C   UNL     1       8.631  11.606  19.691  0.00  0.00    +0.000 C 
BRANCH  26  27
ATOM     27  C   UNL     1       9.695  11.424  20.846  0.00  0.00    +0.000 C 
ATOM     28  C   UNL     1      10.770  12.530  20.951  0.00  0.00    +0.000 C 
ATOM     29  C   UNL     1      10.175  13.817  21.446  0.00  0.00    +0.000 A 
ATOM     30  C   UNL     1      10.668  15.066  21.036  0.00  0.00    +0.000 A 
ATOM     31  C   UNL     1      10.026  16.239  21.440  0.00  0.00    +0.000 A 
ATOM     32  C   UNL     1       8.911  16.172  22.269  0.00  0.00    +0.000 A 
ATOM     33  C   UNL     1       8.465  14.934  22.741  0.00  0.00    +0.000 A 
ATOM     34  C   UNL     1       9.104  13.751  22.342  0.00  0.00    +0.000 A 
ATOM     35  C   UNL     1       8.707  12.421  22.936  0.00  0.00    +0.000 C 
ATOM     36  N   UNL     1       9.020  11.215  22.155  0.00  0.00    +0.000 NA
ATOM     37  H   UNL     1       8.169  10.674  22.027  0.00  0.00    +0.000 HD
ENDBRANCH  26  27
ENDBRANCH   1  26
TORSDOF 9
ENDMDL
MODEL 2
REMARK VINA RESULT:      -7.7      7.012     10.299
REMARK  Name = 
REMARK  9 active torsions:
REMARK  status: ('A' for Active; 'I' for Inactive)
REMARK    1  A    between atoms: C_6  and  N_7
REMARK    2  A    between atoms: N_7  and  C_8
REMARK    3  A    between atoms: C_8  and  C_9
REMARK    4  A    between atoms: C_9  and  C_10
REMARK    5  A    between atoms: C_10  and  C_11
REMARK    6  A    between atoms: C_11  and  N_12
REMARK    7  A    between atoms: N_12  and  C_13
REMARK    8  A    between atoms: N_12  and  C_24
REMARK    9  A    between atoms: C_13  and  C_14
REMARK                            x       y       z     vdW  Elec       q    Type
REMARK                         _______ _______ _______ _____ _____    ______ ____
ROOT
ATOM      1  N   UNL     1       3.976   5.457  17.677  0.00  0.00    +0.000 NA
ENDROOT
BRANCH   1   2
ATOM      2  C   UNL     1       4.785   6.190  16.636  0.00  0.00    +0.000 C 
ATOM      3  C   UNL     1       5.622   7.388  17.152  0.00  0.00    +0.000 C 
ATOM      4  C   UNL     1       7.076   7.025  17.411  0.00  0.00    +0.000 C 
ATOM      5  C   UNL     1       7.733   6.559  16.118  0.00  0.00    +0.000 C 
ATOM      6  C   UNL     1       6.905   5.564  15.351  0.00  0.00    +0.000 A 
ATOM      7  C   UNL     1       7.472   4.931  14.239  0.00  0.00    +0.000 A 
ATOM      8  C   UNL     1       6.700   4.091  13.449  0.00  0.00    +0.000 A 
ATOM      9  C   UNL     1       5.382   3.889  13.808  0.00  0.00    +0.000 A 
ATOM     10  N   UNL     1       4.797   4.484  14.868  0.00  0.00    +0.000 NA
ATOM     11  C   UNL     1       5.552   5.325  15.626  0.00  0.00    +0.000 A 
ENDBRANCH   1   2
BRANCH   1  12
ATOM     12  C   UNL     1       2.940   6.347  18.281  0.00  0.00    +0.000 C 
BRANCH  12  13
ATOM     13  C   UNL     1       2.852   6.253  19.828  0.00  0.00    +0.000 C 
BRANCH  13  14
ATOM     14  C   UNL     1       1.521   6.642  20.479  0.00  0.00    +0.000 C 
BRANCH  14  15
ATOM     15  C   UNL     1       1.491   8.043  21.103  0.00  0.00    +0.000 C 
BRANCH  15  16
ATOM     16  N   UNL     1       0.477   8.967  20.575  0.00  0.00    +0.000 NA
ATOM     17  H   UNL     1      -0.222   8.417  20.078  0.00  0.00    +0.000 HD
BRANCH  16  23
ATOM     18  F   UNL     1      -1.157  12.275  17.809  0.00  0.00    +0.000 F 
ATOM     19  C   UNL     1      -1.524  11.221  18.583  0.00  0.00    +0.000 C 
ATOM     20  F   UNL     1      -2.876  11.128  18.484  0.00  0.00    +0.000 F 
ATOM     21  C   UNL     1      -0.894   9.959  18.016  0.00  0.00    +0.000 C 
ATOM     22  C   UNL     1       0.616   9.948  18.249  0.00  0.00    +0.000 C 
ATOM     23  C   UNL     1       0.967  10.075  19.743  0.00  0.00    +0.000 C 
ATOM     24  C   UNL     1       0.365  11.405  20.260  0.00  0.00    +0.000 C 
ATOM     25  C   UNL     1      -1.145  11.513  20.026  0.00  0.00    +0.000 C 
ENDBRANCH  16  23
ENDBRANCH  15  16
ENDBRANCH  14  15
ENDBRANCH  13  14
ENDBRANCH  12  13
ENDBRANCH   1  12
BRANCH   1  26
ATOM     26  C   UNL     1       4.851   4.801  18.678  0.00  0.00    +0.000 C 
BRANCH  26  27
ATOM     27  C   UNL     1       5.000   3.228  18.725  0.00  0.00    +0.000 C 
ATOM     28  C   UNL     1       4.571   2.551  20.047  0.00  0.00    +0.000 C 
ATOM     29  C   UNL     1       3.081   2.601  20.222  0.00  0.00    +0.000 A 
ATOM     30  C   UNL     1       2.487   2.695  21.490  0.00  0.00    +0.000 A 
ATOM     31  C   UNL     1       1.103   2.840  21.607  0.00  0.00    +0.000 A 
ATOM     32  C   UNL     1       0.307   2.869  20.466  0.00  0.00    +0.000 A 
ATOM     33  C   UNL     1       0.888   2.698  19.205  0.00  0.00    +0.000 A 
ATOM     34  C   UNL     1       2.277   2.550  19.079  0.00  0.00    +0.000 A 
ATOM     35  C   UNL     1       2.902   2.248  17.738  0.00  0.00    +0.000 C 
ATOM     36  N   UNL     1       4.319   2.600  17.562  0.00  0.00    +0.000 NA
ATOM     37  H   UNL     1       4.413   3.191  16.741  0.00  0.00    +0.000 HD
ENDBRANCH  26  27
ENDBRANCH   1  26
TORSDOF 9
ENDMDL
MODEL 3
REMARK VINA RESULT:      -7.5      7.720     10.834
REMARK  Name = 
REMARK  9 active torsions:
REMARK  status: ('A' for Active; 'I' for Inactive)
REMARK    1  A    between atoms: C_6  and  N_7
REMARK    2  A    between atoms: N_7  and  C_8
REMARK    3  A    between atoms: C_8  and  C_9
REMARK    4  A    between atoms: C_9  and  C_10
REMARK    5  A    between atoms: C_10  and  C_11
REMARK    6  A    between atoms: C_11  and  N_12
REMARK    7  A    between atoms: N_12  and  C_13
REMARK    8  A    between atoms: N_12  and  C_24
REMARK    9  A    between atoms: C_13  and  C_14
REMARK                            x       y       z     vdW  Elec       q    Type
REMARK                         _______ _______ _______ _____ _____    ______ ____
ROOT
ATOM      1  N   UNL     1      -0.308  10.674  19.075  0.00  0.00    +0.000 NA
ENDROOT
BRANCH   1   2
ATOM      2  C   UNL     1       0.258  11.878  19.783  0.00  0.00    +0.000 C 
ATOM      3  C   UNL     1       0.854  12.980  18.871  0.00  0.00    +0.000 C 
ATOM      4  C   UNL     1      -0.117  14.122  18.612  0.00  0.00    +0.000 C 
ATOM      5  C   UNL     1      -0.486  14.797  19.926  0.00  0.00    +0.000 C 
ATOM      6  C   UNL     1      -0.848  13.826  21.017  0.00  0.00    +0.000 A 
ATOM      7  C   UNL     1      -1.371  14.324  22.215  0.00  0.00    +0.000 A 
ATOM      8  C   UNL     1      -1.613  13.465  23.278  0.00  0.00    +0.000 A 
ATOM      9  C   UNL     1      -1.343  12.122  23.104  0.00  0.00    +0.000 A 
ATOM     10  N   UNL     1      -0.833  11.604  21.968  0.00  0.00    +0.000 NA
ATOM     11  C   UNL     1      -0.576  12.454  20.936  0.00  0.00    +0.000 A 
ENDBRANCH   1   2
BRANCH   1  12
ATOM     12  C   UNL     1       0.730  10.001  18.238  0.00  0.00    +0.000 C 
BRANCH  12  13
ATOM     13  C   UNL     1       1.533   8.906  18.990  0.00  0.00    +0.000 C 
BRANCH  13  14
ATOM     14  C   UNL     1       2.342   7.922  18.140  0.00  0.00    +0.000 C 
BRANCH  14  15
ATOM     15  C   UNL     1       2.946   6.743  18.913  0.00  0.00    +0.000 C 
BRANCH  15  16
ATOM     16  N   UNL     1       3.234   5.532  18.131  0.00  0.00    +0.000 NA
ATOM     17  H   UNL     1       2.393   5.285  17.612  0.00  0.00    +0.000 HD
BRANCH  16  23
ATOM     18  F   UNL     1       1.868   1.363  19.551  0.00  0.00    +0.000 F 
ATOM     19  C   UNL     1       1.459   2.479  18.893  0.00  0.00    +0.000 C 
ATOM     20  F   UNL     1       0.167   2.259  18.535  0.00  0.00    +0.000 F 
ATOM     21  C   UNL     1       1.518   3.657  19.851  0.00  0.00    +0.000 C 
ATOM     22  C   UNL     1       2.965   4.043  20.157  0.00  0.00    +0.000 C 
ATOM     23  C   UNL     1       3.753   4.376  18.876  0.00  0.00    +0.000 C 
ATOM     24  C   UNL     1       3.724   3.127  17.963  0.00  0.00    +0.000 C 
ATOM     25  C   UNL     1       2.305   2.649  17.641  0.00  0.00    +0.000 C 
ENDBRANCH  16  23
ENDBRANCH  15  16
ENDBRANCH  14  15
ENDBRANCH  13  14
ENDBRANCH  12  13
ENDBRANCH   1  12
BRANCH   1  26
ATOM     26  C   UNL     1      -1.541  11.018  18.326  0.00  0.00    +0.000 C 
BRANCH  26  27
ATOM     27  C   UNL     1      -2.221   9.976  17.351  0.00  0.00    +0.000 C 
ATOM     28  C   UNL     1      -3.577   9.401  17.821  0.00  0.00    +0.000 C 
ATOM     29  C   UNL     1      -4.657  10.444  17.761  0.00  0.00    +0.000 A 
ATOM     30  C   UNL     1      -5.724  10.457  18.672  0.00  0.00    +0.000 A 
ATOM     31  C   UNL     1      -6.654  11.499  18.647  0.00  0.00    +0.000 A 
ATOM     32  C   UNL     1      -6.536  12.514  17.703  0.00  0.00    +0.000 A 
ATOM     33  C   UNL     1      -5.519  12.462  16.745  0.00  0.00    +0.000 A 
ATOM     34  C   UNL     1      -4.581  11.419  16.762  0.00  0.00    +0.000 A 
ATOM     35  C   UNL     1      -3.553  11.288  15.665  0.00  0.00    +0.000 C 
ATOM     36  N   UNL     1      -2.330  10.533  15.977  0.00  0.00    +0.000 NA
ATOM     37  H   UNL     1      -1.521  11.115  15.771  0.00  0.00    +0.000 HD
ENDBRANCH  26  27
ENDBRANCH   1  26
TORSDOF 9
ENDMDL
MODEL 4
REMARK VINA RESULT:      -7.4      6.328      8.994
REMARK  Name = 
REMARK  9 active torsions:
REMARK  status: ('A' for Active; 'I' for Inactive)
REMARK    1  A    between atoms: C_6  and  N_7
REMARK    2  A    between atoms: N_7  and  C_8
REMARK    3  A    between atoms: C_8  and  C_9
REMARK    4  A    between atoms: C_9  and  C_10
REMARK    5  A    between atoms: C_10  and  C_11
REMARK    6  A    between atoms: C_11  and  N_12
REMARK    7  A    between atoms: N_12  and  C_13
REMARK    8  A    between atoms: N_12  and  C_24
REMARK    9  A    between atoms: C_13  and  C_14
REMARK                            x       y       z     vdW  Elec       q    Type
REMARK                         _______ _______ _______ _____ _____    ______ ____
ROOT
ATOM      1  N   UNL     1       0.463  11.054  18.426  0.00  0.00    +0.000 NA
ENDROOT
BRANCH   1   2
ATOM      2  C   UNL     1      -0.930  10.711  18.889  0.00  0.00    +0.000 C 
ATOM      3  C   UNL     1      -1.297  11.169  20.323  0.00  0.00    +0.000 C 
ATOM      4  C   UNL     1      -2.072  12.478  20.345  0.00  0.00    +0.000 C 
ATOM      5  C   UNL     1      -3.385  12.316  19.591  0.00  0.00    +0.000 C 
ATOM      6  C   UNL     1      -3.229  11.636  18.258  0.00  0.00    +0.000 A 
ATOM      7  C   UNL     1      -4.330  11.583  17.395  0.00  0.00    +0.000 A 
ATOM      8  C   UNL     1      -4.249  10.870  16.207  0.00  0.00    +0.000 A 
ATOM      9  C   UNL     1      -3.056  10.244  15.904  0.00  0.00    +0.000 A 
ATOM     10  N   UNL     1      -1.975  10.265  16.710  0.00  0.00    +0.000 NA
ATOM     11  C   UNL     1      -2.067  10.947  17.885  0.00  0.00    +0.000 A 
ENDBRANCH   1   2
BRANCH   1  12
ATOM     12  C   UNL     1       1.475  10.135  19.027  0.00  0.00    +0.000 C 
BRANCH  12  13
ATOM     13  C   UNL     1       2.201   9.233  17.993  0.00  0.00    +0.000 C 
BRANCH  13  14
ATOM     14  C   UNL     1       2.108   7.718  18.197  0.00  0.00    +0.000 C 
BRANCH  14  15
ATOM     15  C   UNL     1       3.367   6.933  17.805  0.00  0.00    +0.000 C 
BRANCH  15  16
ATOM     16  N   UNL     1       3.577   5.655  18.497  0.00  0.00    +0.000 NA
ATOM     17  H   UNL     1       4.555   5.608  18.783  0.00  0.00    +0.000 HD
BRANCH  16  23
ATOM     18  F   UNL     1       1.660   1.539  19.306  0.00  0.00    +0.000 F 
ATOM     19  C   UNL     1       2.072   2.687  19.905  0.00  0.00    +0.000 C 
ATOM     20  F   UNL     1       1.816   2.538  21.231  0.00  0.00    +0.000 F 
ATOM     21  C   UNL     1       3.571   2.831  19.699  0.00  0.00    +0.000 C 
ATOM     22  C   UNL     1       3.896   3.159  18.243  0.00  0.00    +0.000 C 
ATOM     23  C   UNL     1       3.182   4.440  17.770  0.00  0.00    +0.000 C 
ATOM     24  C   UNL     1       1.659   4.221  17.933  0.00  0.00    +0.000 C 
ATOM     25  C   UNL     1       1.253   3.847  19.362  0.00  0.00    +0.000 C 
ENDBRANCH  16  23
ENDBRANCH  15  16
ENDBRANCH  14  15
ENDBRANCH  13  14
ENDBRANCH  12  13
ENDBRANCH   1  12
BRANCH   1  26
ATOM     26  C   UNL     1       0.766  12.490  18.640  0.00  0.00    +0.000 C 
BRANCH  26  27
ATOM     27  C   UNL     1       1.896  12.944  19.648  0.00  0.00    +0.000 C 
ATOM     28  C   UNL     1       3.082  13.716  19.026  0.00  0.00    +0.000 C 
ATOM     29  C   UNL     1       2.662  15.089  18.586  0.00  0.00    +0.000 A 
ATOM     30  C   UNL     1       3.243  15.720  17.475  0.00  0.00    +0.000 A 
ATOM     31  C   UNL     1       2.758  16.955  17.037  0.00  0.00    +0.000 A 
ATOM     32  C   UNL     1       1.712  17.572  17.715  0.00  0.00    +0.000 A 
ATOM     33  C   UNL     1       1.183  16.982  18.868  0.00  0.00    +0.000 A 
ATOM     34  C   UNL     1       1.665  15.743  19.316  0.00  0.00    +0.000 A 
ATOM     35  C   UNL     1       1.186  15.155  20.621  0.00  0.00    +0.000 C 
ATOM     36  N   UNL     1       1.312  13.699  20.788  0.00  0.00    +0.000 NA
ATOM     37  H   UNL     1       0.403  13.315  21.032  0.00  0.00    +0.000 HD
ENDBRANCH  26  27
ENDBRANCH   1  26
TORSDOF 9
ENDMDL
MODEL 5
REMARK VINA RESULT:      -7.4      2.122      3.438
REMARK  Name = 
REMARK  9 active torsions:
REMARK  status: ('A' for Active; 'I' for Inactive)
REMARK    1  A    between atoms: C_6  and  N_7
REMARK    2  A    between atoms: N_7  and  C_8
REMARK    3  A    between atoms: C_8  and  C_9
REMARK    4  A    between atoms: C_9  and  C_10
REMARK    5  A    between atoms: C_10  and  C_11
REMARK    6  A    between atoms: C_11  and  N_12
REMARK    7  A    between atoms: N_12  and  C_13
REMARK    8  A    between atoms: N_12  and  C_24
REMARK    9  A    between atoms: C_13  and  C_14
REMARK                            x       y       z     vdW  Elec       q    Type
REMARK                         _______ _______ _______ _____ _____    ______ ____
ROOT
ATOM      1  N   UNL     1      10.235  12.227  20.477  0.00  0.00    +0.000 NA
ENDROOT
BRANCH   1   2
ATOM      2  C   UNL     1      11.100  13.250  19.784  0.00  0.00    +0.000 C 
ATOM      3  C   UNL     1      12.256  12.683  18.922  0.00  0.00    +0.000 C 
ATOM      4  C   UNL     1      11.907  12.602  17.444  0.00  0.00    +0.000 C 
ATOM      5  C   UNL     1      11.605  13.995  16.906  0.00  0.00    +0.000 C 
ATOM      6  C   UNL     1      10.678  14.788  17.786  0.00  0.00    +0.000 A 
ATOM      7  C   UNL     1      10.187  16.012  17.317  0.00  0.00    +0.000 A 
ATOM      8  C   UNL     1       9.418  16.816  18.146  0.00  0.00    +0.000 A 
ATOM      9  C   UNL     1       9.142  16.362  19.420  0.00  0.00    +0.000 A 
ATOM     10  N   UNL     1       9.600  15.192  19.912  0.00  0.00    +0.000 NA
ATOM     11  C   UNL     1      10.373  14.417  19.102  0.00  0.00    +0.000 A 
ENDBRANCH   1   2
BRANCH   1  12
ATOM     12  C   UNL     1       9.189  11.691  19.556  0.00  0.00    +0.000 C 
BRANCH  12  13
ATOM     13  C   UNL     1       9.403  10.207  19.155  0.00  0.00    +0.000 C 
BRANCH  13  14
ATOM     14  C   UNL     1       8.430   9.610  18.132  0.00  0.00    +0.000 C 
BRANCH  14  15
ATOM     15  C   UNL     1       8.275   8.086  18.199  0.00  0.00    +0.000 C 
BRANCH  15  16
ATOM     16  N   UNL     1       7.403   7.476  17.185  0.00  0.00    +0.000 NA
ATOM     17  H   UNL     1       7.062   8.219  16.575  0.00  0.00    +0.000 HD
BRANCH  16  23
ATOM     18  F   UNL     1       5.006   3.721  15.993  0.00  0.00    +0.000 F 
ATOM     19  C   UNL     1       6.007   4.548  15.595  0.00  0.00    +0.000 C 
ATOM     20  F   UNL     1       6.443   4.069  14.399  0.00  0.00    +0.000 F 
ATOM     21  C   UNL     1       5.437   5.943  15.396  0.00  0.00    +0.000 C 
ATOM     22  C   UNL     1       5.080   6.585  16.736  0.00  0.00    +0.000 C 
ATOM     23  C   UNL     1       6.294   6.651  17.683  0.00  0.00    +0.000 C 
ATOM     24  C   UNL     1       6.797   5.205  17.910  0.00  0.00    +0.000 C 
ATOM     25  C   UNL     1       7.139   4.474  16.608  0.00  0.00    +0.000 C 
ENDBRANCH  16  23
ENDBRANCH  15  16
ENDBRANCH  14  15
ENDBRANCH  13  14
ENDBRANCH  12  13
ENDBRANCH   1  12
BRANCH   1  26
ATOM     26  C   UNL     1       9.690  12.754  21.751  0.00  0.00    +0.000 C 
BRANCH  26  27
ATOM     27  C   UNL     1       8.142  12.684  22.067  0.00  0.00    +0.000 C 
ATOM     28  C   UNL     1       7.768  12.251  23.503  0.00  0.00    +0.000 C 
ATOM     29  C   UNL     1       8.113  13.321  24.498  0.00  0.00    +0.000 A 
ATOM     30  C   UNL     1       8.509  13.014  25.809  0.00  0.00    +0.000 A 
ATOM     31  C   UNL     1       8.917  14.031  26.675  0.00  0.00    +0.000 A 
ATOM     32  C   UNL     1       8.910  15.354  26.246  0.00  0.00    +0.000 A 
ATOM     33  C   UNL     1       8.443  15.671  24.967  0.00  0.00    +0.000 A 
ATOM     34  C   UNL     1       8.030  14.657  24.091  0.00  0.00    +0.000 A 
ATOM     35  C   UNL     1       7.414  14.994  22.755  0.00  0.00    +0.000 C 
ATOM     36  N   UNL     1       7.473  13.962  21.708  0.00  0.00    +0.000 NA
ATOM     37  H   UNL     1       7.903  14.360  20.876  0.00  0.00    +0.000 HD
ENDBRANCH  26  27
ENDBRANCH   1  26
TORSDOF 9
ENDMDL
MODEL 6
REMARK VINA RESULT:      -7.3      6.719      9.148
REMARK  Name = 
REMARK  9 active torsions:
REMARK  status: ('A' for Active; 'I' for Inactive)
REMARK    1  A    between atoms: C_6  and  N_7
REMARK    2  A    between atoms: N_7  and  C_8
REMARK    3  A    between atoms: C_8  and  C_9
REMARK    4  A    between atoms: C_9  and  C_10
REMARK    5  A    between atoms: C_10  and  C_11
REMARK    6  A    between atoms: C_11  and  N_12
REMARK    7  A    between atoms: N_12  and  C_13
REMARK    8  A    between atoms: N_12  and  C_24
REMARK    9  A    between atoms: C_13  and  C_14
REMARK                            x       y       z     vdW  Elec       q    Type
REMARK                         _______ _______ _______ _____ _____    ______ ____
ROOT
ATOM      1  N   UNL     1       0.552  11.068  19.544  0.00  0.00    +0.000 NA
ENDROOT
BRANCH   1   2
ATOM      2  C   UNL     1      -0.914  10.873  19.838  0.00  0.00    +0.000 C 
ATOM      3  C   UNL     1      -1.454  11.608  21.091  0.00  0.00    +0.000 C 
ATOM      4  C   UNL     1      -2.134  12.926  20.755  0.00  0.00    +0.000 C 
ATOM      5  C   UNL     1      -3.331  12.677  19.846  0.00  0.00    +0.000 C 
ATOM      6  C   UNL     1      -3.028  11.751  18.699  0.00  0.00    +0.000 A 
ATOM      7  C   UNL     1      -3.992  11.581  17.699  0.00  0.00    +0.000 A 
ATOM      8  C   UNL     1      -3.787  10.654  16.687  0.00  0.00    +0.000 A 
ATOM      9  C   UNL     1      -2.607   9.935  16.691  0.00  0.00    +0.000 A 
ATOM     10  N   UNL     1      -1.657  10.066  17.639  0.00  0.00    +0.000 NA
ATOM     11  C   UNL     1      -1.873  10.960  18.642  0.00  0.00    +0.000 A 
ENDBRANCH   1   2
BRANCH   1  12
ATOM     12  C   UNL     1       1.258   9.757  19.421  0.00  0.00    +0.000 C 
BRANCH  12  13
ATOM     13  C   UNL     1       1.886   9.507  18.024  0.00  0.00    +0.000 C 
BRANCH  13  14
ATOM     14  C   UNL     1       2.058   8.050  17.584  0.00  0.00    +0.000 C 
BRANCH  14  15
ATOM     15  C   UNL     1       2.756   7.143  18.606  0.00  0.00    +0.000 C 
BRANCH  15  16
ATOM     16  N   UNL     1       3.311   5.886  18.087  0.00  0.00    +0.000 NA
ATOM     17  H   UNL     1       2.809   5.115  18.525  0.00  0.00    +0.000 HD
BRANCH  16  23
ATOM     18  F   UNL     1       6.936   4.653  15.516  0.00  0.00    +0.000 F 
ATOM     19  C   UNL     1       5.589   4.821  15.492  0.00  0.00    +0.000 C 
ATOM     20  F   UNL     1       5.187   4.496  14.234  0.00  0.00    +0.000 F 
ATOM     21  C   UNL     1       4.960   3.855  16.482  0.00  0.00    +0.000 C 
ATOM     22  C   UNL     1       5.254   4.276  17.921  0.00  0.00    +0.000 C 
ATOM     23  C   UNL     1       4.765   5.708  18.212  0.00  0.00    +0.000 C 
ATOM     24  C   UNL     1       5.482   6.663  17.227  0.00  0.00    +0.000 C 
ATOM     25  C   UNL     1       5.270   6.283  15.758  0.00  0.00    +0.000 C 
ENDBRANCH  16  23
ENDBRANCH  15  16
ENDBRANCH  14  15
ENDBRANCH  13  14
ENDBRANCH  12  13
ENDBRANCH   1  12
BRANCH   1  26
ATOM     26  C   UNL     1       1.181  11.991  20.518  0.00  0.00    +0.000 C 
BRANCH  26  27
ATOM     27  C   UNL     1       2.224  13.084  20.052  0.00  0.00    +0.000 C 
ATOM     28  C   UNL     1       1.691  14.143  19.059  0.00  0.00    +0.000 C 
ATOM     29  C   UNL     1       0.729  15.079  19.733  0.00  0.00    +0.000 A 
ATOM     30  C   UNL     1      -0.349  15.654  19.043  0.00  0.00    +0.000 A 
ATOM     31  C   UNL     1      -1.279  16.440  19.727  0.00  0.00    +0.000 A 
ATOM     32  C   UNL     1      -1.124  16.674  21.090  0.00  0.00    +0.000 A 
ATOM     33  C   UNL     1      -0.009  16.168  21.763  0.00  0.00    +0.000 A 
ATOM     34  C   UNL     1       0.931  15.378  21.084  0.00  0.00    +0.000 A 
ATOM     35  C   UNL     1       2.198  14.925  21.769  0.00  0.00    +0.000 C 
ATOM     36  N   UNL     1       2.866  13.733  21.225  0.00  0.00    +0.000 NA
ATOM     37  H   UNL     1       2.994  13.056  21.973  0.00  0.00    +0.000 HD
ENDBRANCH  26  27
ENDBRANCH   1  26
TORSDOF 9
ENDMDL
MODEL 7
REMARK VINA RESULT:      -7.3      6.360      9.068
REMARK  Name = 
REMARK  9 active torsions:
REMARK  status: ('A' for Active; 'I' for Inactive)
REMARK    1  A    between atoms: C_6  and  N_7
REMARK    2  A    between atoms: N_7  and  C_8
REMARK    3  A    between atoms: C_8  and  C_9
REMARK    4  A    between atoms: C_9  and  C_10
REMARK    5  A    between atoms: C_10  and  C_11
REMARK    6  A    between atoms: C_11  and  N_12
REMARK    7  A    between atoms: N_12  and  C_13
REMARK    8  A    between atoms: N_12  and  C_24
REMARK    9  A    between atoms: C_13  and  C_14
REMARK                            x       y       z     vdW  Elec       q    Type
REMARK                         _______ _______ _______ _____ _____    ______ ____
ROOT
ATOM      1  N   UNL     1       0.470  10.918  18.414  0.00  0.00    +0.000 NA
ENDROOT
BRANCH   1   2
ATOM      2  C   UNL     1      -0.926  10.624  18.901  0.00  0.00    +0.000 C 
ATOM      3  C   UNL     1      -1.252  11.095  20.341  0.00  0.00    +0.000 C 
ATOM      4  C   UNL     1      -1.980  12.430  20.376  0.00  0.00    +0.000 C 
ATOM      5  C   UNL     1      -3.311  12.315  19.644  0.00  0.00    +0.000 C 
ATOM      6  C   UNL     1      -3.202  11.630  18.309  0.00  0.00    +0.000 A 
ATOM      7  C   UNL     1      -4.319  11.616  17.465  0.00  0.00    +0.000 A 
ATOM      8  C   UNL     1      -4.283  10.901  16.276  0.00  0.00    +0.000 A 
ATOM      9  C   UNL     1      -3.119  10.233  15.952  0.00  0.00    +0.000 A 
ATOM     10  N   UNL     1      -2.024  10.216  16.740  0.00  0.00    +0.000 NA
ATOM     11  C   UNL     1      -2.071  10.901  17.916  0.00  0.00    +0.000 A 
ENDBRANCH   1   2
BRANCH   1  12
ATOM     12  C   UNL     1       1.459   9.966  19.001  0.00  0.00    +0.000 C 
BRANCH  12  13
ATOM     13  C   UNL     1       2.269   9.166  17.945  0.00  0.00    +0.000 C 
BRANCH  13  14
ATOM     14  C   UNL     1       2.065   7.649  17.907  0.00  0.00    +0.000 C 
BRANCH  14  15
ATOM     15  C   UNL     1       3.308   6.819  18.250  0.00  0.00    +0.000 C 
BRANCH  15  16
ATOM     16  N   UNL     1       3.081   5.397  18.542  0.00  0.00    +0.000 NA
ATOM     17  H   UNL     1       3.386   4.857  17.733  0.00  0.00    +0.000 HD
BRANCH  16  23
ATOM     18  F   UNL     1       0.949   2.569  21.495  0.00  0.00    +0.000 F 
ATOM     19  C   UNL     1       2.171   2.960  21.049  0.00  0.00    +0.000 C 
ATOM     20  F   UNL     1       3.082   2.230  21.745  0.00  0.00    +0.000 F 
ATOM     21  C   UNL     1       2.281   2.619  19.572  0.00  0.00    +0.000 C 
ATOM     22  C   UNL     1       1.387   3.529  18.731  0.00  0.00    +0.000 C 
ATOM     23  C   UNL     1       1.719   5.018  18.946  0.00  0.00    +0.000 C 
ATOM     24  C   UNL     1       1.527   5.335  20.449  0.00  0.00    +0.000 C 
ATOM     25  C   UNL     1       2.361   4.435  21.366  0.00  0.00    +0.000 C 
ENDBRANCH  16  23
ENDBRANCH  15  16
ENDBRANCH  14  15
ENDBRANCH  13  14
ENDBRANCH  12  13
ENDBRANCH   1  12
BRANCH   1  26
ATOM     26  C   UNL     1       0.825  12.343  18.618  0.00  0.00    +0.000 C 
BRANCH  26  27
ATOM     27  C   UNL     1       1.992  12.760  19.600  0.00  0.00    +0.000 C 
ATOM     28  C   UNL     1       3.158  13.551  18.962  0.00  0.00    +0.000 C 
ATOM     29  C   UNL     1       2.727  14.939  18.584  0.00  0.00    +0.000 A 
ATOM     30  C   UNL     1       3.270  15.606  17.476  0.00  0.00    +0.000 A 
ATOM     31  C   UNL     1       2.773  16.856  17.098  0.00  0.00    +0.000 A 
ATOM     32  C   UNL     1       1.754  17.451  17.834  0.00  0.00    +0.000 A 
ATOM     33  C   UNL     1       1.265  16.824  18.984  0.00  0.00    +0.000 A 
ATOM     34  C   UNL     1       1.759  15.570  19.372  0.00  0.00    +0.000 A 
ATOM     35  C   UNL     1       1.324  14.938  20.672  0.00  0.00    +0.000 C 
ATOM     36  N   UNL     1       1.451  13.477  20.785  0.00  0.00    +0.000 NA
ATOM     37  H   UNL     1       0.550  13.086  21.049  0.00  0.00    +0.000 HD
ENDBRANCH  26  27
ENDBRANCH   1  26
TORSDOF 9
ENDMDL
MODEL 8
REMARK VINA RESULT:      -7.3      8.114     11.311
REMARK  Name = 
REMARK  9 active torsions:
REMARK  status: ('A' for Active; 'I' for Inactive)
REMARK    1  A    between atoms: C_6  and  N_7
REMARK    2  A    between atoms: N_7  and  C_8
REMARK    3  A    between atoms: C_8  and  C_9
REMARK    4  A    between atoms: C_9  and  C_10
REMARK    5  A    between atoms: C_10  and  C_11
REMARK    6  A    between atoms: C_11  and  N_12
REMARK    7  A    between atoms: N_12  and  C_13
REMARK    8  A    between atoms: N_12  and  C_24
REMARK    9  A    between atoms: C_13  and  C_14
REMARK                            x       y       z     vdW  Elec       q    Type
REMARK                         _______ _______ _______ _____ _____    ______ ____
ROOT
ATOM      1  N   UNL     1      -1.097  10.881  19.738  0.00  0.00    +0.000 NA
ENDROOT
BRANCH   1   2
ATOM      2  C   UNL     1      -0.592  12.063  20.527  0.00  0.00    +0.000 C 
ATOM      3  C   UNL     1       0.320  13.049  19.755  0.00  0.00    +0.000 C 
ATOM      4  C   UNL     1      -0.432  14.263  19.231  0.00  0.00    +0.000 C 
ATOM      5  C   UNL     1      -1.032  15.043  20.393  0.00  0.00    +0.000 C 
ATOM      6  C   UNL     1      -1.747  14.174  21.391  0.00  0.00    +0.000 A 
ATOM      7  C   UNL     1      -2.487  14.786  22.409  0.00  0.00    +0.000 A 
ATOM      8  C   UNL     1      -3.068  14.016  23.406  0.00  0.00    +0.000 A 
ATOM      9  C   UNL     1      -2.909  12.645  23.345  0.00  0.00    +0.000 A 
ATOM     10  N   UNL     1      -2.199  12.017  22.385  0.00  0.00    +0.000 NA
ATOM     11  C   UNL     1      -1.613  12.780  21.422  0.00  0.00    +0.000 A 
ENDBRANCH   1   2
BRANCH   1  12
ATOM     12  C   UNL     1      -0.098   9.771  19.727  0.00  0.00    +0.000 C 
BRANCH  12  13
ATOM     13  C   UNL     1       0.110   9.095  21.108  0.00  0.00    +0.000 C 
BRANCH  13  14
ATOM     14  C   UNL     1       1.340   8.197  21.271  0.00  0.00    +0.000 C 
BRANCH  14  15
ATOM     15  C   UNL     1       2.038   7.812  19.961  0.00  0.00    +0.000 C 
BRANCH  15  16
ATOM     16  N   UNL     1       1.748   6.468  19.442  0.00  0.00    +0.000 NA
ATOM     17  H   UNL     1       0.831   6.187  19.787  0.00  0.00    +0.000 HD
BRANCH  16  23
ATOM     18  F   UNL     1       2.189   1.880  19.285  0.00  0.00    +0.000 F 
ATOM     19  C   UNL     1       1.314   2.899  19.082  0.00  0.00    +0.000 C 
ATOM     20  F   UNL     1       0.145   2.326  18.692  0.00  0.00    +0.000 F 
ATOM     21  C   UNL     1       1.099   3.625  20.399  0.00  0.00    +0.000 C 
ATOM     22  C   UNL     1       2.343   4.418  20.798  0.00  0.00    +0.000 C 
ATOM     23  C   UNL     1       2.753   5.429  19.710  0.00  0.00    +0.000 C 
ATOM     24  C   UNL     1       3.028   4.638  18.408  0.00  0.00    +0.000 C 
ATOM     25  C   UNL     1       1.838   3.782  17.960  0.00  0.00    +0.000 C 
ENDBRANCH  16  23
ENDBRANCH  15  16
ENDBRANCH  14  15
ENDBRANCH  13  14
ENDBRANCH  12  13
ENDBRANCH   1  12
BRANCH   1  26
ATOM     26  C   UNL     1      -1.548  11.287  18.385  0.00  0.00    +0.000 C 
BRANCH  26  27
ATOM     27  C   UNL     1      -2.109  10.223  17.358  0.00  0.00    +0.000 C 
ATOM     28  C   UNL     1      -3.399   9.488  17.789  0.00  0.00    +0.000 C 
ATOM     29  C   UNL     1      -4.582  10.413  17.765  0.00  0.00    +0.000 A 
ATOM     30  C   UNL     1      -5.650  10.273  18.665  0.00  0.00    +0.000 A 
ATOM     31  C   UNL     1      -6.684  11.211  18.677  0.00  0.00    +0.000 A 
ATOM     32  C   UNL     1      -6.670  12.275  17.780  0.00  0.00    +0.000 A 
ATOM     33  C   UNL     1      -5.648  12.373  16.830  0.00  0.00    +0.000 A 
ATOM     34  C   UNL     1      -4.606  11.435  16.810  0.00  0.00    +0.000 A 
ATOM     35  C   UNL     1      -3.563  11.463  15.719  0.00  0.00    +0.000 C 
ATOM     36  N   UNL     1      -2.269  10.828  16.009  0.00  0.00    +0.000 NA
ATOM     37  H   UNL     1      -1.525  11.500  15.837  0.00  0.00    +0.000 HD
ENDBRANCH  26  27
ENDBRANCH   1  26
TORSDOF 9
ENDMDL
MODEL 9
REMARK VINA RESULT:      -7.2      6.047      8.717
REMARK  Name = 
REMARK  9 active torsions:
REMARK  status: ('A' for Active; 'I' for Inactive)
REMARK    1  A    between atoms: C_6  and  N_7
REMARK    2  A    between atoms: N_7  and  C_8
REMARK    3  A    between atoms: C_8  and  C_9
REMARK    4  A    between atoms: C_9  and  C_10
REMARK    5  A    between atoms: C_10  and  C_11
REMARK    6  A    between atoms: C_11  and  N_12
REMARK    7  A    between atoms: N_12  and  C_13
REMARK    8  A    between atoms: N_12  and  C_24
REMARK    9  A    between atoms: C_13  and  C_14
REMARK                            x       y       z     vdW  Elec       q    Type
REMARK                         _______ _______ _______ _____ _____    ______ ____
ROOT
ATOM      1  N   UNL     1       0.840  10.218  18.734  0.00  0.00    +0.000 NA
ENDROOT
BRANCH   1   2
ATOM      2  C   UNL     1      -0.596  10.161  19.191  0.00  0.00    +0.000 C 
ATOM      3  C   UNL     1      -0.879  10.738  20.601  0.00  0.00    +0.000 C 
ATOM      4  C   UNL     1      -1.395  12.168  20.562  0.00  0.00    +0.000 C 
ATOM      5  C   UNL     1      -2.710  12.225  19.796  0.00  0.00    +0.000 C 
ATOM      6  C   UNL     1      -2.676  11.473  18.493  0.00  0.00    +0.000 A 
ATOM      7  C   UNL     1      -3.762  11.593  17.618  0.00  0.00    +0.000 A 
ATOM      8  C   UNL     1      -3.809  10.830  16.460  0.00  0.00    +0.000 A 
ATOM      9  C   UNL     1      -2.753   9.979  16.197  0.00  0.00    +0.000 A 
ATOM     10  N   UNL     1      -1.692   9.831  17.017  0.00  0.00    +0.000 NA
ATOM     11  C   UNL     1      -1.662  10.565  18.163  0.00  0.00    +0.000 A 
ENDBRANCH   1   2
BRANCH   1  12
ATOM     12  C   UNL     1       1.590   8.996  19.153  0.00  0.00    +0.000 C 
BRANCH  12  13
ATOM     13  C   UNL     1       2.030   8.090  17.973  0.00  0.00    +0.000 C 
BRANCH  13  14
ATOM     14  C   UNL     1       3.523   8.055  17.634  0.00  0.00    +0.000 C 
BRANCH  14  15
ATOM     15  C   UNL     1       4.107   6.652  17.424  0.00  0.00    +0.000 C 
BRANCH  15  16
ATOM     16  N   UNL     1       3.154   5.536  17.492  0.00  0.00    +0.000 NA
ATOM     17  H   UNL     1       2.325   5.859  17.990  0.00  0.00    +0.000 HD
BRANCH  16  23
ATOM     18  F   UNL     1       1.878   2.289  20.509  0.00  0.00    +0.000 F 
ATOM     19  C   UNL     1       1.499   3.467  19.950  0.00  0.00    +0.000 C 
ATOM     20  F   UNL     1       0.299   3.784  20.504  0.00  0.00    +0.000 F 
ATOM     21  C   UNL     1       2.517   4.533  20.322  0.00  0.00    +0.000 C 
ATOM     22  C   UNL     1       3.840   4.305  19.592  0.00  0.00    +0.000 C 
ATOM     23  C   UNL     1       3.655   4.277  18.063  0.00  0.00    +0.000 C 
ATOM     24  C   UNL     1       2.666   3.135  17.726  0.00  0.00    +0.000 C 
ATOM     25  C   UNL     1       1.323   3.267  18.453  0.00  0.00    +0.000 C 
ENDBRANCH  16  23
ENDBRANCH  15  16
ENDBRANCH  14  15
ENDBRANCH  13  14
ENDBRANCH  12  13
ENDBRANCH   1  12
BRANCH   1  26
ATOM     26  C   UNL     1       1.490  11.484  19.150  0.00  0.00    +0.000 C 
BRANCH  26  27
ATOM     27  C   UNL     1       1.500  12.747  18.199  0.00  0.00    +0.000 C 
ATOM     28  C   UNL     1       0.711  13.976  18.704  0.00  0.00    +0.000 C 
ATOM     29  C   UNL     1       1.401  14.618  19.873  0.00  0.00    +0.000 A 
ATOM     30  C   UNL     1       0.683  15.256  20.897  0.00  0.00    +0.000 A 
ATOM     31  C   UNL     1       1.353  15.754  22.017  0.00  0.00    +0.000 A 
ATOM     32  C   UNL     1       2.737  15.639  22.109  0.00  0.00    +0.000 A 
ATOM     33  C   UNL     1       3.462  15.074  21.055  0.00  0.00    +0.000 A 
ATOM     34  C   UNL     1       2.797  14.573  19.926  0.00  0.00    +0.000 A 
ATOM     35  C   UNL     1       3.575  14.069  18.734  0.00  0.00    +0.000 C 
ATOM     36  N   UNL     1       2.893  13.123  17.838  0.00  0.00    +0.000 NA
ATOM     37  H   UNL     1       3.466  12.288  17.741  0.00  0.00    +0.000 HD
ENDBRANCH  26  27
ENDBRANCH   1  26
TORSDOF 9
ENDMDL
