MODEL 1
REMARK VINA RESULT:      -7.8      0.000      0.000
REMARK  Name = 
REMARK  4 active torsions:
REMARK  status: ('A' for Active; 'I' for Inactive)
REMARK    1  A    between atoms: C_2  and  C_3
REMARK    2  A    between atoms: C_3  and  O_4
REMARK    3  A    between atoms: O_4  and  C_5
REMARK    4  A    between atoms: N_12  and  C_13
REMARK                            x       y       z     vdW  Elec       q    Type
REMARK                         _______ _______ _______ _____ _____    ______ ____
ROOT
ATOM      1  O   UNL     1       8.130   6.697  18.716  0.00  0.00    +0.000 OA
ATOM      2  C   UNL     1       7.710   7.514  17.903  0.00  0.00    +0.000 C 
ATOM      3  N   UNL     1       6.678   7.305  17.000  0.00  0.00    +0.000 N 
ATOM      4  H   UNL     1       6.625   7.940  16.214  0.00  0.00    +0.000 HD
ENDROOT
BRANCH   3   5
ATOM      5  C   UNL     1       5.822   6.180  16.971  0.00  0.00    +0.000 A 
ATOM      6  C   UNL     1       6.186   4.963  16.380  0.00  0.00    +0.000 A 
ATOM      7  C   UNL     1       5.309   3.873  16.326  0.00  0.00    +0.000 A 
ATOM      8  C   UNL     1       4.046   4.048  16.888  0.00  0.00    +0.000 A 
ATOM      9  N   UNL     1       2.959   3.218  16.965  0.00  0.00    +0.000 N 
ATOM     10  N   UNL     1       1.907   3.752  17.611  0.00  0.00    +0.000 NA
ATOM     11  C   UNL     1       2.336   4.970  17.946  0.00  0.00    +0.000 A 
ATOM     12  C   UNL     1       3.661   5.223  17.520  0.00  0.00    +0.000 A 
ATOM     13  C   UNL     1       4.564   6.302  17.584  0.00  0.00    +0.000 A 
ATOM     14  H   UNL     1       2.870   2.279  16.591  0.00  0.00    +0.000 HD
ENDBRANCH   3   5
BRANCH   2  15
ATOM     15  C   UNL     1       8.302   8.924  17.854  0.00  0.00    +0.000 C 
BRANCH  15  16
ATOM     16  O   UNL     1       8.696   9.399  19.135  0.00  0.00    +0.000 OA
BRANCH  16  17
ATOM     17  C   UNL     1       9.516  10.500  19.119  0.00  0.00    +0.000 A 
ATOM     18  C   UNL     1       9.913  11.194  17.973  0.00  0.00    +0.000 A 
ATOM     19  C   UNL     1      10.779  12.288  18.067  0.00  0.00    +0.000 A 
ATOM     20  C   UNL     1      11.242  12.700  19.312  0.00  0.00    +0.000 A 
ATOM     21 CL   UNL     1      12.330  14.025  19.420  0.00  0.00    +0.000 Cl
ATOM     22  C   UNL     1      10.824  12.042  20.467  0.00  0.00    +0.000 A 
ATOM     23  C   UNL     1       9.954  10.949  20.369  0.00  0.00    +0.000 A 
ENDBRANCH  16  17
ENDBRANCH  15  16
ENDBRANCH   2  15
TORSDOF 4
ENDMDL
MODEL 2
REMARK VINA RESULT:      -7.8      5.861      7.326
REMARK  Name = 
REMARK  4 active torsions:
REMARK  status: ('A' for Active; 'I' for Inactive)
REMARK    1  A    between atoms: C_2  and  C_3
REMARK    2  A    between atoms: C_3  and  O_4
REMARK    3  A    between atoms: O_4  and  C_5
REMARK    4  A    between atoms: N_12  and  C_13
REMARK                            x       y       z     vdW  Elec       q    Type
REMARK                         _______ _______ _______ _____ _____    ______ ____
ROOT
ATOM      1  O   UNL     1       6.056   5.905  18.445  0.00  0.00    +0.000 OA
ATOM      2  C   UNL     1       6.282   4.907  17.769  0.00  0.00    +0.000 C 
ATOM      3  N   UNL     1       5.502   3.762  17.725  0.00  0.00    +0.000 N 
ATOM      4  H   UNL     1       5.940   2.924  17.361  0.00  0.00    +0.000 HD
ENDROOT
BRANCH   3   5
ATOM      5  C   UNL     1       4.227   3.608  18.319  0.00  0.00    +0.000 A 
ATOM      6  C   UNL     1       3.035   3.890  17.640  0.00  0.00    +0.000 A 
ATOM      7  C   UNL     1       1.783   3.770  18.258  0.00  0.00    +0.000 A 
ATOM      8  C   UNL     1       1.771   3.354  19.589  0.00  0.00    +0.000 A 
ATOM      9  N   UNL     1       0.747   3.180  20.480  0.00  0.00    +0.000 N 
ATOM     10  N   UNL     1       1.141   2.745  21.691  0.00  0.00    +0.000 NA
ATOM     11  C   UNL     1       2.467   2.653  21.568  0.00  0.00    +0.000 A 
ATOM     12  C   UNL     1       2.928   3.025  20.283  0.00  0.00    +0.000 A 
ATOM     13  C   UNL     1       4.176   3.131  19.639  0.00  0.00    +0.000 A 
ATOM     14  H   UNL     1      -0.242   3.345  20.326  0.00  0.00    +0.000 HD
ENDBRANCH   3   5
BRANCH   2  15
ATOM     15  C   UNL     1       7.493   4.870  16.834  0.00  0.00    +0.000 C 
BRANCH  15  16
ATOM     16  O   UNL     1       7.287   5.613  15.640  0.00  0.00    +0.000 OA
BRANCH  16  17
ATOM     17  C   UNL     1       6.731   4.905  14.604  0.00  0.00    +0.000 A 
ATOM     18  C   UNL     1       5.443   4.363  14.596  0.00  0.00    +0.000 A 
ATOM     19  C   UNL     1       4.987   3.629  13.496  0.00  0.00    +0.000 A 
ATOM     20  C   UNL     1       5.813   3.446  12.394  0.00  0.00    +0.000 A 
ATOM     21 CL   UNL     1       5.259   2.518  11.059  0.00  0.00    +0.000 Cl
ATOM     22  C   UNL     1       7.085   4.015  12.370  0.00  0.00    +0.000 A 
ATOM     23  C   UNL     1       7.538   4.751  13.471  0.00  0.00    +0.000 A 
ENDBRANCH  16  17
ENDBRANCH  15  16
ENDBRANCH   2  15
TORSDOF 4
ENDMDL
MODEL 3
REMARK VINA RESULT:      -7.7      0.677      1.249
REMARK  Name = 
REMARK  4 active torsions:
REMARK  status: ('A' for Active; 'I' for Inactive)
REMARK    1  A    between atoms: C_2  and  C_3
REMARK    2  A    between atoms: C_3  and  O_4
REMARK    3  A    between atoms: O_4  and  C_5
REMARK    4  A    between atoms: N_12  and  C_13
REMARK                            x       y       z     vdW  Elec       q    Type
REMARK                         _______ _______ _______ _____ _____    ______ ____
ROOT
ATOM      1  O   UNL     1       8.016   6.595  18.675  0.00  0.00    +0.000 OA
ATOM      2  C   UNL     1       7.568   7.445  17.913  0.00  0.00    +0.000 C 
ATOM      3  N   UNL     1       6.492   7.280  17.054  0.00  0.00    +0.000 N 
ATOM      4  H   UNL     1       6.409   7.942  16.293  0.00  0.00    +0.000 HD
ENDROOT
BRANCH   3   5
ATOM      5  C   UNL     1       5.620   6.165  17.027  0.00  0.00    +0.000 A 
ATOM      6  C   UNL     1       5.966   4.946  16.432  0.00  0.00    +0.000 A 
ATOM      7  C   UNL     1       5.074   3.867  16.380  0.00  0.00    +0.000 A 
ATOM      8  C   UNL     1       3.816   4.057  16.948  0.00  0.00    +0.000 A 
ATOM      9  N   UNL     1       2.719   3.242  17.028  0.00  0.00    +0.000 N 
ATOM     10  N   UNL     1       1.676   3.788  17.680  0.00  0.00    +0.000 NA
ATOM     11  C   UNL     1       2.123   5.000  18.015  0.00  0.00    +0.000 A 
ATOM     12  C   UNL     1       3.449   5.236  17.583  0.00  0.00    +0.000 A 
ATOM     13  C   UNL     1       4.367   6.303  17.646  0.00  0.00    +0.000 A 
ATOM     14  H   UNL     1       2.616   2.305  16.653  0.00  0.00    +0.000 HD
ENDBRANCH   3   5
BRANCH   2  15
ATOM     15  C   UNL     1       8.175   8.849  17.885  0.00  0.00    +0.000 C 
BRANCH  15  16
ATOM     16  O   UNL     1       9.015   9.106  19.003  0.00  0.00    +0.000 OA
BRANCH  16  17
ATOM     17  C   UNL     1       9.345  10.426  19.189  0.00  0.00    +0.000 A 
ATOM     18  C   UNL     1       9.444  11.066  20.428  0.00  0.00    +0.000 A 
ATOM     19  C   UNL     1       9.757  12.427  20.502  0.00  0.00    +0.000 A 
ATOM     20  C   UNL     1       9.987  13.149  19.338  0.00  0.00    +0.000 A 
ATOM     21 CL   UNL     1      10.341  14.828  19.433  0.00  0.00    +0.000 Cl
ATOM     22  C   UNL     1       9.932  12.516  18.097  0.00  0.00    +0.000 A 
ATOM     23  C   UNL     1       9.620  11.153  18.026  0.00  0.00    +0.000 A 
ENDBRANCH  16  17
ENDBRANCH  15  16
ENDBRANCH   2  15
TORSDOF 4
ENDMDL
MODEL 4
REMARK VINA RESULT:      -7.7      5.796      7.207
REMARK  Name = 
REMARK  4 active torsions:
REMARK  status: ('A' for Active; 'I' for Inactive)
REMARK    1  A    between atoms: C_2  and  C_3
REMARK    2  A    between atoms: C_3  and  O_4
REMARK    3  A    between atoms: O_4  and  C_5
REMARK    4  A    between atoms: N_12  and  C_13
REMARK                            x       y       z     vdW  Elec       q    Type
REMARK                         _______ _______ _______ _____ _____    ______ ____
ROOT
ATOM      1  O   UNL     1       6.051   5.920  18.660  0.00  0.00    +0.000 OA
ATOM      2  C   UNL     1       6.260   4.945  17.945  0.00  0.00    +0.000 C 
ATOM      3  N   UNL     1       5.465   3.812  17.865  0.00  0.00    +0.000 N 
ATOM      4  H   UNL     1       5.890   2.983  17.467  0.00  0.00    +0.000 HD
ENDROOT
BRANCH   3   5
ATOM      5  C   UNL     1       4.192   3.652  18.461  0.00  0.00    +0.000 A 
ATOM      6  C   UNL     1       3.001   4.006  17.814  0.00  0.00    +0.000 A 
ATOM      7  C   UNL     1       1.753   3.878  18.436  0.00  0.00    +0.000 A 
ATOM      8  C   UNL     1       1.742   3.379  19.738  0.00  0.00    +0.000 A 
ATOM      9  N   UNL     1       0.721   3.174  20.627  0.00  0.00    +0.000 N 
ATOM     10  N   UNL     1       1.116   2.653  21.803  0.00  0.00    +0.000 NA
ATOM     11  C   UNL     1       2.438   2.537  21.661  0.00  0.00    +0.000 A 
ATOM     12  C   UNL     1       2.896   2.978  20.398  0.00  0.00    +0.000 A 
ATOM     13  C   UNL     1       4.141   3.094  19.749  0.00  0.00    +0.000 A 
ATOM     14  H   UNL     1      -0.264   3.373  20.494  0.00  0.00    +0.000 HD
ENDBRANCH   3   5
BRANCH   2  15
ATOM     15  C   UNL     1       7.465   4.927  17.002  0.00  0.00    +0.000 C 
BRANCH  15  16
ATOM     16  O   UNL     1       7.263   5.721  15.840  0.00  0.00    +0.000 OA
BRANCH  16  17
ATOM     17  C   UNL     1       6.837   5.031  14.732  0.00  0.00    +0.000 A 
ATOM     18  C   UNL     1       7.555   4.893  13.541  0.00  0.00    +0.000 A 
ATOM     19  C   UNL     1       7.012   4.192  12.460  0.00  0.00    +0.000 A 
ATOM     20  C   UNL     1       5.752   3.615  12.571  0.00  0.00    +0.000 A 
ATOM     21 CL   UNL     1       5.076   2.782  11.228  0.00  0.00    +0.000 Cl
ATOM     22  C   UNL     1       5.041   3.710  13.765  0.00  0.00    +0.000 A 
ATOM     23  C   UNL     1       5.589   4.410  14.846  0.00  0.00    +0.000 A 
ENDBRANCH  16  17
ENDBRANCH  15  16
ENDBRANCH   2  15
TORSDOF 4
ENDMDL
MODEL 5
REMARK VINA RESULT:      -7.4      5.138      6.793
REMARK  Name = 
REMARK  4 active torsions:
REMARK  status: ('A' for Active; 'I' for Inactive)
REMARK    1  A    between atoms: C_2  and  C_3
REMARK    2  A    between atoms: C_3  and  O_4
REMARK    3  A    between atoms: O_4  and  C_5
REMARK    4  A    between atoms: N_12  and  C_13
REMARK                            x       y       z     vdW  Elec       q    Type
REMARK                         _______ _______ _______ _____ _____    ______ ____
ROOT
ATOM      1  O   UNL     1       4.562   6.926  16.677  0.00  0.00    +0.000 OA
ATOM      2  C   UNL     1       5.411   6.490  17.447  0.00  0.00    +0.000 C 
ATOM      3  N   UNL     1       5.164   5.759  18.600  0.00  0.00    +0.000 N 
ATOM      4  H   UNL     1       5.912   5.711  19.280  0.00  0.00    +0.000 HD
ENDROOT
BRANCH   3   5
ATOM      5  C   UNL     1       3.907   5.245  18.998  0.00  0.00    +0.000 A 
ATOM      6  C   UNL     1       3.117   5.851  19.983  0.00  0.00    +0.000 A 
ATOM      7  C   UNL     1       1.894   5.305  20.392  0.00  0.00    +0.000 A 
ATOM      8  C   UNL     1       1.490   4.122  19.774  0.00  0.00    +0.000 A 
ATOM      9  N   UNL     1       0.396   3.322  19.964  0.00  0.00    +0.000 N 
ATOM     10  N   UNL     1       0.350   2.253  19.148  0.00  0.00    +0.000 NA
ATOM     11  C   UNL     1       1.463   2.372  18.421  0.00  0.00    +0.000 A 
ATOM     12  C   UNL     1       2.224   3.514  18.765  0.00  0.00    +0.000 A 
ATOM     13  C   UNL     1       3.442   4.089  18.351  0.00  0.00    +0.000 A 
ATOM     14  H   UNL     1      -0.352   3.446  20.639  0.00  0.00    +0.000 HD
ENDBRANCH   3   5
BRANCH   2  15
ATOM     15  C   UNL     1       6.898   6.698  17.152  0.00  0.00    +0.000 C 
BRANCH  15  16
ATOM     16  O   UNL     1       7.554   5.495  16.770  0.00  0.00    +0.000 OA
BRANCH  16  17
ATOM     17  C   UNL     1       7.132   4.956  15.581  0.00  0.00    +0.000 A 
ATOM     18  C   UNL     1       7.606   5.317  14.316  0.00  0.00    +0.000 A 
ATOM     19  C   UNL     1       7.082   4.725  13.164  0.00  0.00    +0.000 A 
ATOM     20  C   UNL     1       6.090   3.757  13.272  0.00  0.00    +0.000 A 
ATOM     21 CL   UNL     1       5.428   3.054  11.850  0.00  0.00    +0.000 Cl
ATOM     22  C   UNL     1       5.635   3.357  14.527  0.00  0.00    +0.000 A 
ATOM     23  C   UNL     1       6.163   3.951  15.679  0.00  0.00    +0.000 A 
ENDBRANCH  16  17
ENDBRANCH  15  16
ENDBRANCH   2  15
TORSDOF 4
ENDMDL
MODEL 6
REMARK VINA RESULT:      -7.3      1.431      1.849
REMARK  Name = 
REMARK  4 active torsions:
REMARK  status: ('A' for Active; 'I' for Inactive)
REMARK    1  A    between atoms: C_2  and  C_3
REMARK    2  A    between atoms: C_3  and  O_4
REMARK    3  A    between atoms: O_4  and  C_5
REMARK    4  A    between atoms: N_12  and  C_13
REMARK                            x       y       z     vdW  Elec       q    Type
REMARK                         _______ _______ _______ _____ _____    ______ ____
ROOT
ATOM      1  O   UNL     1       7.970   6.948  16.490  0.00  0.00    +0.000 OA
ATOM      2  C   UNL     1       7.260   7.613  17.236  0.00  0.00    +0.000 C 
ATOM      3  N   UNL     1       6.041   7.215  17.766  0.00  0.00    +0.000 N 
ATOM      4  H   UNL     1       5.437   7.946  18.121  0.00  0.00    +0.000 HD
ENDROOT
BRANCH   3   5
ATOM      5  C   UNL     1       5.487   5.917  17.677  0.00  0.00    +0.000 A 
ATOM      6  C   UNL     1       5.046   5.360  16.470  0.00  0.00    +0.000 A 
ATOM      7  C   UNL     1       4.463   4.088  16.409  0.00  0.00    +0.000 A 
ATOM      8  C   UNL     1       4.336   3.391  17.609  0.00  0.00    +0.000 A 
ATOM      9  N   UNL     1       3.786   2.172  17.901  0.00  0.00    +0.000 N 
ATOM     10  N   UNL     1       3.870   1.830  19.200  0.00  0.00    +0.000 NA
ATOM     11  C   UNL     1       4.485   2.877  19.755  0.00  0.00    +0.000 A 
ATOM     12  C   UNL     1       4.798   3.890  18.820  0.00  0.00    +0.000 A 
ATOM     13  C   UNL     1       5.402   5.162  18.859  0.00  0.00    +0.000 A 
ATOM     14  H   UNL     1       3.332   1.528  17.262  0.00  0.00    +0.000 HD
ENDBRANCH   3   5
BRANCH   2  15
ATOM     15  C   UNL     1       7.714   8.999  17.699  0.00  0.00    +0.000 C 
BRANCH  15  16
ATOM     16  O   UNL     1       8.647   8.940  18.771  0.00  0.00    +0.000 OA
BRANCH  16  17
ATOM     17  C   UNL     1       9.247  10.135  19.083  0.00  0.00    +0.000 A 
ATOM     18  C   UNL     1       9.504  10.595  20.378  0.00  0.00    +0.000 A 
ATOM     19  C   UNL     1      10.094  11.846  20.585  0.00  0.00    +0.000 A 
ATOM     20  C   UNL     1      10.443  12.636  19.496  0.00  0.00    +0.000 A 
ATOM     21 CL   UNL     1      11.139  14.185  19.756  0.00  0.00    +0.000 Cl
ATOM     22  C   UNL     1      10.230  12.173  18.198  0.00  0.00    +0.000 A 
ATOM     23  C   UNL     1       9.641  10.920  17.995  0.00  0.00    +0.000 A 
ENDBRANCH  16  17
ENDBRANCH  15  16
ENDBRANCH   2  15
TORSDOF 4
ENDMDL
MODEL 7
REMARK VINA RESULT:      -7.2      5.843      7.240
REMARK  Name = 
REMARK  4 active torsions:
REMARK  status: ('A' for Active; 'I' for Inactive)
REMARK    1  A    between atoms: C_2  and  C_3
REMARK    2  A    between atoms: C_3  and  O_4
REMARK    3  A    between atoms: O_4  and  C_5
REMARK    4  A    between atoms: N_12  and  C_13
REMARK                            x       y       z     vdW  Elec       q    Type
REMARK                         _______ _______ _______ _____ _____    ______ ____
ROOT
ATOM      1  O   UNL     1       5.801   6.443  17.479  0.00  0.00    +0.000 OA
ATOM      2  C   UNL     1       6.245   5.300  17.451  0.00  0.00    +0.000 C 
ATOM      3  N   UNL     1       5.669   4.190  18.051  0.00  0.00    +0.000 N 
ATOM      4  H   UNL     1       6.267   3.386  18.193  0.00  0.00    +0.000 HD
ENDROOT
BRANCH   3   5
ATOM      5  C   UNL     1       4.390   4.148  18.654  0.00  0.00    +0.000 A 
ATOM      6  C   UNL     1       4.016   4.999  19.701  0.00  0.00    +0.000 A 
ATOM      7  C   UNL     1       2.759   4.915  20.313  0.00  0.00    +0.000 A 
ATOM      8  C   UNL     1       1.886   3.940  19.834  0.00  0.00    +0.000 A 
ATOM      9  N   UNL     1       0.628   3.571  20.227  0.00  0.00    +0.000 N 
ATOM     10  N   UNL     1       0.094   2.576  19.494  0.00  0.00    +0.000 NA
ATOM     11  C   UNL     1       1.054   2.295  18.611  0.00  0.00    +0.000 A 
ATOM     12  C   UNL     1       2.203   3.105  18.771  0.00  0.00    +0.000 A 
ATOM     13  C   UNL     1       3.464   3.219  18.153  0.00  0.00    +0.000 A 
ATOM     14  H   UNL     1       0.081   3.953  20.992  0.00  0.00    +0.000 HD
ENDBRANCH   3   5
BRANCH   2  15
ATOM     15  C   UNL     1       7.521   4.990  16.666  0.00  0.00    +0.000 C 
BRANCH  15  16
ATOM     16  O   UNL     1       7.559   5.637  15.401  0.00  0.00    +0.000 OA
BRANCH  16  17
ATOM     17  C   UNL     1       7.001   4.925  14.368  0.00  0.00    +0.000 A 
ATOM     18  C   UNL     1       7.590   4.722  13.117  0.00  0.00    +0.000 A 
ATOM     19  C   UNL     1       6.917   4.005  12.122  0.00  0.00    +0.000 A 
ATOM     20  C   UNL     1       5.658   3.477  12.380  0.00  0.00    +0.000 A 
ATOM     21 CL   UNL     1       4.823   2.623  11.144  0.00  0.00    +0.000 Cl
ATOM     22  C   UNL     1       5.075   3.636  13.636  0.00  0.00    +0.000 A 
ATOM     23  C   UNL     1       5.752   4.353  14.630  0.00  0.00    +0.000 A 
ENDBRANCH  16  17
ENDBRANCH  15  16
ENDBRANCH   2  15
TORSDOF 4
ENDMDL
MODEL 8
REMARK VINA RESULT:      -7.2      6.500      8.485
REMARK  Name = 
REMARK  4 active torsions:
REMARK  status: ('A' for Active; 'I' for Inactive)
REMARK    1  A    between atoms: C_2  and  C_3
REMARK    2  A    between atoms: C_3  and  O_4
REMARK    3  A    between atoms: O_4  and  C_5
REMARK    4  A    between atoms: N_12  and  C_13
REMARK                            x       y       z     vdW  Elec       q    Type
REMARK                         _______ _______ _______ _____ _____    ______ ____
ROOT
ATOM      1  O   UNL     1       1.891   7.996  19.882  0.00  0.00    +0.000 OA
ATOM      2  C   UNL     1       2.051   8.245  18.692  0.00  0.00    +0.000 C 
ATOM      3  N   UNL     1       2.759   7.467  17.787  0.00  0.00    +0.000 N 
ATOM      4  H   UNL     1       3.052   7.916  16.929  0.00  0.00    +0.000 HD
ENDROOT
BRANCH   3   5
ATOM      5  C   UNL     1       3.275   6.173  18.037  0.00  0.00    +0.000 A 
ATOM      6  C   UNL     1       4.605   5.945  18.411  0.00  0.00    +0.000 A 
ATOM      7  C   UNL     1       5.107   4.653  18.615  0.00  0.00    +0.000 A 
ATOM      8  C   UNL     1       4.222   3.593  18.429  0.00  0.00    +0.000 A 
ATOM      9  N   UNL     1       4.395   2.237  18.503  0.00  0.00    +0.000 N 
ATOM     10  N   UNL     1       3.276   1.528  18.268  0.00  0.00    +0.000 NA
ATOM     11  C   UNL     1       2.361   2.468  18.022  0.00  0.00    +0.000 A 
ATOM     12  C   UNL     1       2.886   3.779  18.099  0.00  0.00    +0.000 A 
ATOM     13  C   UNL     1       2.392   5.087  17.920  0.00  0.00    +0.000 A 
ATOM     14  H   UNL     1       5.253   1.733  18.704  0.00  0.00    +0.000 HD
ENDBRANCH   3   5
BRANCH   2  15
ATOM     15  C   UNL     1       1.406   9.485  18.071  0.00  0.00    +0.000 C 
BRANCH  15  16
ATOM     16  O   UNL     1       0.557  10.175  18.979  0.00  0.00    +0.000 OA
BRANCH  16  17
ATOM     17  C   UNL     1      -0.701  10.449  18.504  0.00  0.00    +0.000 A 
ATOM     18  C   UNL     1      -1.300   9.830  17.403  0.00  0.00    +0.000 A 
ATOM     19  C   UNL     1      -2.579  10.208  16.984  0.00  0.00    +0.000 A 
ATOM     20  C   UNL     1      -3.270  11.198  17.673  0.00  0.00    +0.000 A 
ATOM     21 CL   UNL     1      -4.829  11.681  17.135  0.00  0.00    +0.000 Cl
ATOM     22  C   UNL     1      -2.703  11.796  18.797  0.00  0.00    +0.000 A 
ATOM     23  C   UNL     1      -1.423  11.413  19.215  0.00  0.00    +0.000 A 
ENDBRANCH  16  17
ENDBRANCH  15  16
ENDBRANCH   2  15
TORSDOF 4
ENDMDL
MODEL 9
REMARK VINA RESULT:      -7.1      6.105      8.442
REMARK  Name = 
REMARK  4 active torsions:
REMARK  status: ('A' for Active; 'I' for Inactive)
REMARK    1  A    between atoms: C_2  and  C_3
REMARK    2  A    between atoms: C_3  and  O_4
REMARK    3  A    between atoms: O_4  and  C_5
REMARK    4  A    between atoms: N_12  and  C_13
REMARK                            x       y       z     vdW  Elec       q    Type
REMARK                         _______ _______ _______ _____ _____    ______ ____
ROOT
ATOM      1  O   UNL     1       2.390   8.804  17.256  0.00  0.00    +0.000 OA
ATOM      2  C   UNL     1       2.115   8.305  18.342  0.00  0.00    +0.000 C 
ATOM      3  N   UNL     1       2.471   7.033  18.765  0.00  0.00    +0.000 N 
ATOM      4  H   UNL     1       1.951   6.648  19.543  0.00  0.00    +0.000 HD
ENDROOT
BRANCH   3   5
ATOM      5  C   UNL     1       3.353   6.156  18.091  0.00  0.00    +0.000 A 
ATOM      6  C   UNL     1       2.990   4.857  17.713  0.00  0.00    +0.000 A 
ATOM      7  C   UNL     1       3.890   3.988  17.083  0.00  0.00    +0.000 A 
ATOM      8  C   UNL     1       5.175   4.473  16.843  0.00  0.00    +0.000 A 
ATOM      9  N   UNL     1       6.284   3.885  16.297  0.00  0.00    +0.000 N 
ATOM     10  N   UNL     1       7.354   4.698  16.219  0.00  0.00    +0.000 NA
ATOM     11  C   UNL     1       6.911   5.841  16.747  0.00  0.00    +0.000 A 
ATOM     12  C   UNL     1       5.561   5.768  17.163  0.00  0.00    +0.000 A 
ATOM     13  C   UNL     1       4.636   6.635  17.778  0.00  0.00    +0.000 A 
ATOM     14  H   UNL     1       6.378   2.931  15.964  0.00  0.00    +0.000 HD
ENDBRANCH   3   5
BRANCH   2  15
ATOM     15  C   UNL     1       1.348   9.115  19.389  0.00  0.00    +0.000 C 
BRANCH  15  16
ATOM     16  O   UNL     1       1.005  10.417  18.932  0.00  0.00    +0.000 OA
BRANCH  16  17
ATOM     17  C   UNL     1      -0.320  10.592  18.619  0.00  0.00    +0.000 A 
ATOM     18  C   UNL     1      -1.020   9.877  17.643  0.00  0.00    +0.000 A 
ATOM     19  C   UNL     1      -2.365  10.158  17.382  0.00  0.00    +0.000 A 
ATOM     20  C   UNL     1      -3.019  11.146  18.108  0.00  0.00    +0.000 A 
ATOM     21 CL   UNL     1      -4.663  11.509  17.763  0.00  0.00    +0.000 Cl
ATOM     22  C   UNL     1      -2.346  11.840  19.112  0.00  0.00    +0.000 A 
ATOM     23  C   UNL     1      -1.001  11.555  19.372  0.00  0.00    +0.000 A 
ENDBRANCH  16  17
ENDBRANCH  15  16
ENDBRANCH   2  15
TORSDOF 4
ENDMDL
