MODEL 1
REMARK VINA RESULT:      -5.0      0.000      0.000
REMARK  Name = 
REMARK  5 active torsions:
REMARK  status: ('A' for Active; 'I' for Inactive)
REMARK    1  A    between atoms: C_2  and  O_3
REMARK    2  A    between atoms: C_2  and  C_4
REMARK    3  A    between atoms: C_4  and  C_5
REMARK    4  A    between atoms: C_5  and  C_6
REMARK    5  A    between atoms: C_6  and  C_7
REMARK                            x       y       z     vdW  Elec       q    Type
REMARK                         _______ _______ _______ _____ _____    ______ ____
ROOT
ATOM      1  C   UNL     1       2.024   3.801  18.012  0.00  0.00    +0.000 C 
ENDROOT
BRANCH   1   2
ATOM      2  C   UNL     1       3.449   4.028  18.410  0.00  0.00    +0.000 A 
ATOM      3  C   UNL     1       4.403   3.058  18.620  0.00  0.00    +0.000 A 
ATOM      4  N   UNL     1       5.550   3.675  18.944  0.00  0.00    +0.000 N 
ATOM      5  C   UNL     1       5.278   4.993  18.928  0.00  0.00    +0.000 A 
ATOM      6  N   UNL     1       3.995   5.246  18.604  0.00  0.00    +0.000 NA
ATOM      7  H   UNL     1       6.466   3.224  19.161  0.00  0.00    +0.000 HD
ENDBRANCH   1   2
BRANCH   1   8
ATOM      8  C   UNL     1       1.353   2.852  19.009  0.00  0.00    +0.000 C 
BRANCH   8   9
ATOM      9  C   UNL     1       0.819   3.614  20.225  0.00  0.00    +0.000 C 
BRANCH   9  11
ATOM     10  O   UNL     1       2.158   3.006  22.055  0.00  0.00    +0.000 OA
ATOM     11  C   UNL     1       1.866   3.901  21.280  0.00  0.00    +0.000 C 
BRANCH  11  12
ATOM     12  O   UNL     1       2.491   5.095  21.397  0.00  0.00    +0.000 OA
ATOM     13  H   UNL     1       3.324   5.227  21.869  0.00  0.00    +0.000 HD
ENDBRANCH  11  12
ENDBRANCH   9  11
ENDBRANCH   8   9
ENDBRANCH   1   8
TORSDOF 5
ENDMDL
MODEL 2
REMARK VINA RESULT:      -5.0      3.317      4.591
REMARK  Name = 
REMARK  5 active torsions:
REMARK  status: ('A' for Active; 'I' for Inactive)
REMARK    1  A    between atoms: C_2  and  O_3
REMARK    2  A    between atoms: C_2  and  C_4
REMARK    3  A    between atoms: C_4  and  C_5
REMARK    4  A    between atoms: C_5  and  C_6
REMARK    5  A    between atoms: C_6  and  C_7
REMARK                            x       y       z     vdW  Elec       q    Type
REMARK                         _______ _______ _______ _____ _____    ______ ____
ROOT
ATOM      1  C   UNL     1       3.317   4.634  17.451  0.00  0.00    +0.000 C 
ENDROOT
BRANCH   1   2
ATOM      2  C   UNL     1       3.682   3.423  18.252  0.00  0.00    +0.000 A 
ATOM      3  C   UNL     1       3.507   2.111  17.874  0.00  0.00    +0.000 A 
ATOM      4  N   UNL     1       3.977   1.334  18.862  0.00  0.00    +0.000 N 
ATOM      5  C   UNL     1       4.421   2.176  19.815  0.00  0.00    +0.000 A 
ATOM      6  N   UNL     1       4.254   3.468  19.472  0.00  0.00    +0.000 NA
ATOM      7  H   UNL     1       3.996   0.291  18.887  0.00  0.00    +0.000 HD
ENDBRANCH   1   2
BRANCH   1   8
ATOM      8  C   UNL     1       4.547   5.529  17.278  0.00  0.00    +0.000 C 
BRANCH   8   9
ATOM      9  C   UNL     1       5.546   4.912  16.295  0.00  0.00    +0.000 C 
BRANCH   9  11
ATOM     10  O   UNL     1       7.867   4.574  16.206  0.00  0.00    +0.000 OA
ATOM     11  C   UNL     1       6.877   4.549  16.917  0.00  0.00    +0.000 C 
BRANCH  11  12
ATOM     12  O   UNL     1       7.017   4.206  18.217  0.00  0.00    +0.000 OA
ATOM     13  H   UNL     1       6.643   4.707  18.954  0.00  0.00    +0.000 HD
ENDBRANCH  11  12
ENDBRANCH   9  11
ENDBRANCH   8   9
ENDBRANCH   1   8
TORSDOF 5
ENDMDL
MODEL 3
REMARK VINA RESULT:      -4.9      3.328      4.767
REMARK  Name = 
REMARK  5 active torsions:
REMARK  status: ('A' for Active; 'I' for Inactive)
REMARK    1  A    between atoms: C_2  and  O_3
REMARK    2  A    between atoms: C_2  and  C_4
REMARK    3  A    between atoms: C_4  and  C_5
REMARK    4  A    between atoms: C_5  and  C_6
REMARK    5  A    between atoms: C_6  and  C_7
REMARK                            x       y       z     vdW  Elec       q    Type
REMARK                         _______ _______ _______ _____ _____    ______ ____
ROOT
ATOM      1  C   UNL     1       3.837   5.297  17.927  0.00  0.00    +0.000 C 
ENDROOT
BRANCH   1   2
ATOM      2  C   UNL     1       3.487   3.846  18.046  0.00  0.00    +0.000 A 
ATOM      3  C   UNL     1       2.452   3.201  17.405  0.00  0.00    +0.000 A 
ATOM      4  N   UNL     1       2.491   1.908  17.765  0.00  0.00    +0.000 N 
ATOM      5  C   UNL     1       3.533   1.791  18.610  0.00  0.00    +0.000 A 
ATOM      6  N   UNL     1       4.167   2.964  18.805  0.00  0.00    +0.000 NA
ATOM      7  H   UNL     1       1.847   1.149  17.452  0.00  0.00    +0.000 HD
ENDBRANCH   1   2
BRANCH   1   8
ATOM      8  C   UNL     1       4.676   5.525  16.667  0.00  0.00    +0.000 C 
BRANCH   8   9
ATOM      9  C   UNL     1       6.100   5.962  17.022  0.00  0.00    +0.000 C 
BRANCH   9  11
ATOM     10  O   UNL     1       7.869   4.519  16.477  0.00  0.00    +0.000 OA
ATOM     11  C   UNL     1       7.039   4.814  17.321  0.00  0.00    +0.000 C 
BRANCH  11  12
ATOM     12  O   UNL     1       7.004   4.109  18.474  0.00  0.00    +0.000 OA
ATOM     13  H   UNL     1       7.553   3.334  18.654  0.00  0.00    +0.000 HD
ENDBRANCH  11  12
ENDBRANCH   9  11
ENDBRANCH   8   9
ENDBRANCH   1   8
TORSDOF 5
ENDMDL
MODEL 4
REMARK VINA RESULT:      -4.8      0.957      1.329
REMARK  Name = 
REMARK  5 active torsions:
REMARK  status: ('A' for Active; 'I' for Inactive)
REMARK    1  A    between atoms: C_2  and  O_3
REMARK    2  A    between atoms: C_2  and  C_4
REMARK    3  A    between atoms: C_4  and  C_5
REMARK    4  A    between atoms: C_5  and  C_6
REMARK    5  A    between atoms: C_6  and  C_7
REMARK                            x       y       z     vdW  Elec       q    Type
REMARK                         _______ _______ _______ _____ _____    ______ ____
ROOT
ATOM      1  C   UNL     1       2.234   2.307  17.997  0.00  0.00    +0.000 C 
ENDROOT
BRANCH   1   2
ATOM      2  C   UNL     1       3.544   3.008  18.178  0.00  0.00    +0.000 A 
ATOM      3  C   UNL     1       4.465   2.772  19.174  0.00  0.00    +0.000 A 
ATOM      4  N   UNL     1       5.507   3.595  18.971  0.00  0.00    +0.000 N 
ATOM      5  C   UNL     1       5.204   4.310  17.872  0.00  0.00    +0.000 A 
ATOM      6  N   UNL     1       4.004   3.975  17.359  0.00  0.00    +0.000 NA
ATOM      7  H   UNL     1       6.374   3.664  19.548  0.00  0.00    +0.000 HD
ENDBRANCH   1   2
BRANCH   1   8
ATOM      8  C   UNL     1       1.596   2.042  19.362  0.00  0.00    +0.000 C 
BRANCH   8   9
ATOM      9  C   UNL     1       0.953   3.312  19.928  0.00  0.00    +0.000 C 
BRANCH   9  11
ATOM     10  O   UNL     1       1.962   5.103  21.061  0.00  0.00    +0.000 OA
ATOM     11  C   UNL     1       1.703   3.912  21.097  0.00  0.00    +0.000 C 
BRANCH  11  12
ATOM     12  O   UNL     1       2.093   3.193  22.175  0.00  0.00    +0.000 OA
ATOM     13  H   UNL     1       1.917   3.449  23.090  0.00  0.00    +0.000 HD
ENDBRANCH  11  12
ENDBRANCH   9  11
ENDBRANCH   8   9
ENDBRANCH   1   8
TORSDOF 5
ENDMDL
MODEL 5
REMARK VINA RESULT:      -4.7      1.267      1.640
REMARK  Name = 
REMARK  5 active torsions:
REMARK  status: ('A' for Active; 'I' for Inactive)
REMARK    1  A    between atoms: C_2  and  O_3
REMARK    2  A    between atoms: C_2  and  C_4
REMARK    3  A    between atoms: C_4  and  C_5
REMARK    4  A    between atoms: C_5  and  C_6
REMARK    5  A    between atoms: C_6  and  C_7
REMARK                            x       y       z     vdW  Elec       q    Type
REMARK                         _______ _______ _______ _____ _____    ______ ____
ROOT
ATOM      1  C   UNL     1       1.521   4.198  17.761  0.00  0.00    +0.000 C 
ENDROOT
BRANCH   1   2
ATOM      2  C   UNL     1       2.982   4.523  17.807  0.00  0.00    +0.000 A 
ATOM      3  C   UNL     1       3.535   5.775  17.962  0.00  0.00    +0.000 A 
ATOM      4  N   UNL     1       4.870   5.634  17.969  0.00  0.00    +0.000 N 
ATOM      5  C   UNL     1       5.103   4.317  17.817  0.00  0.00    +0.000 A 
ATOM      6  N   UNL     1       3.964   3.605  17.714  0.00  0.00    +0.000 NA
ATOM      7  H   UNL     1       5.580   6.391  18.073  0.00  0.00    +0.000 HD
ENDBRANCH   1   2
BRANCH   1   8
ATOM      8  C   UNL     1       1.210   3.072  18.750  0.00  0.00    +0.000 C 
BRANCH   8   9
ATOM      9  C   UNL     1       1.161   3.597  20.188  0.00  0.00    +0.000 C 
BRANCH   9  11
ATOM     10  O   UNL     1       2.034   3.022  22.289  0.00  0.00    +0.000 OA
ATOM     11  C   UNL     1       2.237   3.030  21.087  0.00  0.00    +0.000 C 
BRANCH  11  12
ATOM     12  O   UNL     1       3.405   2.533  20.621  0.00  0.00    +0.000 OA
ATOM     13  H   UNL     1       3.852   1.759  20.991  0.00  0.00    +0.000 HD
ENDBRANCH  11  12
ENDBRANCH   9  11
ENDBRANCH   8   9
ENDBRANCH   1   8
TORSDOF 5
ENDMDL
MODEL 6
REMARK VINA RESULT:      -4.7      3.587      4.925
REMARK  Name = 
REMARK  5 active torsions:
REMARK  status: ('A' for Active; 'I' for Inactive)
REMARK    1  A    between atoms: C_2  and  O_3
REMARK    2  A    between atoms: C_2  and  C_4
REMARK    3  A    between atoms: C_4  and  C_5
REMARK    4  A    between atoms: C_5  and  C_6
REMARK    5  A    between atoms: C_6  and  C_7
REMARK                            x       y       z     vdW  Elec       q    Type
REMARK                         _______ _______ _______ _____ _____    ______ ____
ROOT
ATOM      1  C   UNL     1       3.314   5.228  17.721  0.00  0.00    +0.000 C 
ENDROOT
BRANCH   1   2
ATOM      2  C   UNL     1       3.165   3.765  17.997  0.00  0.00    +0.000 A 
ATOM      3  C   UNL     1       2.045   2.999  17.758  0.00  0.00    +0.000 A 
ATOM      4  N   UNL     1       2.325   1.739  18.126  0.00  0.00    +0.000 N 
ATOM      5  C   UNL     1       3.593   1.759  18.579  0.00  0.00    +0.000 A 
ATOM      6  N   UNL     1       4.139   2.989  18.514  0.00  0.00    +0.000 NA
ATOM      7  H   UNL     1       1.690   0.912  18.070  0.00  0.00    +0.000 HD
ENDBRANCH   1   2
BRANCH   1   8
ATOM      8  C   UNL     1       4.794   5.616  17.771  0.00  0.00    +0.000 C 
BRANCH   8   9
ATOM      9  C   UNL     1       5.404   5.652  16.367  0.00  0.00    +0.000 C 
BRANCH   9  11
ATOM     10  O   UNL     1       7.541   4.777  15.945  0.00  0.00    +0.000 OA
ATOM     11  C   UNL     1       6.358   4.513  16.081  0.00  0.00    +0.000 C 
BRANCH  11  12
ATOM     12  O   UNL     1       5.962   3.224  15.976  0.00  0.00    +0.000 OA
ATOM     13  H   UNL     1       6.424   2.479  16.383  0.00  0.00    +0.000 HD
ENDBRANCH  11  12
ENDBRANCH   9  11
ENDBRANCH   8   9
ENDBRANCH   1   8
TORSDOF 5
ENDMDL
MODEL 7
REMARK VINA RESULT:      -4.7      2.688      4.051
REMARK  Name = 
REMARK  5 active torsions:
REMARK  status: ('A' for Active; 'I' for Inactive)
REMARK    1  A    between atoms: C_2  and  O_3
REMARK    2  A    between atoms: C_2  and  C_4
REMARK    3  A    between atoms: C_4  and  C_5
REMARK    4  A    between atoms: C_5  and  C_6
REMARK    5  A    between atoms: C_6  and  C_7
REMARK                            x       y       z     vdW  Elec       q    Type
REMARK                         _______ _______ _______ _____ _____    ______ ____
ROOT
ATOM      1  C   UNL     1       2.588   2.762  17.884  0.00  0.00    +0.000 C 
ENDROOT
BRANCH   1   2
ATOM      2  C   UNL     1       2.170   2.810  19.321  0.00  0.00    +0.000 A 
ATOM      3  C   UNL     1       0.886   2.961  19.793  0.00  0.00    +0.000 A 
ATOM      4  N   UNL     1       0.937   2.936  21.134  0.00  0.00    +0.000 N 
ATOM      5  C   UNL     1       2.236   2.776  21.451  0.00  0.00    +0.000 A 
ATOM      6  N   UNL     1       3.022   2.695  20.360  0.00  0.00    +0.000 NA
ATOM      7  H   UNL     1       0.134   3.022  21.795  0.00  0.00    +0.000 HD
ENDBRANCH   1   2
BRANCH   1   8
ATOM      8  C   UNL     1       3.083   4.142  17.443  0.00  0.00    +0.000 C 
BRANCH   8   9
ATOM      9  C   UNL     1       4.576   4.111  17.104  0.00  0.00    +0.000 C 
BRANCH   9  11
ATOM     10  O   UNL     1       5.012   5.205  19.134  0.00  0.00    +0.000 OA
ATOM     11  C   UNL     1       5.477   4.498  18.256  0.00  0.00    +0.000 C 
BRANCH  11  12
ATOM     12  O   UNL     1       6.763   4.094  18.358  0.00  0.00    +0.000 OA
ATOM     13  H   UNL     1       7.215   3.549  17.700  0.00  0.00    +0.000 HD
ENDBRANCH  11  12
ENDBRANCH   9  11
ENDBRANCH   8   9
ENDBRANCH   1   8
TORSDOF 5
ENDMDL
MODEL 8
REMARK VINA RESULT:      -4.7      0.910      1.220
REMARK  Name = 
REMARK  5 active torsions:
REMARK  status: ('A' for Active; 'I' for Inactive)
REMARK    1  A    between atoms: C_2  and  O_3
REMARK    2  A    between atoms: C_2  and  C_4
REMARK    3  A    between atoms: C_4  and  C_5
REMARK    4  A    between atoms: C_5  and  C_6
REMARK    5  A    between atoms: C_6  and  C_7
REMARK                            x       y       z     vdW  Elec       q    Type
REMARK                         _______ _______ _______ _____ _____    ______ ____
ROOT
ATOM      1  C   UNL     1       2.728   3.192  18.250  0.00  0.00    +0.000 C 
ENDROOT
BRANCH   1   2
ATOM      2  C   UNL     1       3.875   4.154  18.264  0.00  0.00    +0.000 A 
ATOM      3  C   UNL     1       4.201   5.051  17.271  0.00  0.00    +0.000 A 
ATOM      4  N   UNL     1       5.281   5.736  17.677  0.00  0.00    +0.000 N 
ATOM      5  C   UNL     1       5.592   5.248  18.893  0.00  0.00    +0.000 A 
ATOM      6  N   UNL     1       4.748   4.274  19.284  0.00  0.00    +0.000 NA
ATOM      7  H   UNL     1       5.777   6.492  17.157  0.00  0.00    +0.000 HD
ENDBRANCH   1   2
BRANCH   1   8
ATOM      8  C   UNL     1       1.459   3.893  18.743  0.00  0.00    +0.000 C 
BRANCH   8   9
ATOM      9  C   UNL     1       1.021   3.350  20.106  0.00  0.00    +0.000 C 
BRANCH   9  11
ATOM     10  O   UNL     1       2.073   3.049  22.183  0.00  0.00    +0.000 OA
ATOM     11  C   UNL     1       1.877   3.823  21.261  0.00  0.00    +0.000 C 
BRANCH  11  12
ATOM     12  O   UNL     1       2.433   5.055  21.314  0.00  0.00    +0.000 OA
ATOM     13  H   UNL     1       3.304   5.241  21.690  0.00  0.00    +0.000 HD
ENDBRANCH  11  12
ENDBRANCH   9  11
ENDBRANCH   8   9
ENDBRANCH   1   8
TORSDOF 5
ENDMDL
MODEL 9
REMARK VINA RESULT:      -4.7      6.210      7.032
REMARK  Name = 
REMARK  5 active torsions:
REMARK  status: ('A' for Active; 'I' for Inactive)
REMARK    1  A    between atoms: C_2  and  O_3
REMARK    2  A    between atoms: C_2  and  C_4
REMARK    3  A    between atoms: C_4  and  C_5
REMARK    4  A    between atoms: C_5  and  C_6
REMARK    5  A    between atoms: C_6  and  C_7
REMARK                            x       y       z     vdW  Elec       q    Type
REMARK                         _______ _______ _______ _____ _____    ______ ____
ROOT
ATOM      1  C   UNL     1       6.465   4.095  16.227  0.00  0.00    +0.000 C 
ENDROOT
BRANCH   1   2
ATOM      2  C   UNL     1       7.049   5.020  17.249  0.00  0.00    +0.000 A 
ATOM      3  C   UNL     1       7.203   6.383  17.123  0.00  0.00    +0.000 A 
ATOM      4  N   UNL     1       7.748   6.839  18.262  0.00  0.00    +0.000 N 
ATOM      5  C   UNL     1       7.916   5.760  19.050  0.00  0.00    +0.000 A 
ATOM      6  N   UNL     1       7.498   4.625  18.457  0.00  0.00    +0.000 NA
ATOM      7  H   UNL     1       7.989   7.829  18.491  0.00  0.00    +0.000 HD
ENDBRANCH   1   2
BRANCH   1   8
ATOM      8  C   UNL     1       6.743   4.634  14.822  0.00  0.00    +0.000 C 
BRANCH   8   9
ATOM      9  C   UNL     1       5.745   4.072  13.806  0.00  0.00    +0.000 C 
BRANCH   9  11
ATOM     10  O   UNL     1       7.231   4.204  11.994  0.00  0.00    +0.000 OA
ATOM     11  C   UNL     1       6.388   3.522  12.551  0.00  0.00    +0.000 C 
BRANCH  11  12
ATOM     12  O   UNL     1       6.074   2.316  12.026  0.00  0.00    +0.000 OA
ATOM     13  H   UNL     1       5.404   2.180  11.342  0.00  0.00    +0.000 HD
ENDBRANCH  11  12
ENDBRANCH   9  11
ENDBRANCH   8   9
ENDBRANCH   1   8
TORSDOF 5
ENDMDL
