MODEL 1
REMARK VINA RESULT:      -8.3      0.000      0.000
REMARK  Name = 
REMARK  8 active torsions:
REMARK  status: ('A' for Active; 'I' for Inactive)
REMARK    1  A    between atoms: C_1  and  O_2
REMARK    2  A    between atoms: O_2  and  C_3
REMARK    3  A    between atoms: C_8  and  C_9
REMARK    4  A    between atoms: C_10  and  C_11
REMARK    5  A    between atoms: C_14  and  C_15
REMARK    6  A    between atoms: C_21  and  C_22
REMARK    7  A    between atoms: C_23  and  C_24
REMARK    8  A    between atoms: C_27  and  C_28
REMARK                            x       y       z     vdW  Elec       q    Type
REMARK                         _______ _______ _______ _____ _____    ______ ____
ROOT
ATOM      1  C   UNL     1       2.160   8.727  18.253  0.00  0.00    +0.000 A 
ATOM      2  C   UNL     1       3.021   7.633  18.077  0.00  0.00    +0.000 A 
ATOM      3  C   UNL     1       3.018   6.545  18.975  0.00  0.00    +0.000 A 
ATOM      4  C   UNL     1       2.059   6.535  19.981  0.00  0.00    +0.000 A 
ATOM      5  C   UNL     1       1.184   7.615  20.191  0.00  0.00    +0.000 A 
ATOM      6  C   UNL     1       1.227   8.719  19.308  0.00  0.00    +0.000 A 
ATOM      7  N   UNL     1       2.154   5.327  20.626  0.00  0.00    +0.000 N 
ATOM      8  C   UNL     1       3.187   4.603  20.106  0.00  0.00    +0.000 A 
ATOM      9  N   UNL     1       3.521   3.372  20.516  0.00  0.00    +0.000 NA
ATOM     10  C   UNL     1       4.595   2.904  19.863  0.00  0.00    +0.000 A 
ATOM     11  N   UNL     1       5.332   3.538  18.936  0.00  0.00    +0.000 NA
ATOM     12  C   UNL     1       4.961   4.789  18.556  0.00  0.00    +0.000 A 
ATOM     13  C   UNL     1       3.813   5.363  19.120  0.00  0.00    +0.000 A 
ATOM     14  H   UNL     1       1.544   4.989  21.359  0.00  0.00    +0.000 HD
ENDROOT
BRANCH   6  15
ATOM     15  C   UNL     1       0.250   9.793  19.492  0.00  0.00    +0.000 A 
ATOM     16  C   UNL     1      -0.846  10.259  18.704  0.00  0.00    +0.000 A 
ATOM     17  C   UNL     1      -1.357   9.806  17.388  0.00  0.00    +0.000 C 
ATOM     18  N   UNL     1      -1.479  11.279  19.300  0.00  0.00    +0.000 NA
ATOM     19  O   UNL     1      -0.819  11.492  20.489  0.00  0.00    +0.000 OA
ATOM     20  C   UNL     1       0.204  10.609  20.610  0.00  0.00    +0.000 A 
ATOM     21  C   UNL     1       0.981  10.717  21.863  0.00  0.00    +0.000 C 
ENDBRANCH   6  15
BRANCH  12  22
ATOM     22  C   UNL     1       5.793   5.451  17.570  0.00  0.00    +0.000 A 
ATOM     23  C   UNL     1       6.983   6.237  17.642  0.00  0.00    +0.000 A 
ATOM     24  C   UNL     1       7.825   6.641  18.793  0.00  0.00    +0.000 C 
ATOM     25  N   UNL     1       7.373   6.646  16.428  0.00  0.00    +0.000 NA
ATOM     26  O   UNL     1       6.517   6.047  15.533  0.00  0.00    +0.000 OA
ATOM     27  C   UNL     1       5.603   5.303  16.206  0.00  0.00    +0.000 A 
ATOM     28  C   UNL     1       4.669   4.530  15.363  0.00  0.00    +0.000 C 
ENDBRANCH  12  22
BRANCH   1  30
ATOM     29  C   UNL     1       2.624  11.046  17.880  0.00  0.00    +0.000 C 
ATOM     30  O   UNL     1       2.150   9.795  17.388  0.00  0.00    +0.000 OA
ENDBRANCH   1  30
TORSDOF 3
ENDMDL
MODEL 2
REMARK VINA RESULT:      -8.0      0.442      1.518
REMARK  Name = 
REMARK  8 active torsions:
REMARK  status: ('A' for Active; 'I' for Inactive)
REMARK    1  A    between atoms: C_1  and  O_2
REMARK    2  A    between atoms: O_2  and  C_3
REMARK    3  A    between atoms: C_8  and  C_9
REMARK    4  A    between atoms: C_10  and  C_11
REMARK    5  A    between atoms: C_14  and  C_15
REMARK    6  A    between atoms: C_21  and  C_22
REMARK    7  A    between atoms: C_23  and  C_24
REMARK    8  A    between atoms: C_27  and  C_28
REMARK                            x       y       z     vdW  Elec       q    Type
REMARK                         _______ _______ _______ _____ _____    ______ ____
ROOT
ATOM      1  C   UNL     1       2.209   8.887  18.187  0.00  0.00    +0.000 A 
ATOM      2  C   UNL     1       3.046   7.771  18.032  0.00  0.00    +0.000 A 
ATOM      3  C   UNL     1       3.013   6.697  18.945  0.00  0.00    +0.000 A 
ATOM      4  C   UNL     1       2.048   6.722  19.944  0.00  0.00    +0.000 A 
ATOM      5  C   UNL     1       1.195   7.824  20.133  0.00  0.00    +0.000 A 
ATOM      6  C   UNL     1       1.269   8.914  19.236  0.00  0.00    +0.000 A 
ATOM      7  N   UNL     1       2.111   5.521  20.607  0.00  0.00    +0.000 N 
ATOM      8  C   UNL     1       3.131   4.767  20.104  0.00  0.00    +0.000 A 
ATOM      9  N   UNL     1       3.435   3.534  20.533  0.00  0.00    +0.000 NA
ATOM     10  C   UNL     1       4.502   3.034  19.894  0.00  0.00    +0.000 A 
ATOM     11  N   UNL     1       5.259   3.638  18.963  0.00  0.00    +0.000 NA
ATOM     12  C   UNL     1       4.919   4.892  18.564  0.00  0.00    +0.000 A 
ATOM     13  C   UNL     1       3.781   5.499  19.111  0.00  0.00    +0.000 A 
ATOM     14  H   UNL     1       1.489   5.208  21.340  0.00  0.00    +0.000 HD
ENDROOT
BRANCH   6  15
ATOM     15  C   UNL     1       0.315  10.013  19.398  0.00  0.00    +0.000 A 
ATOM     16  C   UNL     1       0.209  11.080  20.341  0.00  0.00    +0.000 A 
ATOM     17  C   UNL     1       1.044  11.423  21.517  0.00  0.00    +0.000 C 
ATOM     18  N   UNL     1      -0.842  11.867  20.072  0.00  0.00    +0.000 NA
ATOM     19  O   UNL     1      -1.434  11.339  18.948  0.00  0.00    +0.000 OA
ATOM     20  C   UNL     1      -0.747  10.242  18.540  0.00  0.00    +0.000 A 
ATOM     21  C   UNL     1      -1.269   9.593  17.319  0.00  0.00    +0.000 C 
ENDBRANCH   6  15
BRANCH  12  22
ATOM     22  C   UNL     1       5.772   5.521  17.574  0.00  0.00    +0.000 A 
ATOM     23  C   UNL     1       6.982   6.276  17.643  0.00  0.00    +0.000 A 
ATOM     24  C   UNL     1       7.830   6.670  18.793  0.00  0.00    +0.000 C 
ATOM     25  N   UNL     1       7.387   6.662  16.426  0.00  0.00    +0.000 NA
ATOM     26  O   UNL     1       6.519   6.076  15.534  0.00  0.00    +0.000 OA
ATOM     27  C   UNL     1       5.584   5.364  16.211  0.00  0.00    +0.000 A 
ATOM     28  C   UNL     1       4.632   4.607  15.373  0.00  0.00    +0.000 C 
ENDBRANCH  12  22
BRANCH   1  30
ATOM     29  C   UNL     1       2.737  11.187  17.782  0.00  0.00    +0.000 C 
ATOM     30  O   UNL     1       2.228   9.943  17.308  0.00  0.00    +0.000 OA
ENDBRANCH   1  30
TORSDOF 3
ENDMDL
MODEL 3
REMARK VINA RESULT:      -7.4      0.521      1.535
REMARK  Name = 
REMARK  8 active torsions:
REMARK  status: ('A' for Active; 'I' for Inactive)
REMARK    1  A    between atoms: C_1  and  O_2
REMARK    2  A    between atoms: O_2  and  C_3
REMARK    3  A    between atoms: C_8  and  C_9
REMARK    4  A    between atoms: C_10  and  C_11
REMARK    5  A    between atoms: C_14  and  C_15
REMARK    6  A    between atoms: C_21  and  C_22
REMARK    7  A    between atoms: C_23  and  C_24
REMARK    8  A    between atoms: C_27  and  C_28
REMARK                            x       y       z     vdW  Elec       q    Type
REMARK                         _______ _______ _______ _____ _____    ______ ____
ROOT
ATOM      1  C   UNL     1       2.232   8.475  18.317  0.00  0.00    +0.000 A 
ATOM      2  C   UNL     1       3.050   7.341  18.186  0.00  0.00    +0.000 A 
ATOM      3  C   UNL     1       2.997   6.286  19.121  0.00  0.00    +0.000 A 
ATOM      4  C   UNL     1       2.032   6.349  20.118  0.00  0.00    +0.000 A 
ATOM      5  C   UNL     1       1.199   7.470  20.284  0.00  0.00    +0.000 A 
ATOM      6  C   UNL     1       1.292   8.540  19.365  0.00  0.00    +0.000 A 
ATOM      7  N   UNL     1       2.073   5.161  20.805  0.00  0.00    +0.000 N 
ATOM      8  C   UNL     1       3.080   4.379  20.319  0.00  0.00    +0.000 A 
ATOM      9  N   UNL     1       3.362   3.150  20.773  0.00  0.00    +0.000 NA
ATOM     10  C   UNL     1       4.421   2.618  20.146  0.00  0.00    +0.000 A 
ATOM     11  N   UNL     1       5.189   3.190  19.205  0.00  0.00    +0.000 NA
ATOM     12  C   UNL     1       4.871   4.441  18.779  0.00  0.00    +0.000 A 
ATOM     13  C   UNL     1       3.743   5.079  19.313  0.00  0.00    +0.000 A 
ATOM     14  H   UNL     1       1.445   4.873  21.544  0.00  0.00    +0.000 HD
ENDROOT
BRANCH   6  15
ATOM     15  C   UNL     1       0.358   9.658  19.503  0.00  0.00    +0.000 A 
ATOM     16  C   UNL     1      -0.690  10.161  18.673  0.00  0.00    +0.000 A 
ATOM     17  C   UNL     1      -1.174   9.715  17.345  0.00  0.00    +0.000 C 
ATOM     18  N   UNL     1      -1.297  11.215  19.236  0.00  0.00    +0.000 NA
ATOM     19  O   UNL     1      -0.669  11.413  20.444  0.00  0.00    +0.000 OA
ATOM     20  C   UNL     1       0.310  10.488  20.610  0.00  0.00    +0.000 A 
ATOM     21  C   UNL     1       1.047  10.577  21.888  0.00  0.00    +0.000 C 
ENDBRANCH   6  15
BRANCH  12  22
ATOM     22  C   UNL     1       5.736   5.035  17.778  0.00  0.00    +0.000 A 
ATOM     23  C   UNL     1       5.633   5.231  16.368  0.00  0.00    +0.000 A 
ATOM     24  C   UNL     1       4.552   4.906  15.408  0.00  0.00    +0.000 C 
ATOM     25  N   UNL     1       6.725   5.830  15.876  0.00  0.00    +0.000 NA
ATOM     26  O   UNL     1       7.510   6.138  16.962  0.00  0.00    +0.000 OA
ATOM     27  C   UNL     1       6.906   5.704  18.097  0.00  0.00    +0.000 A 
ATOM     28  C   UNL     1       7.599   6.045  19.356  0.00  0.00    +0.000 C 
ENDBRANCH  12  22
BRANCH   1  30
ATOM     29  C   UNL     1       2.730  10.777  17.887  0.00  0.00    +0.000 C 
ATOM     30  O   UNL     1       2.271   9.511  17.417  0.00  0.00    +0.000 OA
ENDBRANCH   1  30
TORSDOF 3
ENDMDL
MODEL 4
REMARK VINA RESULT:      -7.2      1.034      1.126
REMARK  Name = 
REMARK  8 active torsions:
REMARK  status: ('A' for Active; 'I' for Inactive)
REMARK    1  A    between atoms: C_1  and  O_2
REMARK    2  A    between atoms: O_2  and  C_3
REMARK    3  A    between atoms: C_8  and  C_9
REMARK    4  A    between atoms: C_10  and  C_11
REMARK    5  A    between atoms: C_14  and  C_15
REMARK    6  A    between atoms: C_21  and  C_22
REMARK    7  A    between atoms: C_23  and  C_24
REMARK    8  A    between atoms: C_27  and  C_28
REMARK                            x       y       z     vdW  Elec       q    Type
REMARK                         _______ _______ _______ _____ _____    ______ ____
ROOT
ATOM      1  C   UNL     1       2.182   8.294  19.279  0.00  0.00    +0.000 A 
ATOM      2  C   UNL     1       2.982   7.181  18.975  0.00  0.00    +0.000 A 
ATOM      3  C   UNL     1       2.870   5.977  19.700  0.00  0.00    +0.000 A 
ATOM      4  C   UNL     1       1.866   5.884  20.656  0.00  0.00    +0.000 A 
ATOM      5  C   UNL     1       1.050   6.979  20.992  0.00  0.00    +0.000 A 
ATOM      6  C   UNL     1       1.202   8.194  20.286  0.00  0.00    +0.000 A 
ATOM      7  N   UNL     1       1.856   4.591  21.117  0.00  0.00    +0.000 N 
ATOM      8  C   UNL     1       2.866   3.883  20.534  0.00  0.00    +0.000 A 
ATOM      9  N   UNL     1       3.105   2.585  20.767  0.00  0.00    +0.000 NA
ATOM     10  C   UNL     1       4.178   2.147  20.093  0.00  0.00    +0.000 A 
ATOM     11  N   UNL     1       4.994   2.858  19.300  0.00  0.00    +0.000 NA
ATOM     12  C   UNL     1       4.720   4.173  19.097  0.00  0.00    +0.000 A 
ATOM     13  C   UNL     1       3.584   4.735  19.696  0.00  0.00    +0.000 A 
ATOM     14  H   UNL     1       1.193   4.192  21.768  0.00  0.00    +0.000 HD
ENDROOT
BRANCH   6  15
ATOM     15  C   UNL     1       0.285   9.294  20.591  0.00  0.00    +0.000 A 
ATOM     16  C   UNL     1      -0.587  10.087  19.785  0.00  0.00    +0.000 A 
ATOM     17  C   UNL     1      -0.841  10.072  18.325  0.00  0.00    +0.000 C 
ATOM     18  N   UNL     1      -1.258  10.981  20.526  0.00  0.00    +0.000 NA
ATOM     19  O   UNL     1      -0.848  10.783  21.824  0.00  0.00    +0.000 OA
ATOM     20  C   UNL     1       0.063   9.779  21.869  0.00  0.00    +0.000 A 
ATOM     21  C   UNL     1       0.566   9.448  23.219  0.00  0.00    +0.000 C 
ENDBRANCH   6  15
BRANCH  12  22
ATOM     22  C   UNL     1       5.636   4.915  18.252  0.00  0.00    +0.000 A 
ATOM     23  C   UNL     1       6.877   5.583  18.481  0.00  0.00    +0.000 A 
ATOM     24  C   UNL     1       7.700   5.733  19.704  0.00  0.00    +0.000 C 
ATOM     25  N   UNL     1       7.343   6.147  17.359  0.00  0.00    +0.000 NA
ATOM     26  O   UNL     1       6.481   5.766  16.357  0.00  0.00    +0.000 OA
ATOM     27  C   UNL     1       5.489   4.999  16.877  0.00  0.00    +0.000 A 
ATOM     28  C   UNL     1       4.534   4.445  15.897  0.00  0.00    +0.000 C 
ENDBRANCH  12  22
BRANCH   1  30
ATOM     29  C   UNL     1       2.552   9.397  17.187  0.00  0.00    +0.000 C 
ATOM     30  O   UNL     1       2.278   9.475  18.584  0.00  0.00    +0.000 OA
ENDBRANCH   1  30
TORSDOF 3
ENDMDL
MODEL 5
REMARK VINA RESULT:      -7.2      2.360      4.284
REMARK  Name = 
REMARK  8 active torsions:
REMARK  status: ('A' for Active; 'I' for Inactive)
REMARK    1  A    between atoms: C_1  and  O_2
REMARK    2  A    between atoms: O_2  and  C_3
REMARK    3  A    between atoms: C_8  and  C_9
REMARK    4  A    between atoms: C_10  and  C_11
REMARK    5  A    between atoms: C_14  and  C_15
REMARK    6  A    between atoms: C_21  and  C_22
REMARK    7  A    between atoms: C_23  and  C_24
REMARK    8  A    between atoms: C_27  and  C_28
REMARK                            x       y       z     vdW  Elec       q    Type
REMARK                         _______ _______ _______ _____ _____    ______ ____
ROOT
ATOM      1  C   UNL     1       1.210   8.328  20.244  0.00  0.00    +0.000 A 
ATOM      2  C   UNL     1       1.940   7.134  20.139  0.00  0.00    +0.000 A 
ATOM      3  C   UNL     1       2.684   6.829  18.979  0.00  0.00    +0.000 A 
ATOM      4  C   UNL     1       2.763   7.795  17.984  0.00  0.00    +0.000 A 
ATOM      5  C   UNL     1       2.041   9.000  18.052  0.00  0.00    +0.000 A 
ATOM      6  C   UNL     1       1.265   9.274  19.202  0.00  0.00    +0.000 A 
ATOM      7  N   UNL     1       3.647   7.339  17.038  0.00  0.00    +0.000 N 
ATOM      8  C   UNL     1       4.075   6.086  17.369  0.00  0.00    +0.000 A 
ATOM      9  N   UNL     1       4.958   5.380  16.650  0.00  0.00    +0.000 NA
ATOM     10  C   UNL     1       5.176   4.168  17.179  0.00  0.00    +0.000 A 
ATOM     11  N   UNL     1       4.592   3.629  18.261  0.00  0.00    +0.000 NA
ATOM     12  C   UNL     1       3.696   4.377  18.957  0.00  0.00    +0.000 A 
ATOM     13  C   UNL     1       3.432   5.689  18.540  0.00  0.00    +0.000 A 
ATOM     14  H   UNL     1       3.971   7.847  16.226  0.00  0.00    +0.000 HD
ENDROOT
BRANCH   6  15
ATOM     15  C   UNL     1       0.591  10.571  19.291  0.00  0.00    +0.000 A 
ATOM     16  C   UNL     1       0.959  11.822  19.873  0.00  0.00    +0.000 A 
ATOM     17  C   UNL     1       2.173  12.225  20.622  0.00  0.00    +0.000 C 
ATOM     18  N   UNL     1       0.007  12.747  19.685  0.00  0.00    +0.000 NA
ATOM     19  O   UNL     1      -0.991  12.125  18.971  0.00  0.00    +0.000 OA
ATOM     20  C   UNL     1      -0.646  10.835  18.729  0.00  0.00    +0.000 A 
ATOM     21  C   UNL     1      -1.628  10.060  17.942  0.00  0.00    +0.000 C 
ENDBRANCH   6  15
BRANCH  12  22
ATOM     22  C   UNL     1       3.069   3.754  20.106  0.00  0.00    +0.000 A 
ATOM     23  C   UNL     1       1.764   3.818  20.682  0.00  0.00    +0.000 A 
ATOM     24  C   UNL     1       0.545   4.552  20.269  0.00  0.00    +0.000 C 
ATOM     25  N   UNL     1       1.674   3.052  21.776  0.00  0.00    +0.000 NA
ATOM     26  O   UNL     1       2.874   2.388  21.874  0.00  0.00    +0.000 OA
ATOM     27  C   UNL     1       3.690   2.771  20.860  0.00  0.00    +0.000 A 
ATOM     28  C   UNL     1       4.989   2.071  20.790  0.00  0.00    +0.000 C 
ENDBRANCH  12  22
BRANCH   1  30
ATOM     29  C   UNL     1       1.189   9.149  22.493  0.00  0.00    +0.000 C 
ATOM     30  O   UNL     1       0.480   8.641  21.365  0.00  0.00    +0.000 OA
ENDBRANCH   1  30
TORSDOF 3
ENDMDL
MODEL 6
REMARK VINA RESULT:      -7.1      0.773      2.153
REMARK  Name = 
REMARK  8 active torsions:
REMARK  status: ('A' for Active; 'I' for Inactive)
REMARK    1  A    between atoms: C_1  and  O_2
REMARK    2  A    between atoms: O_2  and  C_3
REMARK    3  A    between atoms: C_8  and  C_9
REMARK    4  A    between atoms: C_10  and  C_11
REMARK    5  A    between atoms: C_14  and  C_15
REMARK    6  A    between atoms: C_21  and  C_22
REMARK    7  A    between atoms: C_23  and  C_24
REMARK    8  A    between atoms: C_27  and  C_28
REMARK                            x       y       z     vdW  Elec       q    Type
REMARK                         _______ _______ _______ _____ _____    ______ ____
ROOT
ATOM      1  C   UNL     1       2.259   8.950  18.228  0.00  0.00    +0.000 A 
ATOM      2  C   UNL     1       3.073   7.810  18.141  0.00  0.00    +0.000 A 
ATOM      3  C   UNL     1       2.940   6.742  19.053  0.00  0.00    +0.000 A 
ATOM      4  C   UNL     1       1.904   6.800  19.976  0.00  0.00    +0.000 A 
ATOM      5  C   UNL     1       1.072   7.928  20.097  0.00  0.00    +0.000 A 
ATOM      6  C   UNL     1       1.245   9.010  19.204  0.00  0.00    +0.000 A 
ATOM      7  N   UNL     1       1.883   5.602  20.646  0.00  0.00    +0.000 N 
ATOM      8  C   UNL     1       2.915   4.817  20.223  0.00  0.00    +0.000 A 
ATOM      9  N   UNL     1       3.150   3.578  20.678  0.00  0.00    +0.000 NA
ATOM     10  C   UNL     1       4.248   3.043  20.124  0.00  0.00    +0.000 A 
ATOM     11  N   UNL     1       5.089   3.621  19.250  0.00  0.00    +0.000 NA
ATOM     12  C   UNL     1       4.817   4.881  18.822  0.00  0.00    +0.000 A 
ATOM     13  C   UNL     1       3.659   5.523  19.280  0.00  0.00    +0.000 A 
ATOM     14  H   UNL     1       1.199   5.310  21.331  0.00  0.00    +0.000 HD
ENDROOT
BRANCH   6  15
ATOM     15  C   UNL     1       0.313  10.136  19.290  0.00  0.00    +0.000 A 
ATOM     16  C   UNL     1       0.227  11.265  20.161  0.00  0.00    +0.000 A 
ATOM     17  C   UNL     1       1.067  11.668  21.314  0.00  0.00    +0.000 C 
ATOM     18  N   UNL     1      -0.807  12.054  19.836  0.00  0.00    +0.000 NA
ATOM     19  O   UNL     1      -1.407  11.466  18.748  0.00  0.00    +0.000 OA
ATOM     20  C   UNL     1      -0.743  10.330  18.415  0.00  0.00    +0.000 A 
ATOM     21  C   UNL     1      -1.275   9.613  17.238  0.00  0.00    +0.000 C 
ENDBRANCH   6  15
BRANCH  12  22
ATOM     22  C   UNL     1       5.759   5.480  17.897  0.00  0.00    +0.000 A 
ATOM     23  C   UNL     1       5.683   5.898  16.534  0.00  0.00    +0.000 A 
ATOM     24  C   UNL     1       4.562   5.887  15.565  0.00  0.00    +0.000 C 
ATOM     25  N   UNL     1       6.853   6.392  16.107  0.00  0.00    +0.000 NA
ATOM     26  O   UNL     1       7.679   6.412  17.207  0.00  0.00    +0.000 OA
ATOM     27  C   UNL     1       7.019   5.910  18.281  0.00  0.00    +0.000 A 
ATOM     28  C   UNL     1       7.760   5.951  19.558  0.00  0.00    +0.000 C 
ENDBRANCH  12  22
BRANCH   1  30
ATOM     29  C   UNL     1       2.833  11.247  17.868  0.00  0.00    +0.000 C 
ATOM     30  O   UNL     1       2.375   9.999  17.350  0.00  0.00    +0.000 OA
ENDBRANCH   1  30
TORSDOF 3
ENDMDL
MODEL 7
REMARK VINA RESULT:      -7.1      6.568     10.977
REMARK  Name = 
REMARK  8 active torsions:
REMARK  status: ('A' for Active; 'I' for Inactive)
REMARK    1  A    between atoms: C_1  and  O_2
REMARK    2  A    between atoms: O_2  and  C_3
REMARK    3  A    between atoms: C_8  and  C_9
REMARK    4  A    between atoms: C_10  and  C_11
REMARK    5  A    between atoms: C_14  and  C_15
REMARK    6  A    between atoms: C_21  and  C_22
REMARK    7  A    between atoms: C_23  and  C_24
REMARK    8  A    between atoms: C_27  and  C_28
REMARK                            x       y       z     vdW  Elec       q    Type
REMARK                         _______ _______ _______ _____ _____    ______ ____
ROOT
ATOM      1  C   UNL     1      -2.097  13.013  20.251  0.00  0.00    +0.000 A 
ATOM      2  C   UNL     1      -3.497  12.959  20.327  0.00  0.00    +0.000 A 
ATOM      3  C   UNL     1      -4.162  12.866  21.567  0.00  0.00    +0.000 A 
ATOM      4  C   UNL     1      -3.396  12.941  22.723  0.00  0.00    +0.000 A 
ATOM      5  C   UNL     1      -1.990  12.990  22.687  0.00  0.00    +0.000 A 
ATOM      6  C   UNL     1      -1.335  13.039  21.436  0.00  0.00    +0.000 A 
ATOM      7  N   UNL     1      -4.261  12.978  23.788  0.00  0.00    +0.000 N 
ATOM      8  C   UNL     1      -5.546  12.860  23.346  0.00  0.00    +0.000 A 
ATOM      9  N   UNL     1      -6.620  12.880  24.148  0.00  0.00    +0.000 NA
ATOM     10  C   UNL     1      -7.758  12.708  23.460  0.00  0.00    +0.000 A 
ATOM     11  N   UNL     1      -7.894  12.490  22.141  0.00  0.00    +0.000 NA
ATOM     12  C   UNL     1      -6.778  12.470  21.367  0.00  0.00    +0.000 A 
ATOM     13  C   UNL     1      -5.530  12.703  21.961  0.00  0.00    +0.000 A 
ATOM     14  H   UNL     1      -4.010  13.104  24.760  0.00  0.00    +0.000 HD
ENDROOT
BRANCH   6  15
ATOM     15  C   UNL     1       0.123  13.178  21.421  0.00  0.00    +0.000 A 
ATOM     16  C   UNL     1       1.003  14.252  21.751  0.00  0.00    +0.000 A 
ATOM     17  C   UNL     1       0.719  15.633  22.211  0.00  0.00    +0.000 C 
ATOM     18  N   UNL     1       2.286  13.898  21.595  0.00  0.00    +0.000 NA
ATOM     19  O   UNL     1       2.271  12.589  21.173  0.00  0.00    +0.000 OA
ATOM     20  C   UNL     1       0.989  12.154  21.073  0.00  0.00    +0.000 A 
ATOM     21  C   UNL     1       0.835  10.746  20.652  0.00  0.00    +0.000 C 
ENDBRANCH   6  15
BRANCH  12  22
ATOM     22  C   UNL     1      -6.961  12.210  19.953  0.00  0.00    +0.000 A 
ATOM     23  C   UNL     1      -6.953  13.029  18.783  0.00  0.00    +0.000 A 
ATOM     24  C   UNL     1      -6.716  14.481  18.604  0.00  0.00    +0.000 C 
ATOM     25  N   UNL     1      -7.191  12.309  17.680  0.00  0.00    +0.000 NA
ATOM     26  O   UNL     1      -7.248  10.997  18.089  0.00  0.00    +0.000 OA
ATOM     27  C   UNL     1      -7.071  10.930  19.432  0.00  0.00    +0.000 A 
ATOM     28  C   UNL     1      -7.022   9.568  20.000  0.00  0.00    +0.000 C 
ENDBRANCH  12  22
BRANCH   1  30
ATOM     29  C   UNL     1      -1.634  12.056  18.106  0.00  0.00    +0.000 C 
ATOM     30  O   UNL     1      -1.433  13.104  19.052  0.00  0.00    +0.000 OA
ENDBRANCH   1  30
TORSDOF 3
ENDMDL
MODEL 8
REMARK VINA RESULT:      -7.1      5.306      8.601
REMARK  Name = 
REMARK  8 active torsions:
REMARK  status: ('A' for Active; 'I' for Inactive)
REMARK    1  A    between atoms: C_1  and  O_2
REMARK    2  A    between atoms: O_2  and  C_3
REMARK    3  A    between atoms: C_8  and  C_9
REMARK    4  A    between atoms: C_10  and  C_11
REMARK    5  A    between atoms: C_14  and  C_15
REMARK    6  A    between atoms: C_21  and  C_22
REMARK    7  A    between atoms: C_23  and  C_24
REMARK    8  A    between atoms: C_27  and  C_28
REMARK                            x       y       z     vdW  Elec       q    Type
REMARK                         _______ _______ _______ _____ _____    ______ ____
ROOT
ATOM      1  C   UNL     1       3.067  14.016  20.533  0.00  0.00    +0.000 A 
ATOM      2  C   UNL     1       2.130  12.971  20.538  0.00  0.00    +0.000 A 
ATOM      3  C   UNL     1       1.051  12.948  19.630  0.00  0.00    +0.000 A 
ATOM      4  C   UNL     1       1.001  13.935  18.654  0.00  0.00    +0.000 A 
ATOM      5  C   UNL     1       1.918  15.001  18.620  0.00  0.00    +0.000 A 
ATOM      6  C   UNL     1       2.971  15.035  19.564  0.00  0.00    +0.000 A 
ATOM      7  N   UNL     1      -0.036  13.626  17.809  0.00  0.00    +0.000 N 
ATOM      8  C   UNL     1      -0.685  12.514  18.261  0.00  0.00    +0.000 A 
ATOM      9  N   UNL     1      -1.732  11.953  17.640  0.00  0.00    +0.000 NA
ATOM     10  C   UNL     1      -2.202  10.894  18.314  0.00  0.00    +0.000 A 
ATOM     11  N   UNL     1      -1.771  10.415  19.492  0.00  0.00    +0.000 NA
ATOM     12  C   UNL     1      -0.711  11.020  20.091  0.00  0.00    +0.000 A 
ATOM     13  C   UNL     1      -0.089  12.100  19.450  0.00  0.00    +0.000 A 
ATOM     14  H   UNL     1      -0.282  14.115  16.959  0.00  0.00    +0.000 HD
ENDROOT
BRANCH   6  15
ATOM     15  C   UNL     1       3.964  16.104  19.458  0.00  0.00    +0.000 A 
ATOM     16  C   UNL     1       5.228  16.199  18.799  0.00  0.00    +0.000 A 
ATOM     17  C   UNL     1       5.982  15.204  18.000  0.00  0.00    +0.000 C 
ATOM     18  N   UNL     1       5.780  17.408  18.972  0.00  0.00    +0.000 NA
ATOM     19  O   UNL     1       4.887  18.128  19.732  0.00  0.00    +0.000 OA
ATOM     20  C   UNL     1       3.805  17.360  20.019  0.00  0.00    +0.000 A 
ATOM     21  C   UNL     1       2.754  18.029  20.814  0.00  0.00    +0.000 C 
ENDBRANCH   6  15
BRANCH  12  22
ATOM     22  C   UNL     1      -0.287  10.489  21.372  0.00  0.00    +0.000 A 
ATOM     23  C   UNL     1       0.584   9.430  21.768  0.00  0.00    +0.000 A 
ATOM     24  C   UNL     1       1.409   8.489  20.975  0.00  0.00    +0.000 C 
ATOM     25  N   UNL     1       0.643   9.317  23.102  0.00  0.00    +0.000 NA
ATOM     26  O   UNL     1      -0.095  10.364  23.603  0.00  0.00    +0.000 OA
ATOM     27  C   UNL     1      -0.615  11.086  22.578  0.00  0.00    +0.000 A 
ATOM     28  C   UNL     1      -1.363  12.298  22.970  0.00  0.00    +0.000 C 
ENDBRANCH  12  22
BRANCH   1  30
ATOM     29  C   UNL     1       3.977  14.848  22.585  0.00  0.00    +0.000 C 
ATOM     30  O   UNL     1       4.124  14.055  21.410  0.00  0.00    +0.000 OA
ENDBRANCH   1  30
TORSDOF 3
ENDMDL
MODEL 9
REMARK VINA RESULT:      -7.1      5.820      9.015
REMARK  Name = 
REMARK  8 active torsions:
REMARK  status: ('A' for Active; 'I' for Inactive)
REMARK    1  A    between atoms: C_1  and  O_2
REMARK    2  A    between atoms: O_2  and  C_3
REMARK    3  A    between atoms: C_8  and  C_9
REMARK    4  A    between atoms: C_10  and  C_11
REMARK    5  A    between atoms: C_14  and  C_15
REMARK    6  A    between atoms: C_21  and  C_22
REMARK    7  A    between atoms: C_23  and  C_24
REMARK    8  A    between atoms: C_27  and  C_28
REMARK                            x       y       z     vdW  Elec       q    Type
REMARK                         _______ _______ _______ _____ _____    ______ ____
ROOT
ATOM      1  C   UNL     1      -3.942  13.640  21.754  0.00  0.00    +0.000 A 
ATOM      2  C   UNL     1      -2.968  12.937  21.027  0.00  0.00    +0.000 A 
ATOM      3  C   UNL     1      -3.304  12.202  19.871  0.00  0.00    +0.000 A 
ATOM      4  C   UNL     1      -4.611  12.283  19.406  0.00  0.00    +0.000 A 
ATOM      5  C   UNL     1      -5.614  12.972  20.110  0.00  0.00    +0.000 A 
ATOM      6  C   UNL     1      -5.272  13.669  21.291  0.00  0.00    +0.000 A 
ATOM      7  N   UNL     1      -4.662  11.617  18.206  0.00  0.00    +0.000 N 
ATOM      8  C   UNL     1      -3.447  11.060  17.934  0.00  0.00    +0.000 A 
ATOM      9  N   UNL     1      -3.175  10.361  16.823  0.00  0.00    +0.000 NA
ATOM     10  C   UNL     1      -1.917   9.896  16.823  0.00  0.00    +0.000 A 
ATOM     11  N   UNL     1      -0.994  10.027  17.790  0.00  0.00    +0.000 NA
ATOM     12  C   UNL     1      -1.316  10.738  18.903  0.00  0.00    +0.000 A 
ATOM     13  C   UNL     1      -2.582  11.331  18.992  0.00  0.00    +0.000 A 
ATOM     14  H   UNL     1      -5.459  11.559  17.586  0.00  0.00    +0.000 HD
ENDROOT
BRANCH   6  15
ATOM     15  C   UNL     1      -6.312  14.452  21.961  0.00  0.00    +0.000 A 
ATOM     16  C   UNL     1      -7.080  14.240  23.147  0.00  0.00    +0.000 A 
ATOM     17  C   UNL     1      -7.092  13.109  24.105  0.00  0.00    +0.000 C 
ATOM     18  N   UNL     1      -7.916  15.262  23.377  0.00  0.00    +0.000 NA
ATOM     19  O   UNL     1      -7.703  16.163  22.360  0.00  0.00    +0.000 OA
ATOM     20  C   UNL     1      -6.749  15.690  21.519  0.00  0.00    +0.000 A 
ATOM     21  C   UNL     1      -6.407  16.582  20.391  0.00  0.00    +0.000 C 
ENDBRANCH   6  15
BRANCH  12  22
ATOM     22  C   UNL     1      -0.303  10.839  19.935  0.00  0.00    +0.000 A 
ATOM     23  C   UNL     1       0.129   9.979  20.989  0.00  0.00    +0.000 A 
ATOM     24  C   UNL     1      -0.309   8.621  21.391  0.00  0.00    +0.000 C 
ATOM     25  N   UNL     1       1.115  10.537  21.704  0.00  0.00    +0.000 NA
ATOM     26  O   UNL     1       1.422  11.717  21.067  0.00  0.00    +0.000 OA
ATOM     27  C   UNL     1       0.610  11.879  19.992  0.00  0.00    +0.000 A 
ATOM     28  C   UNL     1       0.887  13.067  19.160  0.00  0.00    +0.000 C 
ENDBRANCH  12  22
BRANCH   1  30
ATOM     29  C   UNL     1      -3.418  13.635  24.090  0.00  0.00    +0.000 C 
ATOM     30  O   UNL     1      -3.633  14.361  22.882  0.00  0.00    +0.000 OA
ENDBRANCH   1  30
TORSDOF 3
ENDMDL
