MODEL 1
REMARK VINA RESULT:      -8.1      0.000      0.000
REMARK  Name = 
REMARK  5 active torsions:
REMARK  status: ('A' for Active; 'I' for Inactive)
REMARK    1  A    between atoms: C_4  and  C_5
REMARK    2  A    between atoms: C_5  and  N_6
REMARK    3  A    between atoms: N_9  and  C_10
REMARK    4  A    between atoms: C_19  and  C_20
REMARK    5  A    between atoms: C_19  and  C_26
REMARK                            x       y       z     vdW  Elec       q    Type
REMARK                         _______ _______ _______ _____ _____    ______ ____
ROOT
ATOM      1  O   UNL     1       2.561   6.379  21.108  0.00  0.00    +0.000 OA
ATOM      2  C   UNL     1       2.369   6.789  19.972  0.00  0.00    +0.000 C 
ATOM      3  O   UNL     1       1.930   8.050  19.747  0.00  0.00    +0.000 OA
ATOM      4  C   UNL     1       2.061   8.379  18.418  0.00  0.00    +0.000 C 
ATOM      5  C   UNL     1       2.047   7.024  17.726  0.00  0.00    +0.000 C 
ATOM      6  C   UNL     1       2.789   6.068  18.698  0.00  0.00    +0.000 C 
ENDROOT
BRANCH   6   7
ATOM      7  C   UNL     1       4.313   6.127  18.456  0.00  0.00    +0.000 A 
ATOM      8  C   UNL     1       4.897   6.810  17.359  0.00  0.00    +0.000 A 
ATOM      9  C   UNL     1       6.281   6.788  17.152  0.00  0.00    +0.000 A 
ATOM     10  C   UNL     1       7.111   6.083  18.022  0.00  0.00    +0.000 A 
ATOM     11  C   UNL     1       6.561   5.410  19.111  0.00  0.00    +0.000 A 
ATOM     12  C   UNL     1       5.182   5.439  19.333  0.00  0.00    +0.000 A 
ENDBRANCH   6   7
BRANCH   6  13
ATOM     13  C   UNL     1       2.211   4.639  18.561  0.00  0.00    +0.000 A 
ATOM     14  C   UNL     1       1.221   4.173  19.461  0.00  0.00    +0.000 A 
ATOM     15  C   UNL     1       0.751   2.859  19.407  0.00  0.00    +0.000 A 
ATOM     16  C   UNL     1       1.246   1.978  18.450  0.00  0.00    +0.000 A 
ATOM     17  C   UNL     1       2.201   2.414  17.532  0.00  0.00    +0.000 A 
ATOM     18  C   UNL     1       2.678   3.733  17.580  0.00  0.00    +0.000 A 
ENDBRANCH   6  13
BRANCH   4  19
ATOM     19  C   UNL     1       0.939   9.336  17.950  0.00  0.00    +0.000 C 
BRANCH  19  20
ATOM     20  N   UNL     1       0.122   9.894  19.056  0.00  0.00    +0.000 NA
ATOM     21  C   UNL     1       0.929  10.605  20.066  0.00  0.00    +0.000 C 
ATOM     22  C   UNL     1       1.439  11.960  19.547  0.00  0.00    +0.000 C 
ATOM     23  N   UNL     1       0.350  12.797  19.041  0.00  0.00    +0.000 N 
ATOM     24  C   UNL     1      -0.645  12.132  18.188  0.00  0.00    +0.000 C 
ATOM     25  C   UNL     1      -1.036  10.736  18.702  0.00  0.00    +0.000 C 
BRANCH  23  26
ATOM     26  C   UNL     1       0.588  14.227  18.864  0.00  0.00    +0.000 A 
ATOM     27  C   UNL     1      -0.472  15.176  18.914  0.00  0.00    +0.000 A 
ATOM     28  C   UNL     1      -0.240  16.539  18.714  0.00  0.00    +0.000 A 
ATOM     29  C   UNL     1       1.044  17.009  18.460  0.00  0.00    +0.000 A 
ATOM     30  C   UNL     1       2.108  16.107  18.413  0.00  0.00    +0.000 A 
ATOM     31  C   UNL     1       1.889  14.743  18.616  0.00  0.00    +0.000 A 
ENDBRANCH  23  26
ENDBRANCH  19  20
ENDBRANCH   4  19
TORSDOF 5
ENDMDL
MODEL 2
REMARK VINA RESULT:      -8.1      0.260      1.253
REMARK  Name = 
REMARK  5 active torsions:
REMARK  status: ('A' for Active; 'I' for Inactive)
REMARK    1  A    between atoms: C_4  and  C_5
REMARK    2  A    between atoms: C_5  and  N_6
REMARK    3  A    between atoms: N_9  and  C_10
REMARK    4  A    between atoms: C_19  and  C_20
REMARK    5  A    between atoms: C_19  and  C_26
REMARK                            x       y       z     vdW  Elec       q    Type
REMARK                         _______ _______ _______ _____ _____    ______ ____
ROOT
ATOM      1  O   UNL     1       2.660   6.105  21.032  0.00  0.00    +0.000 OA
ATOM      2  C   UNL     1       2.497   6.571  19.913  0.00  0.00    +0.000 C 
ATOM      3  O   UNL     1       2.048   7.836  19.738  0.00  0.00    +0.000 OA
ATOM      4  C   UNL     1       2.215   8.234  18.432  0.00  0.00    +0.000 C 
ATOM      5  C   UNL     1       2.241   6.915  17.673  0.00  0.00    +0.000 C 
ATOM      6  C   UNL     1       2.967   5.921  18.618  0.00  0.00    +0.000 C 
ENDROOT
BRANCH   6   7
ATOM      7  C   UNL     1       4.497   6.011  18.428  0.00  0.00    +0.000 A 
ATOM      8  C   UNL     1       5.425   5.425  19.326  0.00  0.00    +0.000 A 
ATOM      9  C   UNL     1       6.804   5.581  19.141  0.00  0.00    +0.000 A 
ATOM     10  C   UNL     1       7.288   6.328  18.069  0.00  0.00    +0.000 A 
ATOM     11  C   UNL     1       6.396   6.907  17.168  0.00  0.00    +0.000 A 
ATOM     12  C   UNL     1       5.019   6.744  17.338  0.00  0.00    +0.000 A 
ENDBRANCH   6   7
BRANCH   6  13
ATOM     13  C   UNL     1       2.415   4.493  18.391  0.00  0.00    +0.000 A 
ATOM     14  C   UNL     1       1.268   4.044  19.092  0.00  0.00    +0.000 A 
ATOM     15  C   UNL     1       0.806   2.732  18.965  0.00  0.00    +0.000 A 
ATOM     16  C   UNL     1       1.467   1.836  18.129  0.00  0.00    +0.000 A 
ATOM     17  C   UNL     1       2.582   2.255  17.405  0.00  0.00    +0.000 A 
ATOM     18  C   UNL     1       3.052   3.572  17.527  0.00  0.00    +0.000 A 
ENDBRANCH   6  13
BRANCH   4  19
ATOM     19  C   UNL     1       1.094   9.199  17.977  0.00  0.00    +0.000 C 
BRANCH  19  20
ATOM     20  N   UNL     1       0.286   9.752  19.093  0.00  0.00    +0.000 NA
ATOM     21  C   UNL     1       1.095  10.493  20.077  0.00  0.00    +0.000 C 
ATOM     22  C   UNL     1       1.564  11.853  19.532  0.00  0.00    +0.000 C 
ATOM     23  N   UNL     1       0.446  12.658  19.038  0.00  0.00    +0.000 N 
ATOM     24  C   UNL     1      -0.549  11.960  18.212  0.00  0.00    +0.000 C 
ATOM     25  C   UNL     1      -0.898  10.563  18.750  0.00  0.00    +0.000 C 
BRANCH  23  26
ATOM     26  C   UNL     1       0.648  14.091  18.837  0.00  0.00    +0.000 A 
ATOM     27  C   UNL     1       1.943  14.644  18.627  0.00  0.00    +0.000 A 
ATOM     28  C   UNL     1       2.131  16.019  18.465  0.00  0.00    +0.000 A 
ATOM     29  C   UNL     1       1.049  16.891  18.505  0.00  0.00    +0.000 A 
ATOM     30  C   UNL     1      -0.236  16.382  18.701  0.00  0.00    +0.000 A 
ATOM     31  C   UNL     1      -0.437  15.009  18.859  0.00  0.00    +0.000 A 
ENDBRANCH  23  26
ENDBRANCH  19  20
ENDBRANCH   4  19
TORSDOF 5
ENDMDL
MODEL 3
REMARK VINA RESULT:      -7.9      2.366      9.100
REMARK  Name = 
REMARK  5 active torsions:
REMARK  status: ('A' for Active; 'I' for Inactive)
REMARK    1  A    between atoms: C_4  and  C_5
REMARK    2  A    between atoms: C_5  and  N_6
REMARK    3  A    between atoms: N_9  and  C_10
REMARK    4  A    between atoms: C_19  and  C_20
REMARK    5  A    between atoms: C_19  and  C_26
REMARK                            x       y       z     vdW  Elec       q    Type
REMARK                         _______ _______ _______ _____ _____    ______ ____
ROOT
ATOM      1  O   UNL     1      -0.442  11.639  21.727  0.00  0.00    +0.000 OA
ATOM      2  C   UNL     1       0.072  10.879  20.919  0.00  0.00    +0.000 C 
ATOM      3  O   UNL     1       0.446   9.627  21.273  0.00  0.00    +0.000 OA
ATOM      4  C   UNL     1       0.726   8.871  20.158  0.00  0.00    +0.000 C 
ATOM      5  C   UNL     1       1.086   9.919  19.115  0.00  0.00    +0.000 C 
ATOM      6  C   UNL     1       0.156  11.124  19.418  0.00  0.00    +0.000 C 
ENDROOT
BRANCH   6   7
ATOM      7  C   UNL     1      -1.205  10.949  18.710  0.00  0.00    +0.000 A 
ATOM      8  C   UNL     1      -1.392  10.096  17.592  0.00  0.00    +0.000 A 
ATOM      9  C   UNL     1      -2.633  10.013  16.949  0.00  0.00    +0.000 A 
ATOM     10  C   UNL     1      -3.708  10.780  17.396  0.00  0.00    +0.000 A 
ATOM     11  C   UNL     1      -3.551  11.619  18.497  0.00  0.00    +0.000 A 
ATOM     12  C   UNL     1      -2.319  11.697  19.152  0.00  0.00    +0.000 A 
ENDBRANCH   6   7
BRANCH   6  13
ATOM     13  C   UNL     1       0.872  12.441  19.032  0.00  0.00    +0.000 A 
ATOM     14  C   UNL     1       2.214  12.424  18.576  0.00  0.00    +0.000 A 
ATOM     15  C   UNL     1       2.904  13.608  18.305  0.00  0.00    +0.000 A 
ATOM     16  C   UNL     1       2.274  14.839  18.472  0.00  0.00    +0.000 A 
ATOM     17  C   UNL     1       0.945  14.887  18.892  0.00  0.00    +0.000 A 
ATOM     18  C   UNL     1       0.245  13.702  19.166  0.00  0.00    +0.000 A 
ENDBRANCH   6  13
BRANCH   4  19
ATOM     19  C   UNL     1       1.849   7.842  20.429  0.00  0.00    +0.000 C 
BRANCH  19  20
ATOM     20  N   UNL     1       1.541   6.472  19.947  0.00  0.00    +0.000 NA
ATOM     21  C   UNL     1       1.552   6.364  18.476  0.00  0.00    +0.000 C 
ATOM     22  C   UNL     1       2.978   6.417  17.903  0.00  0.00    +0.000 C 
ATOM     23  N   UNL     1       3.853   5.420  18.523  0.00  0.00    +0.000 N 
ATOM     24  C   UNL     1       3.767   5.291  19.985  0.00  0.00    +0.000 C 
ATOM     25  C   UNL     1       2.322   5.353  20.506  0.00  0.00    +0.000 C 
BRANCH  23  26
ATOM     26  C   UNL     1       5.107   5.076  17.858  0.00  0.00    +0.000 A 
ATOM     27  C   UNL     1       6.371   5.330  18.461  0.00  0.00    +0.000 A 
ATOM     28  C   UNL     1       7.567   5.024  17.806  0.00  0.00    +0.000 A 
ATOM     29  C   UNL     1       7.553   4.459  16.536  0.00  0.00    +0.000 A 
ATOM     30  C   UNL     1       6.331   4.189  15.918  0.00  0.00    +0.000 A 
ATOM     31  C   UNL     1       5.129   4.485  16.565  0.00  0.00    +0.000 A 
ENDBRANCH  23  26
ENDBRANCH  19  20
ENDBRANCH   4  19
TORSDOF 5
ENDMDL
MODEL 4
REMARK VINA RESULT:      -7.9      2.127      3.093
REMARK  Name = 
REMARK  5 active torsions:
REMARK  status: ('A' for Active; 'I' for Inactive)
REMARK    1  A    between atoms: C_4  and  C_5
REMARK    2  A    between atoms: C_5  and  N_6
REMARK    3  A    between atoms: N_9  and  C_10
REMARK    4  A    between atoms: C_19  and  C_20
REMARK    5  A    between atoms: C_19  and  C_26
REMARK                            x       y       z     vdW  Elec       q    Type
REMARK                         _______ _______ _______ _____ _____    ______ ____
ROOT
ATOM      1  O   UNL     1       2.550   6.335  21.239  0.00  0.00    +0.000 OA
ATOM      2  C   UNL     1       2.301   6.789  20.131  0.00  0.00    +0.000 C 
ATOM      3  O   UNL     1       1.839   8.052  19.978  0.00  0.00    +0.000 OA
ATOM      4  C   UNL     1       1.905   8.437  18.659  0.00  0.00    +0.000 C 
ATOM      5  C   UNL     1       1.872   7.110  17.914  0.00  0.00    +0.000 C 
ATOM      6  C   UNL     1       2.669   6.125  18.811  0.00  0.00    +0.000 C 
ENDROOT
BRANCH   6   7
ATOM      7  C   UNL     1       4.180   6.212  18.502  0.00  0.00    +0.000 A 
ATOM      8  C   UNL     1       4.702   6.915  17.386  0.00  0.00    +0.000 A 
ATOM      9  C   UNL     1       6.076   6.919  17.116  0.00  0.00    +0.000 A 
ATOM     10  C   UNL     1       6.956   6.221  17.942  0.00  0.00    +0.000 A 
ATOM     11  C   UNL     1       6.467   5.531  19.049  0.00  0.00    +0.000 A 
ATOM     12  C   UNL     1       5.099   5.533  19.332  0.00  0.00    +0.000 A 
ENDBRANCH   6   7
BRANCH   6  13
ATOM     13  C   UNL     1       2.101   4.696  18.642  0.00  0.00    +0.000 A 
ATOM     14  C   UNL     1       1.167   4.177  19.572  0.00  0.00    +0.000 A 
ATOM     15  C   UNL     1       0.708   2.861  19.485  0.00  0.00    +0.000 A 
ATOM     16  C   UNL     1       1.161   2.029  18.465  0.00  0.00    +0.000 A 
ATOM     17  C   UNL     1       2.060   2.518  17.518  0.00  0.00    +0.000 A 
ATOM     18  C   UNL     1       2.524   3.840  17.598  0.00  0.00    +0.000 A 
ENDBRANCH   6  13
BRANCH   4  19
ATOM     19  C   UNL     1       0.752   9.398  18.283  0.00  0.00    +0.000 C 
BRANCH  19  20
ATOM     20  N   UNL     1       1.042  10.826  18.565  0.00  0.00    +0.000 NA
ATOM     21  C   UNL     1      -0.022  11.732  18.095  0.00  0.00    +0.000 C 
ATOM     22  C   UNL     1      -1.282  11.649  18.973  0.00  0.00    +0.000 C 
ATOM     23  N   UNL     1      -0.977  11.865  20.388  0.00  0.00    +0.000 N 
ATOM     24  C   UNL     1       0.204  11.169  20.918  0.00  0.00    +0.000 C 
ATOM     25  C   UNL     1       1.398  11.196  19.948  0.00  0.00    +0.000 C 
BRANCH  23  26
ATOM     26  C   UNL     1      -2.070  12.190  21.300  0.00  0.00    +0.000 A 
ATOM     27  C   UNL     1      -1.980  11.942  22.699  0.00  0.00    +0.000 A 
ATOM     28  C   UNL     1      -3.042  12.229  23.561  0.00  0.00    +0.000 A 
ATOM     29  C   UNL     1      -4.225  12.771  23.070  0.00  0.00    +0.000 A 
ATOM     30  C   UNL     1      -4.344  13.036  21.705  0.00  0.00    +0.000 A 
ATOM     31  C   UNL     1      -3.288  12.758  20.835  0.00  0.00    +0.000 A 
ENDBRANCH  23  26
ENDBRANCH  19  20
ENDBRANCH   4  19
TORSDOF 5
ENDMDL
MODEL 5
REMARK VINA RESULT:      -7.8      1.953      3.179
REMARK  Name = 
REMARK  5 active torsions:
REMARK  status: ('A' for Active; 'I' for Inactive)
REMARK    1  A    between atoms: C_4  and  C_5
REMARK    2  A    between atoms: C_5  and  N_6
REMARK    3  A    between atoms: N_9  and  C_10
REMARK    4  A    between atoms: C_19  and  C_20
REMARK    5  A    between atoms: C_19  and  C_26
REMARK                            x       y       z     vdW  Elec       q    Type
REMARK                         _______ _______ _______ _____ _____    ______ ____
ROOT
ATOM      1  O   UNL     1       2.759   6.242  21.100  0.00  0.00    +0.000 OA
ATOM      2  C   UNL     1       2.512   6.698  19.993  0.00  0.00    +0.000 C 
ATOM      3  O   UNL     1       2.083   7.973  19.839  0.00  0.00    +0.000 OA
ATOM      4  C   UNL     1       2.146   8.350  18.517  0.00  0.00    +0.000 C 
ATOM      5  C   UNL     1       2.070   7.021  17.779  0.00  0.00    +0.000 C 
ATOM      6  C   UNL     1       2.849   6.019  18.672  0.00  0.00    +0.000 C 
ENDROOT
BRANCH   6   7
ATOM      7  C   UNL     1       4.358   6.064  18.348  0.00  0.00    +0.000 A 
ATOM      8  C   UNL     1       4.882   6.681  17.183  0.00  0.00    +0.000 A 
ATOM      9  C   UNL     1       6.254   6.647  16.906  0.00  0.00    +0.000 A 
ATOM     10  C   UNL     1       7.130   5.996  17.772  0.00  0.00    +0.000 A 
ATOM     11  C   UNL     1       6.640   5.390  18.927  0.00  0.00    +0.000 A 
ATOM     12  C   UNL     1       5.274   5.430  19.218  0.00  0.00    +0.000 A 
ENDBRANCH   6   7
BRANCH   6  13
ATOM     13  C   UNL     1       2.240   4.605  18.515  0.00  0.00    +0.000 A 
ATOM     14  C   UNL     1       1.233   4.151  19.403  0.00  0.00    +0.000 A 
ATOM     15  C   UNL     1       0.734   2.849  19.330  0.00  0.00    +0.000 A 
ATOM     16  C   UNL     1       1.216   1.967  18.367  0.00  0.00    +0.000 A 
ATOM     17  C   UNL     1       2.188   2.392  17.462  0.00  0.00    +0.000 A 
ATOM     18  C   UNL     1       2.695   3.699  17.528  0.00  0.00    +0.000 A 
ENDBRANCH   6  13
BRANCH   4  19
ATOM     19  C   UNL     1       1.017   9.340  18.148  0.00  0.00    +0.000 C 
BRANCH  19  20
ATOM     20  N   UNL     1       0.732  10.349  19.199  0.00  0.00    +0.000 NA
ATOM     21  C   UNL     1       0.467  11.692  18.651  0.00  0.00    +0.000 C 
ATOM     22  C   UNL     1      -0.910  11.777  17.971  0.00  0.00    +0.000 C 
ATOM     23  N   UNL     1      -1.986  11.337  18.861  0.00  0.00    +0.000 N 
ATOM     24  C   UNL     1      -1.740  10.108  19.628  0.00  0.00    +0.000 C 
ATOM     25  C   UNL     1      -0.311  10.033  20.193  0.00  0.00    +0.000 C 
BRANCH  23  26
ATOM     26  C   UNL     1      -3.362  11.697  18.528  0.00  0.00    +0.000 A 
ATOM     27  C   UNL     1      -4.234  12.290  19.484  0.00  0.00    +0.000 A 
ATOM     28  C   UNL     1      -5.559  12.605  19.167  0.00  0.00    +0.000 A 
ATOM     29  C   UNL     1      -6.063  12.345  17.897  0.00  0.00    +0.000 A 
ATOM     30  C   UNL     1      -5.232  11.773  16.933  0.00  0.00    +0.000 A 
ATOM     31  C   UNL     1      -3.906  11.458  17.237  0.00  0.00    +0.000 A 
ENDBRANCH  23  26
ENDBRANCH  19  20
ENDBRANCH   4  19
TORSDOF 5
ENDMDL
MODEL 6
REMARK VINA RESULT:      -7.8      1.953      3.051
REMARK  Name = 
REMARK  5 active torsions:
REMARK  status: ('A' for Active; 'I' for Inactive)
REMARK    1  A    between atoms: C_4  and  C_5
REMARK    2  A    between atoms: C_5  and  N_6
REMARK    3  A    between atoms: N_9  and  C_10
REMARK    4  A    between atoms: C_19  and  C_20
REMARK    5  A    between atoms: C_19  and  C_26
REMARK                            x       y       z     vdW  Elec       q    Type
REMARK                         _______ _______ _______ _____ _____    ______ ____
ROOT
ATOM      1  O   UNL     1       2.812   5.966  21.121  0.00  0.00    +0.000 OA
ATOM      2  C   UNL     1       2.599   6.496  20.040  0.00  0.00    +0.000 C 
ATOM      3  O   UNL     1       2.142   7.768  19.960  0.00  0.00    +0.000 OA
ATOM      4  C   UNL     1       2.252   8.243  18.673  0.00  0.00    +0.000 C 
ATOM      5  C   UNL     1       2.244   6.971  17.837  0.00  0.00    +0.000 C 
ATOM      6  C   UNL     1       3.011   5.925  18.689  0.00  0.00    +0.000 C 
ENDROOT
BRANCH   6   7
ATOM      7  C   UNL     1       4.531   6.031  18.437  0.00  0.00    +0.000 A 
ATOM      8  C   UNL     1       5.085   6.695  17.313  0.00  0.00    +0.000 A 
ATOM      9  C   UNL     1       6.469   6.716  17.099  0.00  0.00    +0.000 A 
ATOM     10  C   UNL     1       7.327   6.074  17.989  0.00  0.00    +0.000 A 
ATOM     11  C   UNL     1       6.807   5.422  19.106  0.00  0.00    +0.000 A 
ATOM     12  C   UNL     1       5.429   5.408  19.333  0.00  0.00    +0.000 A 
ENDBRANCH   6   7
BRANCH   6  13
ATOM     13  C   UNL     1       2.450   4.512  18.402  0.00  0.00    +0.000 A 
ATOM     14  C   UNL     1       1.296   4.044  19.079  0.00  0.00    +0.000 A 
ATOM     15  C   UNL     1       0.825   2.742  18.898  0.00  0.00    +0.000 A 
ATOM     16  C   UNL     1       1.484   1.874  18.031  0.00  0.00    +0.000 A 
ATOM     17  C   UNL     1       2.606   2.313  17.329  0.00  0.00    +0.000 A 
ATOM     18  C   UNL     1       3.085   3.621  17.506  0.00  0.00    +0.000 A 
ENDBRANCH   6  13
BRANCH   4  19
ATOM     19  C   UNL     1       1.112   9.230  18.326  0.00  0.00    +0.000 C 
BRANCH  19  20
ATOM     20  N   UNL     1       1.083  10.442  19.182  0.00  0.00    +0.000 NA
ATOM     21  C   UNL     1       0.729  11.664  18.437  0.00  0.00    +0.000 C 
ATOM     22  C   UNL     1      -0.762  11.700  18.062  0.00  0.00    +0.000 C 
ATOM     23  N   UNL     1      -1.624  11.513  19.230  0.00  0.00    +0.000 N 
ATOM     24  C   UNL     1      -1.237  10.447  20.165  0.00  0.00    +0.000 C 
ATOM     25  C   UNL     1       0.279  10.395  20.418  0.00  0.00    +0.000 C 
BRANCH  23  26
ATOM     26  C   UNL     1      -3.033  11.885  19.130  0.00  0.00    +0.000 A 
ATOM     27  C   UNL     1      -3.833  11.500  18.018  0.00  0.00    +0.000 A 
ATOM     28  C   UNL     1      -5.173  11.884  17.915  0.00  0.00    +0.000 A 
ATOM     29  C   UNL     1      -5.764  12.660  18.905  0.00  0.00    +0.000 A 
ATOM     30  C   UNL     1      -5.011  13.049  20.014  0.00  0.00    +0.000 A 
ATOM     31  C   UNL     1      -3.673  12.666  20.130  0.00  0.00    +0.000 A 
ENDBRANCH  23  26
ENDBRANCH  19  20
ENDBRANCH   4  19
TORSDOF 5
ENDMDL
MODEL 7
REMARK VINA RESULT:      -7.8      3.246      6.480
REMARK  Name = 
REMARK  5 active torsions:
REMARK  status: ('A' for Active; 'I' for Inactive)
REMARK    1  A    between atoms: C_4  and  C_5
REMARK    2  A    between atoms: C_5  and  N_6
REMARK    3  A    between atoms: N_9  and  C_10
REMARK    4  A    between atoms: C_19  and  C_20
REMARK    5  A    between atoms: C_19  and  C_26
REMARK                            x       y       z     vdW  Elec       q    Type
REMARK                         _______ _______ _______ _____ _____    ______ ____
ROOT
ATOM      1  O   UNL     1      -0.731  10.630  21.940  0.00  0.00    +0.000 OA
ATOM      2  C   UNL     1      -0.109  11.272  21.105  0.00  0.00    +0.000 C 
ATOM      3  O   UNL     1       0.771  12.233  21.471  0.00  0.00    +0.000 OA
ATOM      4  C   UNL     1       1.549  12.612  20.401  0.00  0.00    +0.000 C 
ATOM      5  C   UNL     1       0.682  12.252  19.203  0.00  0.00    +0.000 C 
ATOM      6  C   UNL     1      -0.057  10.951  19.617  0.00  0.00    +0.000 C 
ENDROOT
BRANCH   6   7
ATOM      7  C   UNL     1       0.812   9.713  19.305  0.00  0.00    +0.000 A 
ATOM      8  C   UNL     1       1.094   8.705  20.262  0.00  0.00    +0.000 A 
ATOM      9  C   UNL     1       1.933   7.629  19.948  0.00  0.00    +0.000 A 
ATOM     10  C   UNL     1       2.513   7.536  18.684  0.00  0.00    +0.000 A 
ATOM     11  C   UNL     1       2.244   8.510  17.724  0.00  0.00    +0.000 A 
ATOM     12  C   UNL     1       1.397   9.580  18.026  0.00  0.00    +0.000 A 
ENDBRANCH   6   7
BRANCH   6  13
ATOM     13  C   UNL     1      -1.444  10.903  18.932  0.00  0.00    +0.000 A 
ATOM     14  C   UNL     1      -2.427  11.879  19.226  0.00  0.00    +0.000 A 
ATOM     15  C   UNL     1      -3.712  11.803  18.684  0.00  0.00    +0.000 A 
ATOM     16  C   UNL     1      -4.049  10.759  17.827  0.00  0.00    +0.000 A 
ATOM     17  C   UNL     1      -3.094   9.797  17.496  0.00  0.00    +0.000 A 
ATOM     18  C   UNL     1      -1.801   9.867  18.037  0.00  0.00    +0.000 A 
ENDBRANCH   6  13
BRANCH   4  19
ATOM     19  C   UNL     1       1.934  14.108  20.472  0.00  0.00    +0.000 C 
BRANCH  19  20
ATOM     20  N   UNL     1       1.991  14.780  19.150  0.00  0.00    +0.000 NA
ATOM     21  C   UNL     1       2.349  16.207  19.244  0.00  0.00    +0.000 C 
ATOM     22  C   UNL     1       3.835  16.408  19.588  0.00  0.00    +0.000 C 
ATOM     23  N   UNL     1       4.712  15.692  18.661  0.00  0.00    +0.000 N 
ATOM     24  C   UNL     1       4.327  14.315  18.325  0.00  0.00    +0.000 C 
ATOM     25  C   UNL     1       2.814  14.157  18.096  0.00  0.00    +0.000 C 
BRANCH  23  26
ATOM     26  C   UNL     1       6.124  16.063  18.603  0.00  0.00    +0.000 A 
ATOM     27  C   UNL     1       7.103  15.203  18.029  0.00  0.00    +0.000 A 
ATOM     28  C   UNL     1       8.456  15.552  18.004  0.00  0.00    +0.000 A 
ATOM     29  C   UNL     1       8.885  16.760  18.543  0.00  0.00    +0.000 A 
ATOM     30  C   UNL     1       7.951  17.631  19.105  0.00  0.00    +0.000 A 
ATOM     31  C   UNL     1       6.596  17.295  19.132  0.00  0.00    +0.000 A 
ENDBRANCH  23  26
ENDBRANCH  19  20
ENDBRANCH   4  19
TORSDOF 5
ENDMDL
MODEL 8
REMARK VINA RESULT:      -7.7      2.278      9.189
REMARK  Name = 
REMARK  5 active torsions:
REMARK  status: ('A' for Active; 'I' for Inactive)
REMARK    1  A    between atoms: C_4  and  C_5
REMARK    2  A    between atoms: C_5  and  N_6
REMARK    3  A    between atoms: N_9  and  C_10
REMARK    4  A    between atoms: C_19  and  C_20
REMARK    5  A    between atoms: C_19  and  C_26
REMARK                            x       y       z     vdW  Elec       q    Type
REMARK                         _______ _______ _______ _____ _____    ______ ____
ROOT
ATOM      1  O   UNL     1       0.220  12.218  22.088  0.00  0.00    +0.000 OA
ATOM      2  C   UNL     1       0.504  11.437  21.191  0.00  0.00    +0.000 C 
ATOM      3  O   UNL     1       0.789  10.140  21.455  0.00  0.00    +0.000 OA
ATOM      4  C   UNL     1       0.792   9.399  20.295  0.00  0.00    +0.000 C 
ATOM      5  C   UNL     1       1.089  10.440  19.225  0.00  0.00    +0.000 C 
ATOM      6  C   UNL     1       0.364  11.726  19.703  0.00  0.00    +0.000 C 
ENDROOT
BRANCH   6   7
ATOM      7  C   UNL     1      -1.108  11.725  19.233  0.00  0.00    +0.000 A 
ATOM      8  C   UNL     1      -2.167  12.267  20.004  0.00  0.00    +0.000 A 
ATOM      9  C   UNL     1      -3.493  12.192  19.560  0.00  0.00    +0.000 A 
ATOM     10  C   UNL     1      -3.793  11.572  18.348  0.00  0.00    +0.000 A 
ATOM     11  C   UNL     1      -2.768  11.040  17.568  0.00  0.00    +0.000 A 
ATOM     12  C   UNL     1      -1.442  11.123  17.999  0.00  0.00    +0.000 A 
ENDBRANCH   6   7
BRANCH   6  13
ATOM     13  C   UNL     1       1.148  12.972  19.224  0.00  0.00    +0.000 A 
ATOM     14  C   UNL     1       0.565  14.261  19.294  0.00  0.00    +0.000 A 
ATOM     15  C   UNL     1       1.223  15.384  18.788  0.00  0.00    +0.000 A 
ATOM     16  C   UNL     1       2.482  15.255  18.207  0.00  0.00    +0.000 A 
ATOM     17  C   UNL     1       3.093  14.004  18.147  0.00  0.00    +0.000 A 
ATOM     18  C   UNL     1       2.439  12.870  18.654  0.00  0.00    +0.000 A 
ENDBRANCH   6  13
BRANCH   4  19
ATOM     19  C   UNL     1       1.823   8.247  20.353  0.00  0.00    +0.000 C 
BRANCH  19  20
ATOM     20  N   UNL     1       1.465   7.076  19.514  0.00  0.00    +0.000 NA
ATOM     21  C   UNL     1       1.842   7.246  18.099  0.00  0.00    +0.000 C 
ATOM     22  C   UNL     1       3.361   7.135  17.887  0.00  0.00    +0.000 C 
ATOM     23  N   UNL     1       3.900   5.892  18.442  0.00  0.00    +0.000 N 
ATOM     24  C   UNL     1       3.422   5.509  19.778  0.00  0.00    +0.000 C 
ATOM     25  C   UNL     1       1.913   5.744  19.962  0.00  0.00    +0.000 C 
BRANCH  23  26
ATOM     26  C   UNL     1       5.224   5.448  18.014  0.00  0.00    +0.000 A 
ATOM     27  C   UNL     1       5.416   4.713  16.811  0.00  0.00    +0.000 A 
ATOM     28  C   UNL     1       6.682   4.267  16.422  0.00  0.00    +0.000 A 
ATOM     29  C   UNL     1       7.798   4.534  17.207  0.00  0.00    +0.000 A 
ATOM     30  C   UNL     1       7.647   5.261  18.389  0.00  0.00    +0.000 A 
ATOM     31  C   UNL     1       6.388   5.716  18.785  0.00  0.00    +0.000 A 
ENDBRANCH  23  26
ENDBRANCH  19  20
ENDBRANCH   4  19
TORSDOF 5
ENDMDL
MODEL 9
REMARK VINA RESULT:      -7.7      2.420      9.076
REMARK  Name = 
REMARK  5 active torsions:
REMARK  status: ('A' for Active; 'I' for Inactive)
REMARK    1  A    between atoms: C_4  and  C_5
REMARK    2  A    between atoms: C_5  and  N_6
REMARK    3  A    between atoms: N_9  and  C_10
REMARK    4  A    between atoms: C_19  and  C_20
REMARK    5  A    between atoms: C_19  and  C_26
REMARK                            x       y       z     vdW  Elec       q    Type
REMARK                         _______ _______ _______ _____ _____    ______ ____
ROOT
ATOM      1  O   UNL     1      -0.839  10.950  22.006  0.00  0.00    +0.000 OA
ATOM      2  C   UNL     1      -0.142  10.388  21.173  0.00  0.00    +0.000 C 
ATOM      3  O   UNL     1       0.275   9.113  21.353  0.00  0.00    +0.000 OA
ATOM      4  C   UNL     1       0.790   8.601  20.184  0.00  0.00    +0.000 C 
ATOM      5  C   UNL     1       1.221   9.848  19.425  0.00  0.00    +0.000 C 
ATOM      6  C   UNL     1       0.157  10.921  19.778  0.00  0.00    +0.000 C 
ENDROOT
BRANCH   6   7
ATOM      7  C   UNL     1      -1.056  10.814  18.828  0.00  0.00    +0.000 A 
ATOM      8  C   UNL     1      -2.300  11.445  19.087  0.00  0.00    +0.000 A 
ATOM      9  C   UNL     1      -3.388  11.273  18.222  0.00  0.00    +0.000 A 
ATOM     10  C   UNL     1      -3.266  10.467  17.092  0.00  0.00    +0.000 A 
ATOM     11  C   UNL     1      -2.051   9.844  16.812  0.00  0.00    +0.000 A 
ATOM     12  C   UNL     1      -0.957  10.022  17.663  0.00  0.00    +0.000 A 
ENDBRANCH   6   7
BRANCH   6  13
ATOM     13  C   UNL     1       0.812  12.324  19.764  0.00  0.00    +0.000 A 
ATOM     14  C   UNL     1       0.479  13.263  18.757  0.00  0.00    +0.000 A 
ATOM     15  C   UNL     1       1.122  14.501  18.678  0.00  0.00    +0.000 A 
ATOM     16  C   UNL     1       2.106  14.839  19.604  0.00  0.00    +0.000 A 
ATOM     17  C   UNL     1       2.435  13.947  20.623  0.00  0.00    +0.000 A 
ATOM     18  C   UNL     1       1.793  12.702  20.710  0.00  0.00    +0.000 A 
ENDBRANCH   6  13
BRANCH   4  19
ATOM     19  C   UNL     1       1.939   7.600  20.453  0.00  0.00    +0.000 C 
BRANCH  19  20
ATOM     20  N   UNL     1       1.635   6.208  20.036  0.00  0.00    +0.000 NA
ATOM     21  C   UNL     1       1.499   6.062  18.575  0.00  0.00    +0.000 C 
ATOM     22  C   UNL     1       2.855   6.151  17.856  0.00  0.00    +0.000 C 
ATOM     23  N   UNL     1       3.826   5.202  18.404  0.00  0.00    +0.000 N 
ATOM     24  C   UNL     1       3.897   5.109  19.868  0.00  0.00    +0.000 C 
ATOM     25  C   UNL     1       2.511   5.132  20.536  0.00  0.00    +0.000 C 
BRANCH  23  26
ATOM     26  C   UNL     1       5.017   4.886  17.619  0.00  0.00    +0.000 A 
ATOM     27  C   UNL     1       6.326   4.982  18.170  0.00  0.00    +0.000 A 
ATOM     28  C   UNL     1       7.462   4.706  17.405  0.00  0.00    +0.000 A 
ATOM     29  C   UNL     1       7.342   4.324  16.073  0.00  0.00    +0.000 A 
ATOM     30  C   UNL     1       6.073   4.211  15.503  0.00  0.00    +0.000 A 
ATOM     31  C   UNL     1       4.931   4.480  16.260  0.00  0.00    +0.000 A 
ENDBRANCH  23  26
ENDBRANCH  19  20
ENDBRANCH   4  19
TORSDOF 5
ENDMDL
