MODEL 1
REMARK VINA RESULT:      -8.2      0.000      0.000
REMARK  Name = 
REMARK  10 active torsions:
REMARK  status: ('A' for Active; 'I' for Inactive)
REMARK    1  A    between atoms: C_1  and  C_2
REMARK    2  A    between atoms: C_2  and  O_3
REMARK    3  A    between atoms: O_3  and  C_4
REMARK    4  A    between atoms: C_7  and  C_8
REMARK    5  A    between atoms: C_8  and  N_9
REMARK    6  A    between atoms: C_10  and  C_12
REMARK    7  A    between atoms: C_12  and  C_13
REMARK    8  A    between atoms: C_13  and  C_14
REMARK    9  A    between atoms: C_15  and  C_16
REMARK   10  A    between atoms: C_31  and  C_32
REMARK                            x       y       z     vdW  Elec       q    Type
REMARK                         _______ _______ _______ _____ _____    ______ ____
ROOT
ATOM      1  C   UNL     1       3.527   6.044  18.533  0.00  0.00    +0.000 A 
ATOM      2  C   UNL     1       3.737   7.092  17.604  0.00  0.00    +0.000 A 
ATOM      3  C   UNL     1       4.753   7.212  16.527  0.00  0.00    +0.000 C 
ATOM      4  N   UNL     1       2.863   8.086  17.772  0.00  0.00    +0.000 NA
ATOM      5  N   UNL     1       2.173   7.774  18.907  0.00  0.00    +0.000 N 
ATOM      6  C   UNL     1       1.318   8.753  19.501  0.00  0.00    +0.000 A 
ATOM      7  C   UNL     1       1.086   9.956  18.855  0.00  0.00    +0.000 A 
ATOM      8  C   UNL     1       0.299  10.924  19.486  0.00  0.00    +0.000 A 
ATOM      9  C   UNL     1      -0.233  10.693  20.748  0.00  0.00    +0.000 A 
ATOM     10  N   UNL     1      -1.027  11.601  21.404  0.00  0.00    +0.000 N 
ATOM     11  C   UNL     1      -1.045  11.603  22.874  0.00  0.00    +0.000 C 
ATOM     12  C   UNL     1      -2.474  11.871  23.371  0.00  0.00    +0.000 C 
ATOM     13  O   UNL     1      -3.019  13.073  22.796  0.00  0.00    +0.000 OA
ATOM     14  C   UNL     1      -3.041  12.976  21.363  0.00  0.00    +0.000 C 
ATOM     15  C   UNL     1      -1.627  12.783  20.788  0.00  0.00    +0.000 C 
ATOM     16  N   UNL     1       0.023   9.503  21.332  0.00  0.00    +0.000 NA
ATOM     17  N   UNL     1       0.789   8.529  20.716  0.00  0.00    +0.000 NA
ATOM     18  C   UNL     1       2.480   6.489  19.334  0.00  0.00    +0.000 A 
ATOM     19  C   UNL     1       1.834   5.771  20.469  0.00  0.00    +0.000 C 
ENDROOT
BRANCH   1  20
ATOM     20  C   UNL     1       4.280   4.757  18.681  0.00  0.00    +0.000 C 
BRANCH  20  21
ATOM     21  C   UNL     1       5.581   4.907  19.468  0.00  0.00    +0.000 C 
BRANCH  21  23
ATOM     22  N   UNL     1       6.485   4.731  17.228  0.00  0.00    +0.000 N 
ATOM     23  C   UNL     1       6.776   5.033  18.540  0.00  0.00    +0.000 C 
ATOM     24  O   UNL     1       7.889   5.376  18.923  0.00  0.00    +0.000 OA
ATOM     25  H   UNL     1       5.538   4.495  16.965  0.00  0.00    +0.000 HD
BRANCH  22  26
ATOM     26  C   UNL     1       7.465   4.865  16.172  0.00  0.00    +0.000 C 
BRANCH  26  30
ATOM     27  C   UNL     1       5.847   3.789  12.307  0.00  0.00    +0.000 A 
ATOM     28  C   UNL     1       5.115   3.549  13.470  0.00  0.00    +0.000 A 
ATOM     29  C   UNL     1       5.641   3.878  14.723  0.00  0.00    +0.000 A 
ATOM     30  C   UNL     1       6.921   4.437  14.833  0.00  0.00    +0.000 A 
ATOM     31  C   UNL     1       7.665   4.642  13.661  0.00  0.00    +0.000 A 
ATOM     32  C   UNL     1       7.136   4.313  12.407  0.00  0.00    +0.000 A 
BRANCH  27  33
ATOM     33  O   UNL     1       5.206   3.464  11.144  0.00  0.00    +0.000 OA
BRANCH  33  35
ATOM     34  C   UNL     1       3.139   3.870  10.032  0.00  0.00    +0.000 C 
ATOM     35  C   UNL     1       3.800   3.226  11.237  0.00  0.00    +0.000 C 
ENDBRANCH  33  35
ENDBRANCH  27  33
ENDBRANCH  26  30
ENDBRANCH  22  26
ENDBRANCH  21  23
ENDBRANCH  20  21
ENDBRANCH   1  20
TORSDOF 7
ENDMDL
MODEL 2
REMARK VINA RESULT:      -8.1      3.621      9.647
REMARK  Name = 
REMARK  10 active torsions:
REMARK  status: ('A' for Active; 'I' for Inactive)
REMARK    1  A    between atoms: C_1  and  C_2
REMARK    2  A    between atoms: C_2  and  O_3
REMARK    3  A    between atoms: O_3  and  C_4
REMARK    4  A    between atoms: C_7  and  C_8
REMARK    5  A    between atoms: C_8  and  N_9
REMARK    6  A    between atoms: C_10  and  C_12
REMARK    7  A    between atoms: C_12  and  C_13
REMARK    8  A    between atoms: C_13  and  C_14
REMARK    9  A    between atoms: C_15  and  C_16
REMARK   10  A    between atoms: C_31  and  C_32
REMARK                            x       y       z     vdW  Elec       q    Type
REMARK                         _______ _______ _______ _____ _____    ______ ____
ROOT
ATOM      1  C   UNL     1       0.510  11.587  20.946  0.00  0.00    +0.000 A 
ATOM      2  C   UNL     1       0.789  11.817  19.576  0.00  0.00    +0.000 A 
ATOM      3  C   UNL     1       0.508  13.013  18.742  0.00  0.00    +0.000 C 
ATOM      4  N   UNL     1       1.390  10.770  19.010  0.00  0.00    +0.000 NA
ATOM      5  N   UNL     1       1.374   9.786  19.956  0.00  0.00    +0.000 N 
ATOM      6  C   UNL     1       1.731   8.452  19.589  0.00  0.00    +0.000 A 
ATOM      7  C   UNL     1       2.223   8.189  18.322  0.00  0.00    +0.000 A 
ATOM      8  C   UNL     1       2.503   6.867  17.964  0.00  0.00    +0.000 A 
ATOM      9  C   UNL     1       2.281   5.828  18.859  0.00  0.00    +0.000 A 
ATOM     10  N   UNL     1       2.558   4.515  18.567  0.00  0.00    +0.000 N 
ATOM     11  C   UNL     1       1.782   3.458  19.229  0.00  0.00    +0.000 C 
ATOM     12  C   UNL     1       2.705   2.278  19.570  0.00  0.00    +0.000 C 
ATOM     13  O   UNL     1       3.421   1.813  18.411  0.00  0.00    +0.000 OA
ATOM     14  C   UNL     1       4.215   2.874  17.856  0.00  0.00    +0.000 C 
ATOM     15  C   UNL     1       3.343   4.064  17.420  0.00  0.00    +0.000 C 
ATOM     16  N   UNL     1       1.803   6.141  20.083  0.00  0.00    +0.000 NA
ATOM     17  N   UNL     1       1.533   7.446  20.456  0.00  0.00    +0.000 NA
ATOM     18  C   UNL     1       0.941  10.285  21.177  0.00  0.00    +0.000 A 
ATOM     19  C   UNL     1       0.905   9.530  22.462  0.00  0.00    +0.000 C 
ENDROOT
BRANCH   1  20
ATOM     20  C   UNL     1      -0.148  12.499  21.935  0.00  0.00    +0.000 C 
BRANCH  20  21
ATOM     21  C   UNL     1      -1.414  11.907  22.552  0.00  0.00    +0.000 C 
BRANCH  21  23
ATOM     22  N   UNL     1      -2.594  12.009  20.440  0.00  0.00    +0.000 N 
ATOM     23  C   UNL     1      -2.652  12.325  21.780  0.00  0.00    +0.000 C 
ATOM     24  O   UNL     1      -3.611  12.885  22.300  0.00  0.00    +0.000 OA
ATOM     25  H   UNL     1      -1.795  11.510  20.076  0.00  0.00    +0.000 HD
BRANCH  22  26
ATOM     26  C   UNL     1      -3.704  12.252  19.543  0.00  0.00    +0.000 C 
BRANCH  26  30
ATOM     27  C   UNL     1      -3.094  10.402  15.680  0.00  0.00    +0.000 A 
ATOM     28  C   UNL     1      -4.250  11.143  15.934  0.00  0.00    +0.000 A 
ATOM     29  C   UNL     1      -4.461  11.726  17.186  0.00  0.00    +0.000 A 
ATOM     30  C   UNL     1      -3.523  11.564  18.214  0.00  0.00    +0.000 A 
ATOM     31  C   UNL     1      -2.381  10.788  17.962  0.00  0.00    +0.000 A 
ATOM     32  C   UNL     1      -2.171  10.204  16.707  0.00  0.00    +0.000 A 
BRANCH  27  33
ATOM     33  O   UNL     1      -2.986   9.920  14.405  0.00  0.00    +0.000 OA
BRANCH  33  35
ATOM     34  C   UNL     1      -3.860   9.823  12.192  0.00  0.00    +0.000 C 
ATOM     35  C   UNL     1      -4.204   9.786  13.670  0.00  0.00    +0.000 C 
ENDBRANCH  33  35
ENDBRANCH  27  33
ENDBRANCH  26  30
ENDBRANCH  22  26
ENDBRANCH  21  23
ENDBRANCH  20  21
ENDBRANCH   1  20
TORSDOF 7
ENDMDL
MODEL 3
REMARK VINA RESULT:      -8.0      2.809      5.107
REMARK  Name = 
REMARK  10 active torsions:
REMARK  status: ('A' for Active; 'I' for Inactive)
REMARK    1  A    between atoms: C_1  and  C_2
REMARK    2  A    between atoms: C_2  and  O_3
REMARK    3  A    between atoms: O_3  and  C_4
REMARK    4  A    between atoms: C_7  and  C_8
REMARK    5  A    between atoms: C_8  and  N_9
REMARK    6  A    between atoms: C_10  and  C_12
REMARK    7  A    between atoms: C_12  and  C_13
REMARK    8  A    between atoms: C_13  and  C_14
REMARK    9  A    between atoms: C_15  and  C_16
REMARK   10  A    between atoms: C_31  and  C_32
REMARK                            x       y       z     vdW  Elec       q    Type
REMARK                         _______ _______ _______ _____ _____    ______ ____
ROOT
ATOM      1  C   UNL     1       2.671   4.399  19.459  0.00  0.00    +0.000 A 
ATOM      2  C   UNL     1       1.854   4.283  20.610  0.00  0.00    +0.000 A 
ATOM      3  C   UNL     1       1.370   3.065  21.309  0.00  0.00    +0.000 C 
ATOM      4  N   UNL     1       1.500   5.477  21.089  0.00  0.00    +0.000 NA
ATOM      5  N   UNL     1       1.949   6.383  20.172  0.00  0.00    +0.000 N 
ATOM      6  C   UNL     1       1.527   7.745  20.265  0.00  0.00    +0.000 A 
ATOM      7  C   UNL     1       0.782   8.168  21.352  0.00  0.00    +0.000 A 
ATOM      8  C   UNL     1       0.324   9.489  21.389  0.00  0.00    +0.000 A 
ATOM      9  C   UNL     1       0.599  10.363  20.345  0.00  0.00    +0.000 A 
ATOM     10  N   UNL     1       0.190  11.674  20.339  0.00  0.00    +0.000 N 
ATOM     11  C   UNL     1      -0.045  12.342  19.051  0.00  0.00    +0.000 C 
ATOM     12  C   UNL     1       0.447  13.796  19.129  0.00  0.00    +0.000 C 
ATOM     13  O   UNL     1      -0.136  14.495  20.244  0.00  0.00    +0.000 OA
ATOM     14  C   UNL     1       0.193  13.832  21.475  0.00  0.00    +0.000 C 
ATOM     15  C   UNL     1      -0.339  12.389  21.499  0.00  0.00    +0.000 C 
ATOM     16  N   UNL     1       1.331   9.900  19.310  0.00  0.00    +0.000 NA
ATOM     17  N   UNL     1       1.802   8.599  19.265  0.00  0.00    +0.000 NA
ATOM     18  C   UNL     1       2.756   5.767  19.225  0.00  0.00    +0.000 A 
ATOM     19  C   UNL     1       3.512   6.459  18.143  0.00  0.00    +0.000 C 
ENDROOT
BRANCH   1  20
ATOM     20  C   UNL     1       3.279   3.311  18.627  0.00  0.00    +0.000 C 
BRANCH  20  21
ATOM     21  C   UNL     1       3.193   3.581  17.126  0.00  0.00    +0.000 C 
BRANCH  21  23
ATOM     22  N   UNL     1       5.557   3.958  17.488  0.00  0.00    +0.000 N 
ATOM     23  C   UNL     1       4.537   4.007  16.563  0.00  0.00    +0.000 C 
ATOM     24  O   UNL     1       4.698   4.355  15.399  0.00  0.00    +0.000 OA
ATOM     25  H   UNL     1       5.373   3.623  18.423  0.00  0.00    +0.000 HD
BRANCH  22  26
ATOM     26  C   UNL     1       6.931   4.250  17.134  0.00  0.00    +0.000 C 
BRANCH  26  30
ATOM     27  C   UNL     1       8.336   8.110  18.489  0.00  0.00    +0.000 A 
ATOM     28  C   UNL     1       8.457   6.987  19.309  0.00  0.00    +0.000 A 
ATOM     29  C   UNL     1       7.988   5.741  18.884  0.00  0.00    +0.000 A 
ATOM     30  C   UNL     1       7.372   5.602  17.633  0.00  0.00    +0.000 A 
ATOM     31  C   UNL     1       7.221   6.743  16.830  0.00  0.00    +0.000 A 
ATOM     32  C   UNL     1       7.693   7.990  17.258  0.00  0.00    +0.000 A 
BRANCH  27  33
ATOM     33  O   UNL     1       8.873   9.259  19.001  0.00  0.00    +0.000 OA
BRANCH  33  35
ATOM     34  C   UNL     1       9.850  11.413  18.722  0.00  0.00    +0.000 C 
ATOM     35  C   UNL     1       8.890  10.394  18.134  0.00  0.00    +0.000 C 
ENDBRANCH  33  35
ENDBRANCH  27  33
ENDBRANCH  26  30
ENDBRANCH  22  26
ENDBRANCH  21  23
ENDBRANCH  20  21
ENDBRANCH   1  20
TORSDOF 7
ENDMDL
MODEL 4
REMARK VINA RESULT:      -8.0      2.765      5.026
REMARK  Name = 
REMARK  10 active torsions:
REMARK  status: ('A' for Active; 'I' for Inactive)
REMARK    1  A    between atoms: C_1  and  C_2
REMARK    2  A    between atoms: C_2  and  O_3
REMARK    3  A    between atoms: O_3  and  C_4
REMARK    4  A    between atoms: C_7  and  C_8
REMARK    5  A    between atoms: C_8  and  N_9
REMARK    6  A    between atoms: C_10  and  C_12
REMARK    7  A    between atoms: C_12  and  C_13
REMARK    8  A    between atoms: C_13  and  C_14
REMARK    9  A    between atoms: C_15  and  C_16
REMARK   10  A    between atoms: C_31  and  C_32
REMARK                            x       y       z     vdW  Elec       q    Type
REMARK                         _______ _______ _______ _____ _____    ______ ____
ROOT
ATOM      1  C   UNL     1       3.077   3.975  19.969  0.00  0.00    +0.000 A 
ATOM      2  C   UNL     1       2.042   3.832  20.924  0.00  0.00    +0.000 A 
ATOM      3  C   UNL     1       1.492   2.601  21.547  0.00  0.00    +0.000 C 
ATOM      4  N   UNL     1       1.525   5.011  21.274  0.00  0.00    +0.000 NA
ATOM      5  N   UNL     1       2.105   5.924  20.442  0.00  0.00    +0.000 N 
ATOM      6  C   UNL     1       1.594   7.257  20.394  0.00  0.00    +0.000 A 
ATOM      7  C   UNL     1       0.610   7.656  21.283  0.00  0.00    +0.000 A 
ATOM      8  C   UNL     1       0.079   8.944  21.175  0.00  0.00    +0.000 A 
ATOM      9  C   UNL     1       0.519   9.810  20.182  0.00  0.00    +0.000 A 
ATOM     10  N   UNL     1       0.045  11.092  20.043  0.00  0.00    +0.000 N 
ATOM     11  C   UNL     1       0.052  11.715  18.712  0.00  0.00    +0.000 C 
ATOM     12  C   UNL     1       0.430  13.198  18.840  0.00  0.00    +0.000 C 
ATOM     13  O   UNL     1      -0.418  13.883  19.780  0.00  0.00    +0.000 OA
ATOM     14  C   UNL     1      -0.322  13.270  21.076  0.00  0.00    +0.000 C 
ATOM     15  C   UNL     1      -0.761  11.797  21.038  0.00  0.00    +0.000 C 
ATOM     16  N   UNL     1       1.481   9.373  19.343  0.00  0.00    +0.000 NA
ATOM     17  N   UNL     1       2.026   8.104  19.446  0.00  0.00    +0.000 NA
ATOM     18  C   UNL     1       3.131   5.340  19.710  0.00  0.00    +0.000 A 
ATOM     19  C   UNL     1       4.059   6.055  18.789  0.00  0.00    +0.000 C 
ENDROOT
BRANCH   1  20
ATOM     20  C   UNL     1       3.911   2.910  19.324  0.00  0.00    +0.000 C 
BRANCH  20  21
ATOM     21  C   UNL     1       3.512   2.625  17.877  0.00  0.00    +0.000 C 
BRANCH  21  23
ATOM     22  N   UNL     1       5.645   3.542  17.189  0.00  0.00    +0.000 N 
ATOM     23  C   UNL     1       4.298   3.489  16.907  0.00  0.00    +0.000 C 
ATOM     24  O   UNL     1       3.782   4.077  15.963  0.00  0.00    +0.000 OA
ATOM     25  H   UNL     1       6.020   3.002  17.956  0.00  0.00    +0.000 HD
BRANCH  22  26
ATOM     26  C   UNL     1       6.581   4.248  16.339  0.00  0.00    +0.000 C 
BRANCH  26  30
ATOM     27  C   UNL     1       8.184   7.701  18.394  0.00  0.00    +0.000 A 
ATOM     28  C   UNL     1       7.743   7.807  17.075  0.00  0.00    +0.000 A 
ATOM     29  C   UNL     1       7.242   6.690  16.400  0.00  0.00    +0.000 A 
ATOM     30  C   UNL     1       7.190   5.440  17.032  0.00  0.00    +0.000 A 
ATOM     31  C   UNL     1       7.668   5.335  18.347  0.00  0.00    +0.000 A 
ATOM     32  C   UNL     1       8.169   6.455  19.022  0.00  0.00    +0.000 A 
BRANCH  27  33
ATOM     33  O   UNL     1       8.610   8.872  18.956  0.00  0.00    +0.000 OA
BRANCH  33  35
ATOM     34  C   UNL     1       9.704  10.844  18.188  0.00  0.00    +0.000 C 
ATOM     35  C   UNL     1       8.404  10.058  18.187  0.00  0.00    +0.000 C 
ENDBRANCH  33  35
ENDBRANCH  27  33
ENDBRANCH  26  30
ENDBRANCH  22  26
ENDBRANCH  21  23
ENDBRANCH  20  21
ENDBRANCH   1  20
TORSDOF 7
ENDMDL
MODEL 5
REMARK VINA RESULT:      -8.0      3.296      4.984
REMARK  Name = 
REMARK  10 active torsions:
REMARK  status: ('A' for Active; 'I' for Inactive)
REMARK    1  A    between atoms: C_1  and  C_2
REMARK    2  A    between atoms: C_2  and  O_3
REMARK    3  A    between atoms: O_3  and  C_4
REMARK    4  A    between atoms: C_7  and  C_8
REMARK    5  A    between atoms: C_8  and  N_9
REMARK    6  A    between atoms: C_10  and  C_12
REMARK    7  A    between atoms: C_12  and  C_13
REMARK    8  A    between atoms: C_13  and  C_14
REMARK    9  A    between atoms: C_15  and  C_16
REMARK   10  A    between atoms: C_31  and  C_32
REMARK                            x       y       z     vdW  Elec       q    Type
REMARK                         _______ _______ _______ _____ _____    ______ ____
ROOT
ATOM      1  C   UNL     1       2.350   6.061  18.958  0.00  0.00    +0.000 A 
ATOM      2  C   UNL     1       1.935   5.666  20.254  0.00  0.00    +0.000 A 
ATOM      3  C   UNL     1       1.861   4.308  20.851  0.00  0.00    +0.000 C 
ATOM      4  N   UNL     1       1.571   6.712  20.997  0.00  0.00    +0.000 NA
ATOM      5  N   UNL     1       1.593   7.784  20.152  0.00  0.00    +0.000 N 
ATOM      6  C   UNL     1       1.026   9.025  20.576  0.00  0.00    +0.000 A 
ATOM      7  C   UNL     1       0.583   9.177  21.879  0.00  0.00    +0.000 A 
ATOM      8  C   UNL     1      -0.028  10.378  22.252  0.00  0.00    +0.000 A 
ATOM      9  C   UNL     1      -0.203  11.400  21.329  0.00  0.00    +0.000 A 
ATOM     10  N   UNL     1      -0.780  12.606  21.647  0.00  0.00    +0.000 N 
ATOM     11  C   UNL     1      -1.479  13.361  20.598  0.00  0.00    +0.000 C 
ATOM     12  C   UNL     1      -1.201  14.862  20.772  0.00  0.00    +0.000 C 
ATOM     13  O   UNL     1      -1.522  15.310  22.102  0.00  0.00    +0.000 OA
ATOM     14  C   UNL     1      -0.752  14.584  23.073  0.00  0.00    +0.000 C 
ATOM     15  C   UNL     1      -1.039  13.074  23.007  0.00  0.00    +0.000 C 
ATOM     16  N   UNL     1       0.248  11.201  20.072  0.00  0.00    +0.000 NA
ATOM     17  N   UNL     1       0.867  10.023  19.691  0.00  0.00    +0.000 NA
ATOM     18  C   UNL     1       2.164   7.439  18.935  0.00  0.00    +0.000 A 
ATOM     19  C   UNL     1       2.458   8.377  17.814  0.00  0.00    +0.000 C 
ENDROOT
BRANCH   1  20
ATOM     20  C   UNL     1       2.834   5.205  17.828  0.00  0.00    +0.000 C 
BRANCH  20  21
ATOM     21  C   UNL     1       3.270   3.809  18.271  0.00  0.00    +0.000 C 
BRANCH  21  23
ATOM     22  N   UNL     1       5.540   4.217  17.534  0.00  0.00    +0.000 N 
ATOM     23  C   UNL     1       4.757   3.765  18.574  0.00  0.00    +0.000 C 
ATOM     24  O   UNL     1       5.213   3.371  19.641  0.00  0.00    +0.000 OA
ATOM     25  H   UNL     1       5.105   4.570  16.693  0.00  0.00    +0.000 HD
BRANCH  22  26
ATOM     26  C   UNL     1       6.979   4.330  17.648  0.00  0.00    +0.000 C 
BRANCH  26  30
ATOM     27  C   UNL     1       8.128   8.455  18.262  0.00  0.00    +0.000 A 
ATOM     28  C   UNL     1       7.420   8.082  17.119  0.00  0.00    +0.000 A 
ATOM     29  C   UNL     1       7.063   6.748  16.906  0.00  0.00    +0.000 A 
ATOM     30  C   UNL     1       7.425   5.758  17.830  0.00  0.00    +0.000 A 
ATOM     31  C   UNL     1       8.168   6.136  18.960  0.00  0.00    +0.000 A 
ATOM     32  C   UNL     1       8.524   7.474  19.171  0.00  0.00    +0.000 A 
BRANCH  27  33
ATOM     33  O   UNL     1       8.379   9.794  18.375  0.00  0.00    +0.000 OA
BRANCH  33  35
ATOM     34  C   UNL     1       9.257  11.184  20.099  0.00  0.00    +0.000 C 
ATOM     35  C   UNL     1       9.595  10.161  19.029  0.00  0.00    +0.000 C 
ENDBRANCH  33  35
ENDBRANCH  27  33
ENDBRANCH  26  30
ENDBRANCH  22  26
ENDBRANCH  21  23
ENDBRANCH  20  21
ENDBRANCH   1  20
TORSDOF 7
ENDMDL
MODEL 6
REMARK VINA RESULT:      -7.9      2.465      4.294
REMARK  Name = 
REMARK  10 active torsions:
REMARK  status: ('A' for Active; 'I' for Inactive)
REMARK    1  A    between atoms: C_1  and  C_2
REMARK    2  A    between atoms: C_2  and  O_3
REMARK    3  A    between atoms: O_3  and  C_4
REMARK    4  A    between atoms: C_7  and  C_8
REMARK    5  A    between atoms: C_8  and  N_9
REMARK    6  A    between atoms: C_10  and  C_12
REMARK    7  A    between atoms: C_12  and  C_13
REMARK    8  A    between atoms: C_13  and  C_14
REMARK    9  A    between atoms: C_15  and  C_16
REMARK   10  A    between atoms: C_31  and  C_32
REMARK                            x       y       z     vdW  Elec       q    Type
REMARK                         _______ _______ _______ _____ _____    ______ ____
ROOT
ATOM      1  C   UNL     1       1.039   8.933  20.486  0.00  0.00    +0.000 A 
ATOM      2  C   UNL     1       0.761   9.597  19.266  0.00  0.00    +0.000 A 
ATOM      3  C   UNL     1       1.313   9.352  17.909  0.00  0.00    +0.000 C 
ATOM      4  N   UNL     1      -0.133  10.573  19.426  0.00  0.00    +0.000 NA
ATOM      5  N   UNL     1      -0.335  10.664  20.772  0.00  0.00    +0.000 N 
ATOM      6  C   UNL     1      -1.063  11.774  21.301  0.00  0.00    +0.000 A 
ATOM      7  C   UNL     1      -1.674  12.675  20.445  0.00  0.00    +0.000 A 
ATOM      8  C   UNL     1      -2.324  13.790  20.983  0.00  0.00    +0.000 A 
ATOM      9  C   UNL     1      -2.346  14.002  22.356  0.00  0.00    +0.000 A 
ATOM     10  N   UNL     1      -2.986  15.068  22.938  0.00  0.00    +0.000 N 
ATOM     11  C   UNL     1      -2.494  15.579  24.225  0.00  0.00    +0.000 C 
ATOM     12  C   UNL     1      -3.685  15.981  25.109  0.00  0.00    +0.000 C 
ATOM     13  O   UNL     1      -4.562  16.900  24.432  0.00  0.00    +0.000 OA
ATOM     14  C   UNL     1      -5.064  16.312  23.222  0.00  0.00    +0.000 C 
ATOM     15  C   UNL     1      -3.925  15.954  22.252  0.00  0.00    +0.000 C 
ATOM     16  N   UNL     1      -1.737  13.092  23.145  0.00  0.00    +0.000 NA
ATOM     17  N   UNL     1      -1.100  11.977  22.628  0.00  0.00    +0.000 NA
ATOM     18  C   UNL     1       0.281   9.611  21.435  0.00  0.00    +0.000 A 
ATOM     19  C   UNL     1       0.179   9.321  22.893  0.00  0.00    +0.000 C 
ENDROOT
BRANCH   1  20
ATOM     20  C   UNL     1       1.972   7.789  20.740  0.00  0.00    +0.000 C 
BRANCH  20  21
ATOM     21  C   UNL     1       1.331   6.423  20.500  0.00  0.00    +0.000 C 
BRANCH  21  23
ATOM     22  N   UNL     1       3.581   5.857  19.807  0.00  0.00    +0.000 N 
ATOM     23  C   UNL     1       2.382   5.354  20.260  0.00  0.00    +0.000 C 
ATOM     24  O   UNL     1       2.182   4.160  20.455  0.00  0.00    +0.000 OA
ATOM     25  H   UNL     1       3.701   6.855  19.705  0.00  0.00    +0.000 HD
BRANCH  22  26
ATOM     26  C   UNL     1       4.738   5.013  19.592  0.00  0.00    +0.000 C 
BRANCH  26  30
ATOM     27  C   UNL     1       6.085   4.860  15.484  0.00  0.00    +0.000 A 
ATOM     28  C   UNL     1       6.659   5.760  16.381  0.00  0.00    +0.000 A 
ATOM     29  C   UNL     1       6.215   5.827  17.705  0.00  0.00    +0.000 A 
ATOM     30  C   UNL     1       5.172   5.002  18.148  0.00  0.00    +0.000 A 
ATOM     31  C   UNL     1       4.576   4.125  17.230  0.00  0.00    +0.000 A 
ATOM     32  C   UNL     1       5.023   4.059  15.904  0.00  0.00    +0.000 A 
BRANCH  27  33
ATOM     33  O   UNL     1       6.636   4.861  14.232  0.00  0.00    +0.000 OA
BRANCH  33  35
ATOM     34  C   UNL     1       7.016   3.949  12.065  0.00  0.00    +0.000 C 
ATOM     35  C   UNL     1       6.242   3.798  13.363  0.00  0.00    +0.000 C 
ENDBRANCH  33  35
ENDBRANCH  27  33
ENDBRANCH  26  30
ENDBRANCH  22  26
ENDBRANCH  21  23
ENDBRANCH  20  21
ENDBRANCH   1  20
TORSDOF 7
ENDMDL
MODEL 7
REMARK VINA RESULT:      -7.9      3.045     10.280
REMARK  Name = 
REMARK  10 active torsions:
REMARK  status: ('A' for Active; 'I' for Inactive)
REMARK    1  A    between atoms: C_1  and  C_2
REMARK    2  A    between atoms: C_2  and  O_3
REMARK    3  A    between atoms: O_3  and  C_4
REMARK    4  A    between atoms: C_7  and  C_8
REMARK    5  A    between atoms: C_8  and  N_9
REMARK    6  A    between atoms: C_10  and  C_12
REMARK    7  A    between atoms: C_12  and  C_13
REMARK    8  A    between atoms: C_13  and  C_14
REMARK    9  A    between atoms: C_15  and  C_16
REMARK   10  A    between atoms: C_31  and  C_32
REMARK                            x       y       z     vdW  Elec       q    Type
REMARK                         _______ _______ _______ _____ _____    ______ ____
ROOT
ATOM      1  C   UNL     1       0.271  10.697  21.346  0.00  0.00    +0.000 A 
ATOM      2  C   UNL     1       0.316   9.593  22.232  0.00  0.00    +0.000 A 
ATOM      3  C   UNL     1      -0.078   9.510  23.662  0.00  0.00    +0.000 C 
ATOM      4  N   UNL     1       0.792   8.499  21.637  0.00  0.00    +0.000 NA
ATOM      5  N   UNL     1       1.209   8.909  20.403  0.00  0.00    +0.000 N 
ATOM      6  C   UNL     1       1.989   8.026  19.595  0.00  0.00    +0.000 A 
ATOM      7  C   UNL     1       2.202   6.719  20.001  0.00  0.00    +0.000 A 
ATOM      8  C   UNL     1       3.023   5.893  19.227  0.00  0.00    +0.000 A 
ATOM      9  C   UNL     1       3.629   6.376  18.074  0.00  0.00    +0.000 A 
ATOM     10  N   UNL     1       4.427   5.603  17.267  0.00  0.00    +0.000 N 
ATOM     11  C   UNL     1       5.484   6.252  16.478  0.00  0.00    +0.000 C 
ATOM     12  C   UNL     1       5.578   5.584  15.097  0.00  0.00    +0.000 C 
ATOM     13  O   UNL     1       5.747   4.158  15.208  0.00  0.00    +0.000 OA
ATOM     14  C   UNL     1       4.646   3.579  15.926  0.00  0.00    +0.000 C 
ATOM     15  C   UNL     1       4.538   4.148  17.351  0.00  0.00    +0.000 C 
ATOM     16  N   UNL     1       3.386   7.657  17.722  0.00  0.00    +0.000 NA
ATOM     17  N   UNL     1       2.566   8.483  18.471  0.00  0.00    +0.000 NA
ATOM     18  C   UNL     1       0.809  10.215  20.158  0.00  0.00    +0.000 A 
ATOM     19  C   UNL     1       0.985  10.953  18.875  0.00  0.00    +0.000 C 
ENDROOT
BRANCH   1  20
ATOM     20  C   UNL     1      -0.197  12.095  21.614  0.00  0.00    +0.000 C 
BRANCH  20  21
ATOM     21  C   UNL     1      -1.172  12.191  22.786  0.00  0.00    +0.000 C 
BRANCH  21  23
ATOM     22  N   UNL     1      -2.696  12.737  20.985  0.00  0.00    +0.000 N 
ATOM     23  C   UNL     1      -2.603  12.346  22.302  0.00  0.00    +0.000 C 
ATOM     24  O   UNL     1      -3.579  12.139  23.015  0.00  0.00    +0.000 OA
ATOM     25  H   UNL     1      -1.857  12.852  20.434  0.00  0.00    +0.000 HD
BRANCH  22  26
ATOM     26  C   UNL     1      -3.970  12.867  20.309  0.00  0.00    +0.000 C 
BRANCH  26  30
ATOM     27  C   UNL     1      -4.071  10.662  16.588  0.00  0.00    +0.000 A 
ATOM     28  C   UNL     1      -2.879  10.785  17.303  0.00  0.00    +0.000 A 
ATOM     29  C   UNL     1      -2.837  11.512  18.496  0.00  0.00    +0.000 A 
ATOM     30  C   UNL     1      -3.987  12.145  18.985  0.00  0.00    +0.000 A 
ATOM     31  C   UNL     1      -5.173  12.046  18.242  0.00  0.00    +0.000 A 
ATOM     32  C   UNL     1      -5.213  11.317  17.047  0.00  0.00    +0.000 A 
BRANCH  27  33
ATOM     33  O   UNL     1      -3.991   9.891  15.462  0.00  0.00    +0.000 OA
BRANCH  33  35
ATOM     34  C   UNL     1      -3.545   9.864  13.122  0.00  0.00    +0.000 C 
ATOM     35  C   UNL     1      -3.027  10.289  14.485  0.00  0.00    +0.000 C 
ENDBRANCH  33  35
ENDBRANCH  27  33
ENDBRANCH  26  30
ENDBRANCH  22  26
ENDBRANCH  21  23
ENDBRANCH  20  21
ENDBRANCH   1  20
TORSDOF 7
ENDMDL
MODEL 8
REMARK VINA RESULT:      -7.8      2.590      3.744
REMARK  Name = 
REMARK  10 active torsions:
REMARK  status: ('A' for Active; 'I' for Inactive)
REMARK    1  A    between atoms: C_1  and  C_2
REMARK    2  A    between atoms: C_2  and  O_3
REMARK    3  A    between atoms: O_3  and  C_4
REMARK    4  A    between atoms: C_7  and  C_8
REMARK    5  A    between atoms: C_8  and  N_9
REMARK    6  A    between atoms: C_10  and  C_12
REMARK    7  A    between atoms: C_12  and  C_13
REMARK    8  A    between atoms: C_13  and  C_14
REMARK    9  A    between atoms: C_15  and  C_16
REMARK   10  A    between atoms: C_31  and  C_32
REMARK                            x       y       z     vdW  Elec       q    Type
REMARK                         _______ _______ _______ _____ _____    ______ ____
ROOT
ATOM      1  C   UNL     1       1.805   7.380  20.249  0.00  0.00    +0.000 A 
ATOM      2  C   UNL     1       2.205   7.760  18.945  0.00  0.00    +0.000 A 
ATOM      3  C   UNL     1       3.003   7.007  17.943  0.00  0.00    +0.000 C 
ATOM      4  N   UNL     1       1.773   8.981  18.630  0.00  0.00    +0.000 NA
ATOM      5  N   UNL     1       1.219   9.477  19.775  0.00  0.00    +0.000 N 
ATOM      6  C   UNL     1       0.870  10.861  19.846  0.00  0.00    +0.000 A 
ATOM      7  C   UNL     1       0.964  11.659  18.718  0.00  0.00    +0.000 A 
ATOM      8  C   UNL     1       0.681  13.024  18.827  0.00  0.00    +0.000 A 
ATOM      9  C   UNL     1       0.323  13.577  20.049  0.00  0.00    +0.000 A 
ATOM     10  N   UNL     1       0.016  14.906  20.208  0.00  0.00    +0.000 N 
ATOM     11  C   UNL     1       0.249  15.542  21.513  0.00  0.00    +0.000 C 
ATOM     12  C   UNL     1      -0.892  16.524  21.817  0.00  0.00    +0.000 C 
ATOM     13  O   UNL     1      -1.075  17.473  20.750  0.00  0.00    +0.000 OA
ATOM     14  C   UNL     1      -1.371  16.791  19.521  0.00  0.00    +0.000 C 
ATOM     15  C   UNL     1      -0.231  15.842  19.113  0.00  0.00    +0.000 C 
ATOM     16  N   UNL     1       0.245  12.755  21.117  0.00  0.00    +0.000 NA
ATOM     17  N   UNL     1       0.510  11.399  21.022  0.00  0.00    +0.000 NA
ATOM     18  C   UNL     1       1.129   8.489  20.746  0.00  0.00    +0.000 A 
ATOM     19  C   UNL     1       0.476   8.634  22.078  0.00  0.00    +0.000 C 
ENDROOT
BRANCH   1  20
ATOM     20  C   UNL     1       2.078   6.099  20.978  0.00  0.00    +0.000 C 
BRANCH  20  21
ATOM     21  C   UNL     1       1.304   4.908  20.415  0.00  0.00    +0.000 C 
BRANCH  21  23
ATOM     22  N   UNL     1       3.560   4.282  19.794  0.00  0.00    +0.000 N 
ATOM     23  C   UNL     1       2.237   3.899  19.770  0.00  0.00    +0.000 C 
ATOM     24  O   UNL     1       1.849   2.844  19.280  0.00  0.00    +0.000 OA
ATOM     25  H   UNL     1       3.825   5.145  20.250  0.00  0.00    +0.000 HD
BRANCH  22  26
ATOM     26  C   UNL     1       4.618   3.427  19.301  0.00  0.00    +0.000 C 
BRANCH  26  30
ATOM     27  C   UNL     1       6.253   5.047  15.638  0.00  0.00    +0.000 A 
ATOM     28  C   UNL     1       5.070   4.308  15.616  0.00  0.00    +0.000 A 
ATOM     29  C   UNL     1       4.548   3.765  16.794  0.00  0.00    +0.000 A 
ATOM     30  C   UNL     1       5.213   3.942  18.015  0.00  0.00    +0.000 A 
ATOM     31  C   UNL     1       6.420   4.656  18.022  0.00  0.00    +0.000 A 
ATOM     32  C   UNL     1       6.942   5.198  16.841  0.00  0.00    +0.000 A 
BRANCH  27  33
ATOM     33  O   UNL     1       6.636   5.559  14.429  0.00  0.00    +0.000 OA
BRANCH  33  35
ATOM     34  C   UNL     1       6.689   4.001  12.628  0.00  0.00    +0.000 C 
ATOM     35  C   UNL     1       7.523   4.754  13.650  0.00  0.00    +0.000 C 
ENDBRANCH  33  35
ENDBRANCH  27  33
ENDBRANCH  26  30
ENDBRANCH  22  26
ENDBRANCH  21  23
ENDBRANCH  20  21
ENDBRANCH   1  20
TORSDOF 7
ENDMDL
MODEL 9
REMARK VINA RESULT:      -7.8      3.196      5.002
REMARK  Name = 
REMARK  10 active torsions:
REMARK  status: ('A' for Active; 'I' for Inactive)
REMARK    1  A    between atoms: C_1  and  C_2
REMARK    2  A    between atoms: C_2  and  O_3
REMARK    3  A    between atoms: O_3  and  C_4
REMARK    4  A    between atoms: C_7  and  C_8
REMARK    5  A    between atoms: C_8  and  N_9
REMARK    6  A    between atoms: C_10  and  C_12
REMARK    7  A    between atoms: C_12  and  C_13
REMARK    8  A    between atoms: C_13  and  C_14
REMARK    9  A    between atoms: C_15  and  C_16
REMARK   10  A    between atoms: C_31  and  C_32
REMARK                            x       y       z     vdW  Elec       q    Type
REMARK                         _______ _______ _______ _____ _____    ______ ____
ROOT
ATOM      1  C   UNL     1       1.026   8.840  20.547  0.00  0.00    +0.000 A 
ATOM      2  C   UNL     1       0.843   9.506  19.311  0.00  0.00    +0.000 A 
ATOM      3  C   UNL     1       1.458   9.230  17.987  0.00  0.00    +0.000 C 
ATOM      4  N   UNL     1      -0.018  10.519  19.416  0.00  0.00    +0.000 NA
ATOM      5  N   UNL     1      -0.290  10.628  20.749  0.00  0.00    +0.000 N 
ATOM      6  C   UNL     1      -1.000  11.770  21.231  0.00  0.00    +0.000 A 
ATOM      7  C   UNL     1      -1.526  12.689  20.338  0.00  0.00    +0.000 A 
ATOM      8  C   UNL     1      -2.158  13.833  20.834  0.00  0.00    +0.000 A 
ATOM      9  C   UNL     1      -2.248  14.055  22.202  0.00  0.00    +0.000 A 
ATOM     10  N   UNL     1      -2.875  15.151  22.743  0.00  0.00    +0.000 N 
ATOM     11  C   UNL     1      -2.434  15.651  24.053  0.00  0.00    +0.000 C 
ATOM     12  C   UNL     1      -3.654  16.106  24.868  0.00  0.00    +0.000 C 
ATOM     13  O   UNL     1      -4.454  17.056  24.139  0.00  0.00    +0.000 OA
ATOM     14  C   UNL     1      -4.913  16.480  22.906  0.00  0.00    +0.000 C 
ATOM     15  C   UNL     1      -3.737  16.069  22.002  0.00  0.00    +0.000 C 
ATOM     16  N   UNL     1      -1.720  13.127  23.029  0.00  0.00    +0.000 NA
ATOM     17  N   UNL     1      -1.102  11.984  22.553  0.00  0.00    +0.000 NA
ATOM     18  C   UNL     1       0.246   9.556  21.449  0.00  0.00    +0.000 A 
ATOM     19  C   UNL     1       0.051   9.280  22.901  0.00  0.00    +0.000 C 
ENDROOT
BRANCH   1  20
ATOM     20  C   UNL     1       1.896   7.661  20.857  0.00  0.00    +0.000 C 
BRANCH  20  21
ATOM     21  C   UNL     1       1.181   6.322  20.687  0.00  0.00    +0.000 C 
BRANCH  21  23
ATOM     22  N   UNL     1       1.835   5.114  18.693  0.00  0.00    +0.000 N 
ATOM     23  C   UNL     1       2.085   5.292  20.036  0.00  0.00    +0.000 C 
ATOM     24  O   UNL     1       2.956   4.682  20.646  0.00  0.00    +0.000 OA
ATOM     25  H   UNL     1       1.132   5.676  18.234  0.00  0.00    +0.000 HD
BRANCH  22  26
ATOM     26  C   UNL     1       2.639   4.234  17.870  0.00  0.00    +0.000 C 
BRANCH  26  30
ATOM     27  C   UNL     1       6.407   6.097  16.848  0.00  0.00    +0.000 A 
ATOM     28  C   UNL     1       5.218   6.824  16.778  0.00  0.00    +0.000 A 
ATOM     29  C   UNL     1       3.996   6.222  17.089  0.00  0.00    +0.000 A 
ATOM     30  C   UNL     1       3.942   4.872  17.460  0.00  0.00    +0.000 A 
ATOM     31  C   UNL     1       5.137   4.138  17.492  0.00  0.00    +0.000 A 
ATOM     32  C   UNL     1       6.361   4.743  17.181  0.00  0.00    +0.000 A 
BRANCH  27  33
ATOM     33  O   UNL     1       7.538   6.810  16.562  0.00  0.00    +0.000 OA
BRANCH  33  35
ATOM     34  C   UNL     1       8.311   7.249  18.771  0.00  0.00    +0.000 C 
ATOM     35  C   UNL     1       7.864   7.871  17.460  0.00  0.00    +0.000 C 
ENDBRANCH  33  35
ENDBRANCH  27  33
ENDBRANCH  26  30
ENDBRANCH  22  26
ENDBRANCH  21  23
ENDBRANCH  20  21
ENDBRANCH   1  20
TORSDOF 7
ENDMDL
