MODEL 1
REMARK VINA RESULT:      -8.0      0.000      0.000
REMARK  Name = 
REMARK  7 active torsions:
REMARK  status: ('A' for Active; 'I' for Inactive)
REMARK    1  A    between atoms: C_1  and  C_2
REMARK    2  A    between atoms: C_7  and  O_8
REMARK    3  A    between atoms: C_9  and  C_10
REMARK    4  A    between atoms: N_12  and  C_13
REMARK    5  A    between atoms: C_15  and  C_16
REMARK    6  A    between atoms: C_18  and  C_19
REMARK    7  A    between atoms: C_18  and  C_20
REMARK                            x       y       z     vdW  Elec       q    Type
REMARK                         _______ _______ _______ _____ _____    ______ ____
ROOT
ATOM      1  C   UNL     1       0.105  12.212  19.421  0.00  0.00    +0.000 C 
ATOM      2  C   UNL     1       0.322  11.119  20.415  0.00  0.00    +0.000 A 
ATOM      3  C   UNL     1      -0.053  11.204  21.706  0.00  0.00    +0.000 A 
ATOM      4  C   UNL     1       0.117  10.104  22.625  0.00  0.00    +0.000 A 
ATOM      5  C   UNL     1       0.644   8.953  22.185  0.00  0.00    +0.000 A 
ATOM      6  N   UNL     1       1.082   8.753  20.875  0.00  0.00    +0.000 N 
ATOM      7  C   UNL     1       1.562   7.536  20.388  0.00  0.00    +0.000 A 
ATOM      8  C   UNL     1       1.990   7.383  19.117  0.00  0.00    +0.000 A 
ATOM      9  C   UNL     1       1.962   8.599  18.256  0.00  0.00    +0.000 A 
ATOM     10  O   UNL     1       2.454   8.550  17.131  0.00  0.00    +0.000 OA
ATOM     11  N   UNL     1       1.368   9.749  18.727  0.00  0.00    +0.000 NA
ATOM     12  C   UNL     1       0.964   9.816  19.964  0.00  0.00    +0.000 A 
ENDROOT
BRANCH   8  13
ATOM     13  C   UNL     1       2.548   6.075  18.639  0.00  0.00    +0.000 C 
ATOM     14  O   UNL     1       1.895   5.032  18.697  0.00  0.00    +0.000 OA
ATOM     15  N   UNL     1       3.851   6.083  18.187  0.00  0.00    +0.000 N 
ATOM     16  H   UNL     1       4.404   6.885  18.492  0.00  0.00    +0.000 HD
BRANCH  15  17
ATOM     17  C   UNL     1       4.598   4.844  17.937  0.00  0.00    +0.000 C 
ATOM     18  C   UNL     1       4.816   4.480  16.445  0.00  0.00    +0.000 C 
ATOM     19  C   UNL     1       6.135   4.927  15.770  0.00  0.00    +0.000 C 
ATOM     20  C   UNL     1       6.438   4.053  14.545  0.00  0.00    +0.000 C 
ATOM     21  C   UNL     1       7.353   4.924  16.709  0.00  0.00    +0.000 C 
ATOM     22  C   UNL     1       7.059   5.622  18.046  0.00  0.00    +0.000 C 
ATOM     23  C   UNL     1       6.734   7.109  17.810  0.00  0.00    +0.000 C 
ATOM     24  C   UNL     1       8.291   5.560  18.966  0.00  0.00    +0.000 C 
ATOM     25  C   UNL     1       5.912   4.840  18.722  0.00  0.00    +0.000 C 
ENDBRANCH  15  17
ENDBRANCH   8  13
BRANCH   7  26
ATOM     26  O   UNL     1       1.534   6.456  21.254  0.00  0.00    +0.000 OA
ATOM     27  H   UNL     1       2.308   6.541  21.834  0.00  0.00    +0.000 HD
ENDBRANCH   7  26
TORSDOF 3
ENDMDL
MODEL 2
REMARK VINA RESULT:      -8.0      2.256      4.158
REMARK  Name = 
REMARK  7 active torsions:
REMARK  status: ('A' for Active; 'I' for Inactive)
REMARK    1  A    between atoms: C_1  and  C_2
REMARK    2  A    between atoms: C_7  and  O_8
REMARK    3  A    between atoms: C_9  and  C_10
REMARK    4  A    between atoms: N_12  and  C_13
REMARK    5  A    between atoms: C_15  and  C_16
REMARK    6  A    between atoms: C_18  and  C_19
REMARK    7  A    between atoms: C_18  and  C_20
REMARK                            x       y       z     vdW  Elec       q    Type
REMARK                         _______ _______ _______ _____ _____    ______ ____
ROOT
ATOM      1  C   UNL     1      -1.503  12.214  23.235  0.00  0.00    +0.000 C 
ATOM      2  C   UNL     1      -1.820  12.038  21.785  0.00  0.00    +0.000 A 
ATOM      3  C   UNL     1      -2.844  12.658  21.170  0.00  0.00    +0.000 A 
ATOM      4  C   UNL     1      -3.085  12.512  19.754  0.00  0.00    +0.000 A 
ATOM      5  C   UNL     1      -2.259  11.755  19.019  0.00  0.00    +0.000 A 
ATOM      6  N   UNL     1      -1.176  11.053  19.550  0.00  0.00    +0.000 N 
ATOM      7  C   UNL     1      -0.266  10.322  18.782  0.00  0.00    +0.000 A 
ATOM      8  C   UNL     1       0.764   9.645  19.332  0.00  0.00    +0.000 A 
ATOM      9  C   UNL     1       0.864   9.680  20.819  0.00  0.00    +0.000 A 
ATOM     10  O   UNL     1       1.705   8.982  21.380  0.00  0.00    +0.000 OA
ATOM     11  N   UNL     1       0.029  10.508  21.534  0.00  0.00    +0.000 NA
ATOM     12  C   UNL     1      -0.935  11.145  20.930  0.00  0.00    +0.000 A 
ENDROOT
BRANCH   8  13
ATOM     13  C   UNL     1       1.694   8.828  18.485  0.00  0.00    +0.000 C 
ATOM     14  O   UNL     1       2.148   9.256  17.423  0.00  0.00    +0.000 OA
ATOM     15  N   UNL     1       1.970   7.548  18.921  0.00  0.00    +0.000 N 
ATOM     16  H   UNL     1       1.301   7.173  19.594  0.00  0.00    +0.000 HD
BRANCH  15  17
ATOM     17  C   UNL     1       2.648   6.563  18.069  0.00  0.00    +0.000 C 
ATOM     18  C   UNL     1       4.169   6.392  18.318  0.00  0.00    +0.000 C 
ATOM     19  C   UNL     1       4.629   5.270  19.279  0.00  0.00    +0.000 C 
ATOM     20  C   UNL     1       6.086   4.878  18.993  0.00  0.00    +0.000 C 
ATOM     21  C   UNL     1       3.749   4.009  19.239  0.00  0.00    +0.000 C 
ATOM     22  C   UNL     1       2.251   4.343  19.329  0.00  0.00    +0.000 C 
ATOM     23  C   UNL     1       1.935   5.015  20.678  0.00  0.00    +0.000 C 
ATOM     24  C   UNL     1       1.409   3.057  19.247  0.00  0.00    +0.000 C 
ATOM     25  C   UNL     1       1.910   5.222  18.106  0.00  0.00    +0.000 C 
ENDBRANCH  15  17
ENDBRANCH   8  13
BRANCH   7  26
ATOM     26  O   UNL     1      -0.427  10.362  17.408  0.00  0.00    +0.000 OA
ATOM     27  H   UNL     1      -0.765  11.245  17.190  0.00  0.00    +0.000 HD
ENDBRANCH   7  26
TORSDOF 3
ENDMDL
MODEL 3
REMARK VINA RESULT:      -7.4      3.336      8.124
REMARK  Name = 
REMARK  7 active torsions:
REMARK  status: ('A' for Active; 'I' for Inactive)
REMARK    1  A    between atoms: C_1  and  C_2
REMARK    2  A    between atoms: C_7  and  O_8
REMARK    3  A    between atoms: C_9  and  C_10
REMARK    4  A    between atoms: N_12  and  C_13
REMARK    5  A    between atoms: C_15  and  C_16
REMARK    6  A    between atoms: C_18  and  C_19
REMARK    7  A    between atoms: C_18  and  C_20
REMARK                            x       y       z     vdW  Elec       q    Type
REMARK                         _______ _______ _______ _____ _____    ______ ____
ROOT
ATOM      1  C   UNL     1       8.820   5.898  12.533  0.00  0.00    +0.000 C 
ATOM      2  C   UNL     1       7.657   5.024  12.874  0.00  0.00    +0.000 A 
ATOM      3  C   UNL     1       7.063   4.201  11.990  0.00  0.00    +0.000 A 
ATOM      4  C   UNL     1       5.980   3.326  12.370  0.00  0.00    +0.000 A 
ATOM      5  C   UNL     1       5.561   3.310  13.643  0.00  0.00    +0.000 A 
ATOM      6  N   UNL     1       6.090   4.128  14.642  0.00  0.00    +0.000 N 
ATOM      7  C   UNL     1       5.711   4.067  15.985  0.00  0.00    +0.000 A 
ATOM      8  C   UNL     1       6.236   4.884  16.922  0.00  0.00    +0.000 A 
ATOM      9  C   UNL     1       7.223   5.895  16.445  0.00  0.00    +0.000 A 
ATOM     10  O   UNL     1       7.638   6.744  17.230  0.00  0.00    +0.000 OA
ATOM     11  N   UNL     1       7.665   5.847  15.142  0.00  0.00    +0.000 NA
ATOM     12  C   UNL     1       7.120   5.018  14.297  0.00  0.00    +0.000 A 
ENDROOT
BRANCH   8  13
ATOM     13  C   UNL     1       5.772   4.827  18.348  0.00  0.00    +0.000 C 
ATOM     14  O   UNL     1       6.528   4.498  19.262  0.00  0.00    +0.000 OA
ATOM     15  N   UNL     1       4.440   5.101  18.579  0.00  0.00    +0.000 N 
ATOM     16  H   UNL     1       3.838   5.021  17.758  0.00  0.00    +0.000 HD
BRANCH  15  17
ATOM     17  C   UNL     1       3.802   4.832  19.874  0.00  0.00    +0.000 C 
ATOM     18  C   UNL     1       3.011   6.015  20.492  0.00  0.00    +0.000 C 
ATOM     19  C   UNL     1       1.490   6.096  20.222  0.00  0.00    +0.000 C 
ATOM     20  C   UNL     1       0.793   6.936  21.302  0.00  0.00    +0.000 C 
ATOM     21  C   UNL     1       0.797   4.727  20.120  0.00  0.00    +0.000 C 
ATOM     22  C   UNL     1       1.552   3.759  19.195  0.00  0.00    +0.000 C 
ATOM     23  C   UNL     1       1.576   4.308  17.756  0.00  0.00    +0.000 C 
ATOM     24  C   UNL     1       0.844   2.393  19.155  0.00  0.00    +0.000 C 
ATOM     25  C   UNL     1       2.957   3.557  19.803  0.00  0.00    +0.000 C 
ENDBRANCH  15  17
ENDBRANCH   8  13
BRANCH   7  26
ATOM     26  O   UNL     1       4.803   3.084  16.339  0.00  0.00    +0.000 OA
ATOM     27  H   UNL     1       5.148   2.246  15.992  0.00  0.00    +0.000 HD
ENDBRANCH   7  26
TORSDOF 3
ENDMDL
MODEL 4
REMARK VINA RESULT:      -7.4      2.442      4.224
REMARK  Name = 
REMARK  7 active torsions:
REMARK  status: ('A' for Active; 'I' for Inactive)
REMARK    1  A    between atoms: C_1  and  C_2
REMARK    2  A    between atoms: C_7  and  O_8
REMARK    3  A    between atoms: C_9  and  C_10
REMARK    4  A    between atoms: N_12  and  C_13
REMARK    5  A    between atoms: C_15  and  C_16
REMARK    6  A    between atoms: C_18  and  C_19
REMARK    7  A    between atoms: C_18  and  C_20
REMARK                            x       y       z     vdW  Elec       q    Type
REMARK                         _______ _______ _______ _____ _____    ______ ____
ROOT
ATOM      1  C   UNL     1      -0.977  11.291  22.868  0.00  0.00    +0.000 C 
ATOM      2  C   UNL     1      -0.666  11.488  21.421  0.00  0.00    +0.000 A 
ATOM      3  C   UNL     1      -1.007  12.594  20.732  0.00  0.00    +0.000 A 
ATOM      4  C   UNL     1      -0.637  12.777  19.349  0.00  0.00    +0.000 A 
ATOM      5  C   UNL     1       0.086  11.834  18.730  0.00  0.00    +0.000 A 
ATOM      6  N   UNL     1       0.485  10.642  19.337  0.00  0.00    +0.000 N 
ATOM      7  C   UNL     1       1.300   9.687  18.725  0.00  0.00    +0.000 A 
ATOM      8  C   UNL     1       1.656   8.539  19.338  0.00  0.00    +0.000 A 
ATOM      9  C   UNL     1       1.098   8.314  20.703  0.00  0.00    +0.000 A 
ATOM     10  O   UNL     1       1.285   7.234  21.257  0.00  0.00    +0.000 OA
ATOM     11  N   UNL     1       0.401   9.326  21.324  0.00  0.00    +0.000 NA
ATOM     12  C   UNL     1       0.110  10.416  20.671  0.00  0.00    +0.000 A 
ENDROOT
BRANCH   8  13
ATOM     13  C   UNL     1       2.492   7.511  18.635  0.00  0.00    +0.000 C 
ATOM     14  O   UNL     1       3.074   7.761  17.579  0.00  0.00    +0.000 OA
ATOM     15  N   UNL     1       2.529   6.250  19.196  0.00  0.00    +0.000 N 
ATOM     16  H   UNL     1       1.768   6.049  19.846  0.00  0.00    +0.000 HD
BRANCH  15  17
ATOM     17  C   UNL     1       3.089   5.096  18.483  0.00  0.00    +0.000 C 
ATOM     18  C   UNL     1       4.204   4.319  19.231  0.00  0.00    +0.000 C 
ATOM     19  C   UNL     1       3.796   3.084  20.069  0.00  0.00    +0.000 C 
ATOM     20  C   UNL     1       4.994   2.145  20.265  0.00  0.00    +0.000 C 
ATOM     21  C   UNL     1       2.619   2.288  19.482  0.00  0.00    +0.000 C 
ATOM     22  C   UNL     1       1.444   3.196  19.081  0.00  0.00    +0.000 C 
ATOM     23  C   UNL     1       0.873   3.906  20.323  0.00  0.00    +0.000 C 
ATOM     24  C   UNL     1       0.308   2.361  18.464  0.00  0.00    +0.000 C 
ATOM     25  C   UNL     1       1.972   4.166  18.002  0.00  0.00    +0.000 C 
ENDBRANCH  15  17
ENDBRANCH   8  13
BRANCH   7  26
ATOM     26  O   UNL     1       1.787   9.990  17.465  0.00  0.00    +0.000 OA
ATOM     27  H   UNL     1       2.447   9.311  17.248  0.00  0.00    +0.000 HD
ENDBRANCH   7  26
TORSDOF 3
ENDMDL
MODEL 5
REMARK VINA RESULT:      -7.4      0.691      2.206
REMARK  Name = 
REMARK  7 active torsions:
REMARK  status: ('A' for Active; 'I' for Inactive)
REMARK    1  A    between atoms: C_1  and  C_2
REMARK    2  A    between atoms: C_7  and  O_8
REMARK    3  A    between atoms: C_9  and  C_10
REMARK    4  A    between atoms: N_12  and  C_13
REMARK    5  A    between atoms: C_15  and  C_16
REMARK    6  A    between atoms: C_18  and  C_19
REMARK    7  A    between atoms: C_18  and  C_20
REMARK                            x       y       z     vdW  Elec       q    Type
REMARK                         _______ _______ _______ _____ _____    ______ ____
ROOT
ATOM      1  C   UNL     1       0.196  10.098  22.759  0.00  0.00    +0.000 C 
ATOM      2  C   UNL     1       0.531  10.291  21.316  0.00  0.00    +0.000 A 
ATOM      3  C   UNL     1       0.464  11.481  20.691  0.00  0.00    +0.000 A 
ATOM      4  C   UNL     1       0.854  11.643  19.311  0.00  0.00    +0.000 A 
ATOM      5  C   UNL     1       1.317  10.587  18.629  0.00  0.00    +0.000 A 
ATOM      6  N   UNL     1       1.417   9.302  19.165  0.00  0.00    +0.000 N 
ATOM      7  C   UNL     1       1.967   8.212  18.488  0.00  0.00    +0.000 A 
ATOM      8  C   UNL     1       2.035   6.980  19.035  0.00  0.00    +0.000 A 
ATOM      9  C   UNL     1       1.454   6.825  20.399  0.00  0.00    +0.000 A 
ATOM     10  O   UNL     1       1.376   5.704  20.894  0.00  0.00    +0.000 OA
ATOM     11  N   UNL     1       1.033   7.942  21.086  0.00  0.00    +0.000 NA
ATOM     12  C   UNL     1       1.012   9.103  20.495  0.00  0.00    +0.000 A 
ENDROOT
BRANCH   8  13
ATOM     13  C   UNL     1       2.587   5.818  18.262  0.00  0.00    +0.000 C 
ATOM     14  O   UNL     1       1.853   4.950  17.788  0.00  0.00    +0.000 OA
ATOM     15  N   UNL     1       3.960   5.735  18.159  0.00  0.00    +0.000 N 
ATOM     16  H   UNL     1       4.475   6.282  18.851  0.00  0.00    +0.000 HD
BRANCH  15  17
ATOM     17  C   UNL     1       4.633   4.530  17.660  0.00  0.00    +0.000 C 
ATOM     18  C   UNL     1       4.773   4.426  16.119  0.00  0.00    +0.000 C 
ATOM     19  C   UNL     1       6.084   4.931  15.469  0.00  0.00    +0.000 C 
ATOM     20  C   UNL     1       6.294   4.274  14.097  0.00  0.00    +0.000 C 
ATOM     21  C   UNL     1       7.337   4.711  16.334  0.00  0.00    +0.000 C 
ATOM     22  C   UNL     1       7.132   5.174  17.785  0.00  0.00    +0.000 C 
ATOM     23  C   UNL     1       6.873   6.691  17.828  0.00  0.00    +0.000 C 
ATOM     24  C   UNL     1       8.396   4.899  18.619  0.00  0.00    +0.000 C 
ATOM     25  C   UNL     1       5.977   4.332  18.368  0.00  0.00    +0.000 C 
ENDBRANCH  15  17
ENDBRANCH   8  13
BRANCH   7  26
ATOM     26  O   UNL     1       2.499   8.454  17.233  0.00  0.00    +0.000 OA
ATOM     27  H   UNL     1       2.018   9.212  16.866  0.00  0.00    +0.000 HD
ENDBRANCH   7  26
TORSDOF 3
ENDMDL
MODEL 6
REMARK VINA RESULT:      -7.3      1.849      3.754
REMARK  Name = 
REMARK  7 active torsions:
REMARK  status: ('A' for Active; 'I' for Inactive)
REMARK    1  A    between atoms: C_1  and  C_2
REMARK    2  A    between atoms: C_7  and  O_8
REMARK    3  A    between atoms: C_9  and  C_10
REMARK    4  A    between atoms: N_12  and  C_13
REMARK    5  A    between atoms: C_15  and  C_16
REMARK    6  A    between atoms: C_18  and  C_19
REMARK    7  A    between atoms: C_18  and  C_20
REMARK                            x       y       z     vdW  Elec       q    Type
REMARK                         _______ _______ _______ _____ _____    ______ ____
ROOT
ATOM      1  C   UNL     1      -1.258  11.490  22.947  0.00  0.00    +0.000 C 
ATOM      2  C   UNL     1      -1.012  11.729  21.493  0.00  0.00    +0.000 A 
ATOM      3  C   UNL     1      -1.460  12.813  20.834  0.00  0.00    +0.000 A 
ATOM      4  C   UNL     1      -1.151  13.043  19.442  0.00  0.00    +0.000 A 
ATOM      5  C   UNL     1      -0.379  12.167  18.785  0.00  0.00    +0.000 A 
ATOM      6  N   UNL     1       0.130  11.001  19.360  0.00  0.00    +0.000 N 
ATOM      7  C   UNL     1       0.995  10.121  18.707  0.00  0.00    +0.000 A 
ATOM      8  C   UNL     1       1.458   8.996  19.291  0.00  0.00    +0.000 A 
ATOM      9  C   UNL     1       0.965   8.710  20.669  0.00  0.00    +0.000 A 
ATOM     10  O   UNL     1       1.254   7.641  21.200  0.00  0.00    +0.000 OA
ATOM     11  N   UNL     1       0.214   9.657  21.328  0.00  0.00    +0.000 NA
ATOM     12  C   UNL     1      -0.182  10.730  20.702  0.00  0.00    +0.000 A 
ENDROOT
BRANCH   8  13
ATOM     13  C   UNL     1       2.347   8.044  18.545  0.00  0.00    +0.000 C 
ATOM     14  O   UNL     1       3.218   8.444  17.772  0.00  0.00    +0.000 OA
ATOM     15  N   UNL     1       2.101   6.698  18.718  0.00  0.00    +0.000 N 
ATOM     16  H   UNL     1       1.175   6.476  19.086  0.00  0.00    +0.000 HD
BRANCH  15  17
ATOM     17  C   UNL     1       2.716   5.676  17.862  0.00  0.00    +0.000 C 
ATOM     18  C   UNL     1       4.267   5.638  17.868  0.00  0.00    +0.000 C 
ATOM     19  C   UNL     1       4.970   4.661  18.840  0.00  0.00    +0.000 C 
ATOM     20  C   UNL     1       6.390   4.342  18.352  0.00  0.00    +0.000 C 
ATOM     21  C   UNL     1       4.205   3.346  19.069  0.00  0.00    +0.000 C 
ATOM     22  C   UNL     1       2.718   3.582  19.376  0.00  0.00    +0.000 C 
ATOM     23  C   UNL     1       2.565   4.373  20.689  0.00  0.00    +0.000 C 
ATOM     24  C   UNL     1       1.988   2.240  19.559  0.00  0.00    +0.000 C 
ATOM     25  C   UNL     1       2.112   4.299  18.150  0.00  0.00    +0.000 C 
ENDBRANCH  15  17
ENDBRANCH   8  13
BRANCH   7  26
ATOM     26  O   UNL     1       1.414  10.476  17.437  0.00  0.00    +0.000 OA
ATOM     27  H   UNL     1       1.463   9.658  16.918  0.00  0.00    +0.000 HD
ENDBRANCH   7  26
TORSDOF 3
ENDMDL
MODEL 7
REMARK VINA RESULT:      -7.3      1.972      7.663
REMARK  Name = 
REMARK  7 active torsions:
REMARK  status: ('A' for Active; 'I' for Inactive)
REMARK    1  A    between atoms: C_1  and  C_2
REMARK    2  A    between atoms: C_7  and  O_8
REMARK    3  A    between atoms: C_9  and  C_10
REMARK    4  A    between atoms: N_12  and  C_13
REMARK    5  A    between atoms: C_15  and  C_16
REMARK    6  A    between atoms: C_18  and  C_19
REMARK    7  A    between atoms: C_18  and  C_20
REMARK                            x       y       z     vdW  Elec       q    Type
REMARK                         _______ _______ _______ _____ _____    ______ ____
ROOT
ATOM      1  C   UNL     1       4.983   4.422  16.065  0.00  0.00    +0.000 C 
ATOM      2  C   UNL     1       4.194   4.115  17.295  0.00  0.00    +0.000 A 
ATOM      3  C   UNL     1       4.110   2.884  17.835  0.00  0.00    +0.000 A 
ATOM      4  C   UNL     1       3.388   2.635  19.059  0.00  0.00    +0.000 A 
ATOM      5  C   UNL     1       2.796   3.655  19.695  0.00  0.00    +0.000 A 
ATOM      6  N   UNL     1       2.802   4.969  19.224  0.00  0.00    +0.000 N 
ATOM      7  C   UNL     1       2.254   6.051  19.916  0.00  0.00    +0.000 A 
ATOM      8  C   UNL     1       2.267   7.307  19.422  0.00  0.00    +0.000 A 
ATOM      9  C   UNL     1       2.867   7.483  18.069  0.00  0.00    +0.000 A 
ATOM     10  O   UNL     1       2.795   8.579  17.518  0.00  0.00    +0.000 OA
ATOM     11  N   UNL     1       3.509   6.422  17.470  0.00  0.00    +0.000 NA
ATOM     12  C   UNL     1       3.466   5.239  18.016  0.00  0.00    +0.000 A 
ENDROOT
BRANCH   8  13
ATOM     13  C   UNL     1       1.625   8.439  20.168  0.00  0.00    +0.000 C 
ATOM     14  O   UNL     1       1.629   8.490  21.398  0.00  0.00    +0.000 OA
ATOM     15  N   UNL     1       0.974   9.392  19.411  0.00  0.00    +0.000 N 
ATOM     16  H   UNL     1       0.731   9.094  18.465  0.00  0.00    +0.000 HD
BRANCH  15  17
ATOM     17  C   UNL     1       0.094  10.400  20.014  0.00  0.00    +0.000 C 
ATOM     18  C   UNL     1       0.453  11.877  19.708  0.00  0.00    +0.000 C 
ATOM     19  C   UNL     1      -0.253  12.568  18.517  0.00  0.00    +0.000 C 
ATOM     20  C   UNL     1      -0.227  14.094  18.685  0.00  0.00    +0.000 C 
ATOM     21  C   UNL     1      -1.703  12.107  18.294  0.00  0.00    +0.000 C 
ATOM     22  C   UNL     1      -1.836  10.576  18.305  0.00  0.00    +0.000 C 
ATOM     23  C   UNL     1      -1.034   9.964  17.142  0.00  0.00    +0.000 C 
ATOM     24  C   UNL     1      -3.307  10.164  18.118  0.00  0.00    +0.000 C 
ATOM     25  C   UNL     1      -1.373  10.093  19.696  0.00  0.00    +0.000 C 
ENDBRANCH  15  17
ENDBRANCH   8  13
BRANCH   7  26
ATOM     26  O   UNL     1       1.735   5.796  21.173  0.00  0.00    +0.000 OA
ATOM     27  H   UNL     1       1.944   6.567  21.725  0.00  0.00    +0.000 HD
ENDBRANCH   7  26
TORSDOF 3
ENDMDL
MODEL 8
REMARK VINA RESULT:      -7.2      2.377      3.596
REMARK  Name = 
REMARK  7 active torsions:
REMARK  status: ('A' for Active; 'I' for Inactive)
REMARK    1  A    between atoms: C_1  and  C_2
REMARK    2  A    between atoms: C_7  and  O_8
REMARK    3  A    between atoms: C_9  and  C_10
REMARK    4  A    between atoms: N_12  and  C_13
REMARK    5  A    between atoms: C_15  and  C_16
REMARK    6  A    between atoms: C_18  and  C_19
REMARK    7  A    between atoms: C_18  and  C_20
REMARK                            x       y       z     vdW  Elec       q    Type
REMARK                         _______ _______ _______ _____ _____    ______ ____
ROOT
ATOM      1  C   UNL     1      -0.804  12.694  20.296  0.00  0.00    +0.000 C 
ATOM      2  C   UNL     1      -0.369  11.509  21.096  0.00  0.00    +0.000 A 
ATOM      3  C   UNL     1      -0.724  11.308  22.379  0.00  0.00    +0.000 A 
ATOM      4  C   UNL     1      -0.335  10.121  23.102  0.00  0.00    +0.000 A 
ATOM      5  C   UNL     1       0.384   9.176  22.481  0.00  0.00    +0.000 A 
ATOM      6  N   UNL     1       0.822   9.281  21.160  0.00  0.00    +0.000 N 
ATOM      7  C   UNL     1       1.506   8.271  20.481  0.00  0.00    +0.000 A 
ATOM      8  C   UNL     1       1.926   8.413  19.206  0.00  0.00    +0.000 A 
ATOM      9  C   UNL     1       1.656   9.729  18.560  0.00  0.00    +0.000 A 
ATOM     10  O   UNL     1       2.124   9.958  17.447  0.00  0.00    +0.000 OA
ATOM     11  N   UNL     1       0.873  10.655  19.211  0.00  0.00    +0.000 NA
ATOM     12  C   UNL     1       0.491  10.440  20.439  0.00  0.00    +0.000 A 
ENDROOT
BRANCH   8  13
ATOM     13  C   UNL     1       2.703   7.328  18.520  0.00  0.00    +0.000 C 
ATOM     14  O   UNL     1       3.218   7.500  17.415  0.00  0.00    +0.000 OA
ATOM     15  N   UNL     1       2.762   6.106  19.159  0.00  0.00    +0.000 N 
ATOM     16  H   UNL     1       2.043   5.960  19.868  0.00  0.00    +0.000 HD
BRANCH  15  17
ATOM     17  C   UNL     1       3.262   4.899  18.490  0.00  0.00    +0.000 C 
ATOM     18  C   UNL     1       4.310   4.076  19.283  0.00  0.00    +0.000 C 
ATOM     19  C   UNL     1       3.808   2.893  20.146  0.00  0.00    +0.000 C 
ATOM     20  C   UNL     1       4.940   1.886  20.392  0.00  0.00    +0.000 C 
ATOM     21  C   UNL     1       2.594   2.156  19.555  0.00  0.00    +0.000 C 
ATOM     22  C   UNL     1       1.488   3.124  19.105  0.00  0.00    +0.000 C 
ATOM     23  C   UNL     1       0.939   3.904  20.314  0.00  0.00    +0.000 C 
ATOM     24  C   UNL     1       0.313   2.345  18.486  0.00  0.00    +0.000 C 
ATOM     25  C   UNL     1       2.097   4.028  18.011  0.00  0.00    +0.000 C 
ENDBRANCH  15  17
ENDBRANCH   8  13
BRANCH   7  26
ATOM     26  O   UNL     1       1.695   7.076  21.153  0.00  0.00    +0.000 OA
ATOM     27  H   UNL     1       1.861   6.398  20.479  0.00  0.00    +0.000 HD
ENDBRANCH   7  26
TORSDOF 3
ENDMDL
MODEL 9
REMARK VINA RESULT:      -7.1      2.211      4.181
REMARK  Name = 
REMARK  7 active torsions:
REMARK  status: ('A' for Active; 'I' for Inactive)
REMARK    1  A    between atoms: C_1  and  C_2
REMARK    2  A    between atoms: C_7  and  O_8
REMARK    3  A    between atoms: C_9  and  C_10
REMARK    4  A    between atoms: N_12  and  C_13
REMARK    5  A    between atoms: C_15  and  C_16
REMARK    6  A    between atoms: C_18  and  C_19
REMARK    7  A    between atoms: C_18  and  C_20
REMARK                            x       y       z     vdW  Elec       q    Type
REMARK                         _______ _______ _______ _____ _____    ______ ____
ROOT
ATOM      1  C   UNL     1      -1.594  11.998  23.178  0.00  0.00    +0.000 C 
ATOM      2  C   UNL     1      -0.971  12.537  21.931  0.00  0.00    +0.000 A 
ATOM      3  C   UNL     1      -0.945  13.847  21.621  0.00  0.00    +0.000 A 
ATOM      4  C   UNL     1      -0.281  14.338  20.438  0.00  0.00    +0.000 A 
ATOM      5  C   UNL     1       0.349  13.476  19.629  0.00  0.00    +0.000 A 
ATOM      6  N   UNL     1       0.377  12.097  19.840  0.00  0.00    +0.000 N 
ATOM      7  C   UNL     1       1.093  11.198  19.046  0.00  0.00    +0.000 A 
ATOM      8  C   UNL     1       1.086   9.868  19.273  0.00  0.00    +0.000 A 
ATOM      9  C   UNL     1       0.237   9.390  20.402  0.00  0.00    +0.000 A 
ATOM     10  O   UNL     1       0.095   8.183  20.576  0.00  0.00    +0.000 OA
ATOM     11  N   UNL     1      -0.354  10.309  21.239  0.00  0.00    +0.000 NA
ATOM     12  C   UNL     1      -0.290  11.582  20.963  0.00  0.00    +0.000 A 
ENDROOT
BRANCH   8  13
ATOM     13  C   UNL     1       1.825   8.923  18.371  0.00  0.00    +0.000 C 
ATOM     14  O   UNL     1       2.012   9.178  17.181  0.00  0.00    +0.000 OA
ATOM     15  N   UNL     1       2.232   7.726  18.923  0.00  0.00    +0.000 N 
ATOM     16  H   UNL     1       1.746   7.464  19.781  0.00  0.00    +0.000 HD
BRANCH  15  17
ATOM     17  C   UNL     1       2.728   6.617  18.100  0.00  0.00    +0.000 C 
ATOM     18  C   UNL     1       4.225   6.257  18.288  0.00  0.00    +0.000 C 
ATOM     19  C   UNL     1       4.585   5.134  19.291  0.00  0.00    +0.000 C 
ATOM     20  C   UNL     1       5.961   4.537  18.962  0.00  0.00    +0.000 C 
ATOM     21  C   UNL     1       3.546   4.003  19.365  0.00  0.00    +0.000 C 
ATOM     22  C   UNL     1       2.112   4.537  19.504  0.00  0.00    +0.000 C 
ATOM     23  C   UNL     1       1.959   5.315  20.825  0.00  0.00    +0.000 C 
ATOM     24  C   UNL     1       1.106   3.373  19.536  0.00  0.00    +0.000 C 
ATOM     25  C   UNL     1       1.824   5.389  18.249  0.00  0.00    +0.000 C 
ENDBRANCH  15  17
ENDBRANCH   8  13
BRANCH   7  26
ATOM     26  O   UNL     1       1.868  11.733  18.031  0.00  0.00    +0.000 OA
ATOM     27  H   UNL     1       2.432  11.016  17.701  0.00  0.00    +0.000 HD
ENDBRANCH   7  26
TORSDOF 3
ENDMDL
