MODEL 1
REMARK VINA RESULT:      -7.7      0.000      0.000
REMARK  Name = 
REMARK  2 active torsions:
REMARK  status: ('A' for Active; 'I' for Inactive)
REMARK    1  A    between atoms: C_4  and  C_5
REMARK    2  A    between atoms: N_9  and  N_10
REMARK                            x       y       z     vdW  Elec       q    Type
REMARK                         _______ _______ _______ _____ _____    ______ ____
ROOT
ATOM      1  C   UNL     1       7.057   5.375  16.316  0.00  0.00    +0.000 A 
ATOM      2  C   UNL     1       6.745   4.572  17.420  0.00  0.00    +0.000 A 
ATOM      3  S   UNL     1       7.183   5.394  18.821  0.00  0.00    +0.000 S 
ATOM      4  C   UNL     1       7.710   6.745  17.978  0.00  0.00    +0.000 A 
ATOM      5  N   UNL     1       8.262   7.900  18.583  0.00  0.00    +0.000 N 
ATOM      6  N   UNL     1       7.579   6.590  16.643  0.00  0.00    +0.000 NA
ATOM      7  H   UNL     1       8.499   7.866  19.584  0.00  0.00    +0.000 HD
ENDROOT
BRANCH   5   8
ATOM      8  N   UNL     1       8.405   9.070  17.868  0.00  0.00    +0.000 N 
ATOM      9  C   UNL     1       8.795  10.290  18.499  0.00  0.00    +0.000 C 
ATOM     10  N   UNL     1       9.305  10.225  19.693  0.00  0.00    +0.000 NA
ATOM     11  C   UNL     1       9.843  11.256  20.573  0.00  0.00    +0.000 C 
ATOM     12  C   UNL     1       9.394  12.674  20.254  0.00  0.00    +0.000 C 
ATOM     13  C   UNL     1      10.023  13.274  18.990  0.00  0.00    +0.000 C 
ATOM     14  C   UNL     1       9.975  12.386  17.740  0.00  0.00    +0.000 C 
ATOM     15  C   UNL     1       8.691  11.571  17.673  0.00  0.00    +0.000 C 
ATOM     16  H   UNL     1       8.141   9.085  16.870  0.00  0.00    +0.000 HD
ENDBRANCH   5   8
BRANCH   1  20
ATOM     17  C   UNL     1       6.756   4.108  12.214  0.00  0.00    +0.000 A 
ATOM     18  C   UNL     1       5.874   3.590  13.162  0.00  0.00    +0.000 A 
ATOM     19  C   UNL     1       5.948   4.007  14.495  0.00  0.00    +0.000 A 
ATOM     20  C   UNL     1       6.912   4.954  14.896  0.00  0.00    +0.000 A 
ATOM     21  C   UNL     1       7.788   5.477  13.922  0.00  0.00    +0.000 A 
ATOM     22  C   UNL     1       7.711   5.053  12.593  0.00  0.00    +0.000 A 
ENDBRANCH   1  20
TORSDOF 2
ENDMDL
MODEL 2
REMARK VINA RESULT:      -7.7      0.091      1.086
REMARK  Name = 
REMARK  2 active torsions:
REMARK  status: ('A' for Active; 'I' for Inactive)
REMARK    1  A    between atoms: C_4  and  C_5
REMARK    2  A    between atoms: N_9  and  N_10
REMARK                            x       y       z     vdW  Elec       q    Type
REMARK                         _______ _______ _______ _____ _____    ______ ____
ROOT
ATOM      1  C   UNL     1       7.050   5.345  16.286  0.00  0.00    +0.000 A 
ATOM      2  C   UNL     1       6.650   4.568  17.380  0.00  0.00    +0.000 A 
ATOM      3  S   UNL     1       7.028   5.400  18.794  0.00  0.00    +0.000 S 
ATOM      4  C   UNL     1       7.643   6.722  17.965  0.00  0.00    +0.000 A 
ATOM      5  N   UNL     1       8.191   7.870  18.586  0.00  0.00    +0.000 N 
ATOM      6  N   UNL     1       7.587   6.550  16.627  0.00  0.00    +0.000 NA
ATOM      7  H   UNL     1       8.367   7.845  19.600  0.00  0.00    +0.000 HD
ENDROOT
BRANCH   5   8
ATOM      8  N   UNL     1       8.410   9.024  17.865  0.00  0.00    +0.000 N 
ATOM      9  C   UNL     1       8.808  10.240  18.500  0.00  0.00    +0.000 C 
ATOM     10  N   UNL     1       9.252  10.175  19.721  0.00  0.00    +0.000 NA
ATOM     11  C   UNL     1       9.777  11.200  20.615  0.00  0.00    +0.000 C 
ATOM     12  C   UNL     1       9.393  12.628  20.255  0.00  0.00    +0.000 C 
ATOM     13  C   UNL     1      10.106  13.189  19.018  0.00  0.00    +0.000 C 
ATOM     14  C   UNL     1      10.095  12.285  17.778  0.00  0.00    +0.000 C 
ATOM     15  C   UNL     1       8.790  11.511  17.654  0.00  0.00    +0.000 C 
ATOM     16  H   UNL     1       8.200   9.034  16.855  0.00  0.00    +0.000 HD
ENDBRANCH   5   8
BRANCH   1  20
ATOM     17  C   UNL     1       6.720   4.124  12.172  0.00  0.00    +0.000 A 
ATOM     18  C   UNL     1       7.664   5.085  12.533  0.00  0.00    +0.000 A 
ATOM     19  C   UNL     1       7.796   5.478  13.868  0.00  0.00    +0.000 A 
ATOM     20  C   UNL     1       6.978   4.907  14.866  0.00  0.00    +0.000 A 
ATOM     21  C   UNL     1       6.037   3.928  14.486  0.00  0.00    +0.000 A 
ATOM     22  C   UNL     1       5.908   3.544  13.149  0.00  0.00    +0.000 A 
ENDBRANCH   1  20
TORSDOF 2
ENDMDL
MODEL 3
REMARK VINA RESULT:      -7.7      4.973      7.879
REMARK  Name = 
REMARK  2 active torsions:
REMARK  status: ('A' for Active; 'I' for Inactive)
REMARK    1  A    between atoms: C_4  and  C_5
REMARK    2  A    between atoms: N_9  and  N_10
REMARK                            x       y       z     vdW  Elec       q    Type
REMARK                         _______ _______ _______ _____ _____    ______ ____
ROOT
ATOM      1  C   UNL     1       2.400   6.116  19.973  0.00  0.00    +0.000 A 
ATOM      2  C   UNL     1       1.640   5.257  20.777  0.00  0.00    +0.000 A 
ATOM      3  S   UNL     1       2.406   3.760  20.835  0.00  0.00    +0.000 S 
ATOM      4  C   UNL     1       3.685   4.270  19.876  0.00  0.00    +0.000 A 
ATOM      5  N   UNL     1       4.767   3.447  19.483  0.00  0.00    +0.000 N 
ATOM      6  N   UNL     1       3.545   5.557  19.492  0.00  0.00    +0.000 NA
ATOM      7  H   UNL     1       4.706   2.435  19.661  0.00  0.00    +0.000 HD
ENDROOT
BRANCH   5   8
ATOM      8  N   UNL     1       5.912   3.996  18.946  0.00  0.00    +0.000 N 
ATOM      9  C   UNL     1       6.098   4.105  17.534  0.00  0.00    +0.000 C 
ATOM     10  N   UNL     1       5.058   3.960  16.767  0.00  0.00    +0.000 NA
ATOM     11  C   UNL     1       4.900   4.063  15.321  0.00  0.00    +0.000 C 
ATOM     12  C   UNL     1       6.186   3.920  14.521  0.00  0.00    +0.000 C 
ATOM     13  C   UNL     1       7.132   5.124  14.611  0.00  0.00    +0.000 C 
ATOM     14  C   UNL     1       7.418   5.638  16.028  0.00  0.00    +0.000 C 
ATOM     15  C   UNL     1       7.487   4.502  17.039  0.00  0.00    +0.000 C 
ATOM     16  H   UNL     1       6.687   4.257  19.574  0.00  0.00    +0.000 HD
ENDBRANCH   5   8
BRANCH   1  20
ATOM     17  C   UNL     1       1.157  10.065  18.797  0.00  0.00    +0.000 A 
ATOM     18  C   UNL     1       0.927   9.629  20.102  0.00  0.00    +0.000 A 
ATOM     19  C   UNL     1       1.342   8.356  20.503  0.00  0.00    +0.000 A 
ATOM     20  C   UNL     1       1.998   7.498  19.597  0.00  0.00    +0.000 A 
ATOM     21  C   UNL     1       2.234   7.958  18.285  0.00  0.00    +0.000 A 
ATOM     22  C   UNL     1       1.813   9.231  17.890  0.00  0.00    +0.000 A 
ENDBRANCH   1  20
TORSDOF 2
ENDMDL
MODEL 4
REMARK VINA RESULT:      -7.5      4.968      7.931
REMARK  Name = 
REMARK  2 active torsions:
REMARK  status: ('A' for Active; 'I' for Inactive)
REMARK    1  A    between atoms: C_4  and  C_5
REMARK    2  A    between atoms: N_9  and  N_10
REMARK                            x       y       z     vdW  Elec       q    Type
REMARK                         _______ _______ _______ _____ _____    ______ ____
ROOT
ATOM      1  C   UNL     1       2.417   5.903  20.015  0.00  0.00    +0.000 A 
ATOM      2  C   UNL     1       1.691   5.000  20.802  0.00  0.00    +0.000 A 
ATOM      3  S   UNL     1       2.501   3.525  20.809  0.00  0.00    +0.000 S 
ATOM      4  C   UNL     1       3.754   4.099  19.852  0.00  0.00    +0.000 A 
ATOM      5  N   UNL     1       4.855   3.318  19.425  0.00  0.00    +0.000 N 
ATOM      6  N   UNL     1       3.573   5.391  19.506  0.00  0.00    +0.000 NA
ATOM      7  H   UNL     1       4.825   2.301  19.575  0.00  0.00    +0.000 HD
ENDROOT
BRANCH   5   8
ATOM      8  N   UNL     1       5.977   3.916  18.892  0.00  0.00    +0.000 N 
ATOM      9  C   UNL     1       6.147   4.065  17.482  0.00  0.00    +0.000 C 
ATOM     10  N   UNL     1       5.105   3.907  16.721  0.00  0.00    +0.000 NA
ATOM     11  C   UNL     1       4.931   4.041  15.279  0.00  0.00    +0.000 C 
ATOM     12  C   UNL     1       6.214   3.957  14.465  0.00  0.00    +0.000 C 
ATOM     13  C   UNL     1       7.123   5.186  14.577  0.00  0.00    +0.000 C 
ATOM     14  C   UNL     1       7.407   5.674  16.004  0.00  0.00    +0.000 C 
ATOM     15  C   UNL     1       7.519   4.516  16.986  0.00  0.00    +0.000 C 
ATOM     16  H   UNL     1       6.750   4.185  19.520  0.00  0.00    +0.000 HD
ENDBRANCH   5   8
BRANCH   1  20
ATOM     17  C   UNL     1       1.214   9.941  19.138  0.00  0.00    +0.000 A 
ATOM     18  C   UNL     1       1.805   9.165  18.141  0.00  0.00    +0.000 A 
ATOM     19  C   UNL     1       2.183   7.846  18.406  0.00  0.00    +0.000 A 
ATOM     20  C   UNL     1       1.972   7.283  19.682  0.00  0.00    +0.000 A 
ATOM     21  C   UNL     1       1.363   8.077  20.675  0.00  0.00    +0.000 A 
ATOM     22  C   UNL     1       0.990   9.396  20.404  0.00  0.00    +0.000 A 
ENDBRANCH   1  20
TORSDOF 2
ENDMDL
MODEL 5
REMARK VINA RESULT:      -7.5      6.190      6.890
REMARK  Name = 
REMARK  2 active torsions:
REMARK  status: ('A' for Active; 'I' for Inactive)
REMARK    1  A    between atoms: C_4  and  C_5
REMARK    2  A    between atoms: N_9  and  N_10
REMARK                            x       y       z     vdW  Elec       q    Type
REMARK                         _______ _______ _______ _____ _____    ______ ____
ROOT
ATOM      1  C   UNL     1       3.949   4.546  18.840  0.00  0.00    +0.000 A 
ATOM      2  C   UNL     1       3.507   3.427  19.557  0.00  0.00    +0.000 A 
ATOM      3  S   UNL     1       2.419   3.941  20.733  0.00  0.00    +0.000 S 
ATOM      4  C   UNL     1       2.520   5.548  20.262  0.00  0.00    +0.000 A 
ATOM      5  N   UNL     1       1.820   6.609  20.886  0.00  0.00    +0.000 N 
ATOM      6  N   UNL     1       3.377   5.719  19.234  0.00  0.00    +0.000 NA
ATOM      7  H   UNL     1       1.335   6.423  21.774  0.00  0.00    +0.000 HD
ENDROOT
BRANCH   5   8
ATOM      8  N   UNL     1       1.723   7.842  20.278  0.00  0.00    +0.000 N 
ATOM      9  C   UNL     1       0.979   8.910  20.865  0.00  0.00    +0.000 C 
ATOM     10  N   UNL     1       0.644   8.805  22.117  0.00  0.00    +0.000 NA
ATOM     11  C   UNL     1      -0.054   9.721  23.011  0.00  0.00    +0.000 C 
ATOM     12  C   UNL     1      -0.882  10.793  22.318  0.00  0.00    +0.000 C 
ATOM     13  C   UNL     1      -0.061  11.902  21.649  0.00  0.00    +0.000 C 
ATOM     14  C   UNL     1       1.089  11.426  20.751  0.00  0.00    +0.000 C 
ATOM     15  C   UNL     1       0.733  10.148  20.006  0.00  0.00    +0.000 C 
ATOM     16  H   UNL     1       2.126   7.972  19.337  0.00  0.00    +0.000 HD
ENDBRANCH   5   8
BRANCH   1  20
ATOM     17  C   UNL     1       6.930   4.567  15.736  0.00  0.00    +0.000 A 
ATOM     18  C   UNL     1       7.325   4.639  17.072  0.00  0.00    +0.000 A 
ATOM     19  C   UNL     1       6.368   4.614  18.091  0.00  0.00    +0.000 A 
ATOM     20  C   UNL     1       4.996   4.515  17.783  0.00  0.00    +0.000 A 
ATOM     21  C   UNL     1       4.614   4.431  16.428  0.00  0.00    +0.000 A 
ATOM     22  C   UNL     1       5.575   4.460  15.414  0.00  0.00    +0.000 A 
ENDBRANCH   1  20
TORSDOF 2
ENDMDL
MODEL 6
REMARK VINA RESULT:      -7.5      6.449      6.978
REMARK  Name = 
REMARK  2 active torsions:
REMARK  status: ('A' for Active; 'I' for Inactive)
REMARK    1  A    between atoms: C_4  and  C_5
REMARK    2  A    between atoms: N_9  and  N_10
REMARK                            x       y       z     vdW  Elec       q    Type
REMARK                         _______ _______ _______ _____ _____    ______ ____
ROOT
ATOM      1  C   UNL     1       3.543   4.948  18.461  0.00  0.00    +0.000 A 
ATOM      2  C   UNL     1       3.285   3.802  19.223  0.00  0.00    +0.000 A 
ATOM      3  S   UNL     1       2.420   4.254  20.594  0.00  0.00    +0.000 S 
ATOM      4  C   UNL     1       2.373   5.871  20.148  0.00  0.00    +0.000 A 
ATOM      5  N   UNL     1       1.766   6.894  20.916  0.00  0.00    +0.000 N 
ATOM      6  N   UNL     1       3.014   6.091  18.981  0.00  0.00    +0.000 NA
ATOM      7  H   UNL     1       1.465   6.677  21.875  0.00  0.00    +0.000 HD
ENDROOT
BRANCH   5   8
ATOM      8  N   UNL     1       1.513   8.132  20.364  0.00  0.00    +0.000 N 
ATOM      9  C   UNL     1       0.745   9.117  21.057  0.00  0.00    +0.000 C 
ATOM     10  N   UNL     1       0.542   8.950  22.330  0.00  0.00    +0.000 NA
ATOM     11  C   UNL     1      -0.138   9.779  23.319  0.00  0.00    +0.000 C 
ATOM     12  C   UNL     1      -1.113  10.796  22.745  0.00  0.00    +0.000 C 
ATOM     13  C   UNL     1      -0.452  11.989  22.042  0.00  0.00    +0.000 C 
ATOM     14  C   UNL     1       0.640  11.636  21.024  0.00  0.00    +0.000 C 
ATOM     15  C   UNL     1       0.318  10.354  20.269  0.00  0.00    +0.000 C 
ATOM     16  H   UNL     1       1.811   8.321  19.395  0.00  0.00    +0.000 HD
ENDBRANCH   5   8
BRANCH   1  20
ATOM     17  C   UNL     1       6.027   5.093  14.949  0.00  0.00    +0.000 A 
ATOM     18  C   UNL     1       5.752   3.864  15.550  0.00  0.00    +0.000 A 
ATOM     19  C   UNL     1       4.931   3.800  16.680  0.00  0.00    +0.000 A 
ATOM     20  C   UNL     1       4.371   4.974  17.225  0.00  0.00    +0.000 A 
ATOM     21  C   UNL     1       4.649   6.207  16.599  0.00  0.00    +0.000 A 
ATOM     22  C   UNL     1       5.473   6.263  15.472  0.00  0.00    +0.000 A 
ENDBRANCH   1  20
TORSDOF 2
ENDMDL
MODEL 7
REMARK VINA RESULT:      -7.5      6.316      6.979
REMARK  Name = 
REMARK  2 active torsions:
REMARK  status: ('A' for Active; 'I' for Inactive)
REMARK    1  A    between atoms: C_4  and  C_5
REMARK    2  A    between atoms: N_9  and  N_10
REMARK                            x       y       z     vdW  Elec       q    Type
REMARK                         _______ _______ _______ _____ _____    ______ ____
ROOT
ATOM      1  C   UNL     1       3.850   4.662  18.956  0.00  0.00    +0.000 A 
ATOM      2  C   UNL     1       3.409   3.543  19.674  0.00  0.00    +0.000 A 
ATOM      3  S   UNL     1       2.306   4.053  20.838  0.00  0.00    +0.000 S 
ATOM      4  C   UNL     1       2.401   5.659  20.360  0.00  0.00    +0.000 A 
ATOM      5  N   UNL     1       1.688   6.718  20.973  0.00  0.00    +0.000 N 
ATOM      6  N   UNL     1       3.267   5.832  19.339  0.00  0.00    +0.000 NA
ATOM      7  H   UNL     1       1.196   6.533  21.858  0.00  0.00    +0.000 HD
ENDROOT
BRANCH   5   8
ATOM      8  N   UNL     1       1.589   7.948  20.358  0.00  0.00    +0.000 N 
ATOM      9  C   UNL     1       0.847   9.019  20.943  0.00  0.00    +0.000 C 
ATOM     10  N   UNL     1       0.518   8.922  22.198  0.00  0.00    +0.000 NA
ATOM     11  C   UNL     1      -0.175   9.843  23.090  0.00  0.00    +0.000 C 
ATOM     12  C   UNL     1      -1.006  10.911  22.395  0.00  0.00    +0.000 C 
ATOM     13  C   UNL     1      -0.189  12.016  21.716  0.00  0.00    +0.000 C 
ATOM     14  C   UNL     1       0.957  11.535  20.815  0.00  0.00    +0.000 C 
ATOM     15  C   UNL     1       0.597  10.253  20.078  0.00  0.00    +0.000 C 
ATOM     16  H   UNL     1       1.987   8.073  19.415  0.00  0.00    +0.000 HD
ENDBRANCH   5   8
BRANCH   1  20
ATOM     17  C   UNL     1       6.950   4.468  15.977  0.00  0.00    +0.000 A 
ATOM     18  C   UNL     1       5.612   4.422  15.584  0.00  0.00    +0.000 A 
ATOM     19  C   UNL     1       4.594   4.503  16.540  0.00  0.00    +0.000 A 
ATOM     20  C   UNL     1       4.907   4.633  17.909  0.00  0.00    +0.000 A 
ATOM     21  C   UNL     1       6.264   4.690  18.288  0.00  0.00    +0.000 A 
ATOM     22  C   UNL     1       7.276   4.605  17.328  0.00  0.00    +0.000 A 
ENDBRANCH   1  20
TORSDOF 2
ENDMDL
MODEL 8
REMARK VINA RESULT:      -7.5      6.530      7.089
REMARK  Name = 
REMARK  2 active torsions:
REMARK  status: ('A' for Active; 'I' for Inactive)
REMARK    1  A    between atoms: C_4  and  C_5
REMARK    2  A    between atoms: N_9  and  N_10
REMARK                            x       y       z     vdW  Elec       q    Type
REMARK                         _______ _______ _______ _____ _____    ______ ____
ROOT
ATOM      1  C   UNL     1       3.471   5.046  18.528  0.00  0.00    +0.000 A 
ATOM      2  C   UNL     1       3.176   3.899  19.276  0.00  0.00    +0.000 A 
ATOM      3  S   UNL     1       2.284   4.357  20.628  0.00  0.00    +0.000 S 
ATOM      4  C   UNL     1       2.273   5.977  20.191  0.00  0.00    +0.000 A 
ATOM      5  N   UNL     1       1.663   7.005  20.950  0.00  0.00    +0.000 N 
ATOM      6  N   UNL     1       2.948   6.194  19.042  0.00  0.00    +0.000 NA
ATOM      7  H   UNL     1       1.334   6.786  21.900  0.00  0.00    +0.000 HD
ENDROOT
BRANCH   5   8
ATOM      8  N   UNL     1       1.443   8.250  20.400  0.00  0.00    +0.000 N 
ATOM      9  C   UNL     1       0.670   9.241  21.077  0.00  0.00    +0.000 C 
ATOM     10  N   UNL     1       0.429   9.069  22.343  0.00  0.00    +0.000 NA
ATOM     11  C   UNL     1      -0.267   9.901  23.317  0.00  0.00    +0.000 C 
ATOM     12  C   UNL     1      -1.211  10.937  22.723  0.00  0.00    +0.000 C 
ATOM     13  C   UNL     1      -0.513  12.124  22.048  0.00  0.00    +0.000 C 
ATOM     14  C   UNL     1       0.603  11.762  21.058  0.00  0.00    +0.000 C 
ATOM     15  C   UNL     1       0.284  10.489  20.286  0.00  0.00    +0.000 C 
ATOM     16  H   UNL     1       1.772   8.441  19.441  0.00  0.00    +0.000 HD
ENDBRANCH   5   8
BRANCH   1  20
ATOM     17  C   UNL     1       5.867   5.040  14.953  0.00  0.00    +0.000 A 
ATOM     18  C   UNL     1       5.440   6.252  15.495  0.00  0.00    +0.000 A 
ATOM     19  C   UNL     1       4.677   6.270  16.666  0.00  0.00    +0.000 A 
ATOM     20  C   UNL     1       4.332   5.066  17.314  0.00  0.00    +0.000 A 
ATOM     21  C   UNL     1       4.782   3.850  16.760  0.00  0.00    +0.000 A 
ATOM     22  C   UNL     1       5.541   3.839  15.587  0.00  0.00    +0.000 A 
ENDBRANCH   1  20
TORSDOF 2
ENDMDL
MODEL 9
REMARK VINA RESULT:      -7.4      4.248      7.063
REMARK  Name = 
REMARK  2 active torsions:
REMARK  status: ('A' for Active; 'I' for Inactive)
REMARK    1  A    between atoms: C_4  and  C_5
REMARK    2  A    between atoms: N_9  and  N_10
REMARK                            x       y       z     vdW  Elec       q    Type
REMARK                         _______ _______ _______ _____ _____    ______ ____
ROOT
ATOM      1  C   UNL     1       6.922   5.199  15.952  0.00  0.00    +0.000 A 
ATOM      2  C   UNL     1       7.732   6.262  16.370  0.00  0.00    +0.000 A 
ATOM      3  S   UNL     1       7.528   6.471  18.028  0.00  0.00    +0.000 S 
ATOM      4  C   UNL     1       6.457   5.186  18.155  0.00  0.00    +0.000 A 
ATOM      5  N   UNL     1       5.834   4.781  19.360  0.00  0.00    +0.000 N 
ATOM      6  N   UNL     1       6.230   4.599  16.960  0.00  0.00    +0.000 NA
ATOM      7  H   UNL     1       5.914   5.391  20.185  0.00  0.00    +0.000 HD
ENDROOT
BRANCH   5   8
ATOM      8  N   UNL     1       5.200   3.560  19.449  0.00  0.00    +0.000 N 
ATOM      9  C   UNL     1       3.781   3.460  19.573  0.00  0.00    +0.000 C 
ATOM     10  N   UNL     1       3.068   4.512  19.299  0.00  0.00    +0.000 NA
ATOM     11  C   UNL     1       1.626   4.724  19.274  0.00  0.00    +0.000 C 
ATOM     12  C   UNL     1       0.812   3.710  20.066  0.00  0.00    +0.000 C 
ATOM     13  C   UNL     1       0.727   2.319  19.427  0.00  0.00    +0.000 C 
ATOM     14  C   UNL     1       2.062   1.717  18.968  0.00  0.00    +0.000 C 
ATOM     15  C   UNL     1       3.202   2.087  19.907  0.00  0.00    +0.000 C 
ATOM     16  H   UNL     1       5.769   2.702  19.514  0.00  0.00    +0.000 HD
ENDBRANCH   5   8
BRANCH   1  20
ATOM     17  C   UNL     1       6.534   3.903  11.866  0.00  0.00    +0.000 A 
ATOM     18  C   UNL     1       5.596   3.491  12.813  0.00  0.00    +0.000 A 
ATOM     19  C   UNL     1       5.699   3.920  14.140  0.00  0.00    +0.000 A 
ATOM     20  C   UNL     1       6.749   4.773  14.537  0.00  0.00    +0.000 A 
ATOM     21  C   UNL     1       7.681   5.191  13.565  0.00  0.00    +0.000 A 
ATOM     22  C   UNL     1       7.575   4.755  12.242  0.00  0.00    +0.000 A 
ENDBRANCH   1  20
TORSDOF 2
ENDMDL
