MODEL 1
REMARK VINA RESULT:      -6.0      0.000      0.000
REMARK  Name = 
REMARK  6 active torsions:
REMARK  status: ('A' for Active; 'I' for Inactive)
REMARK    1  A    between atoms: C_1  and  N_2
REMARK    2  A    between atoms: N_2  and  C_3
REMARK    3  A    between atoms: N_2  and  C_4
REMARK    4  A    between atoms: C_4  and  C_5
REMARK    5  A    between atoms: C_10  and  O_11
REMARK    6  A    between atoms: C_10  and  C_12
REMARK                            x       y       z     vdW  Elec       q    Type
REMARK                         _______ _______ _______ _____ _____    ______ ____
ROOT
ATOM      1  C   UNL     1       3.246   4.947  17.967  0.00  0.00    +0.000 C 
ATOM      2  C   UNL     1       1.771   4.636  17.627  0.00  0.00    +0.000 C 
ATOM      3  S   UNL     1       1.148   3.206  18.581  0.00  0.00    +0.000 S 
ATOM      4  C   UNL     1       1.353   3.978  20.211  0.00  0.00    +0.000 C 
ATOM      5  C   UNL     1       2.779   4.527  20.469  0.00  0.00    +0.000 C 
ATOM      6  C   UNL     1       3.288   5.587  19.420  0.00  0.00    +0.000 C 
ENDROOT
BRANCH   6   7
ATOM      7  C   UNL     1       2.477   6.912  19.482  0.00  0.00    +0.000 A 
ATOM      8  C   UNL     1       1.780   7.358  20.636  0.00  0.00    +0.000 A 
ATOM      9  C   UNL     1       1.036   8.539  20.625  0.00  0.00    +0.000 A 
ATOM     10  C   UNL     1       0.985   9.325  19.478  0.00  0.00    +0.000 A 
ATOM     11 CL   UNL     1       0.037  10.801  19.472  0.00  0.00    +0.000 Cl
ATOM     12  C   UNL     1       1.695   8.937  18.342  0.00  0.00    +0.000 A 
ATOM     13  C   UNL     1       2.436   7.750  18.343  0.00  0.00    +0.000 A 
ENDBRANCH   6   7
BRANCH   6  14
ATOM     14  O   UNL     1       4.621   5.964  19.717  0.00  0.00    +0.000 OA
ATOM     15  H   UNL     1       4.926   5.511  20.545  0.00  0.00    +0.000 HD
ENDBRANCH   6  14
BRANCH   1  16
ATOM     16  C   UNL     1       4.213   3.702  17.842  0.00  0.00    +0.000 C 
BRANCH  16  18
ATOM     17  C   UNL     1       5.009   4.632  15.776  0.00  0.00    +0.000 C 
ATOM     18  N   UNL     1       5.397   3.809  16.942  0.00  0.00    +0.000 NA
ATOM     19  C   UNL     1       6.583   4.422  17.569  0.00  0.00    +0.000 C 
ENDBRANCH  16  18
ENDBRANCH   1  16
TORSDOF 4
ENDMDL
MODEL 2
REMARK VINA RESULT:      -6.0      0.115      1.143
REMARK  Name = 
REMARK  6 active torsions:
REMARK  status: ('A' for Active; 'I' for Inactive)
REMARK    1  A    between atoms: C_1  and  N_2
REMARK    2  A    between atoms: N_2  and  C_3
REMARK    3  A    between atoms: N_2  and  C_4
REMARK    4  A    between atoms: C_4  and  C_5
REMARK    5  A    between atoms: C_10  and  O_11
REMARK    6  A    between atoms: C_10  and  C_12
REMARK                            x       y       z     vdW  Elec       q    Type
REMARK                         _______ _______ _______ _____ _____    ______ ____
ROOT
ATOM      1  C   UNL     1       3.229   4.922  17.999  0.00  0.00    +0.000 C 
ATOM      2  C   UNL     1       1.757   4.605  17.653  0.00  0.00    +0.000 C 
ATOM      3  S   UNL     1       1.110   3.229  18.669  0.00  0.00    +0.000 S 
ATOM      4  C   UNL     1       1.298   4.080  20.260  0.00  0.00    +0.000 C 
ATOM      5  C   UNL     1       2.725   4.631  20.511  0.00  0.00    +0.000 C 
ATOM      6  C   UNL     1       3.257   5.633  19.418  0.00  0.00    +0.000 C 
ENDROOT
BRANCH   6   7
ATOM      7  C   UNL     1       2.455   6.966  19.402  0.00  0.00    +0.000 A 
ATOM      8  C   UNL     1       2.339   7.803  18.261  0.00  0.00    +0.000 A 
ATOM      9  C   UNL     1       1.636   9.009  18.313  0.00  0.00    +0.000 A 
ATOM     10  C   UNL     1       1.008   9.404  19.489  0.00  0.00    +0.000 A 
ATOM     11 CL   UNL     1       0.138  10.927  19.546  0.00  0.00    +0.000 Cl
ATOM     12  C   UNL     1       1.067   8.583  20.615  0.00  0.00    +0.000 A 
ATOM     13  C   UNL     1       1.776   7.377  20.573  0.00  0.00    +0.000 A 
ENDBRANCH   6   7
BRANCH   6  14
ATOM     14  O   UNL     1       4.588   6.015  19.715  0.00  0.00    +0.000 OA
ATOM     15  H   UNL     1       5.063   6.269  18.882  0.00  0.00    +0.000 HD
ENDBRANCH   6  14
BRANCH   1  16
ATOM     16  C   UNL     1       4.189   3.665  17.950  0.00  0.00    +0.000 C 
BRANCH  16  18
ATOM     17  C   UNL     1       4.983   4.390  15.803  0.00  0.00    +0.000 C 
ATOM     18  N   UNL     1       5.382   3.716  17.058  0.00  0.00    +0.000 NA
ATOM     19  C   UNL     1       6.535   4.438  17.626  0.00  0.00    +0.000 C 
ENDBRANCH  16  18
ENDBRANCH   1  16
TORSDOF 4
ENDMDL
MODEL 3
REMARK VINA RESULT:      -5.9      1.197      1.564
REMARK  Name = 
REMARK  6 active torsions:
REMARK  status: ('A' for Active; 'I' for Inactive)
REMARK    1  A    between atoms: C_1  and  N_2
REMARK    2  A    between atoms: N_2  and  C_3
REMARK    3  A    between atoms: N_2  and  C_4
REMARK    4  A    between atoms: C_4  and  C_5
REMARK    5  A    between atoms: C_10  and  O_11
REMARK    6  A    between atoms: C_10  and  C_12
REMARK                            x       y       z     vdW  Elec       q    Type
REMARK                         _______ _______ _______ _____ _____    ______ ____
ROOT
ATOM      1  C   UNL     1       3.609   5.012  17.085  0.00  0.00    +0.000 C 
ATOM      2  C   UNL     1       2.344   4.291  17.603  0.00  0.00    +0.000 C 
ATOM      3  S   UNL     1       2.759   3.019  18.850  0.00  0.00    +0.000 S 
ATOM      4  C   UNL     1       3.460   4.177  20.058  0.00  0.00    +0.000 C 
ATOM      5  C   UNL     1       4.569   5.092  19.478  0.00  0.00    +0.000 C 
ATOM      6  C   UNL     1       4.136   5.966  18.240  0.00  0.00    +0.000 C 
ENDROOT
BRANCH   6   7
ATOM      7  C   UNL     1       3.076   7.039  18.619  0.00  0.00    +0.000 A 
ATOM      8  C   UNL     1       2.444   7.111  19.889  0.00  0.00    +0.000 A 
ATOM      9  C   UNL     1       1.471   8.073  20.164  0.00  0.00    +0.000 A 
ATOM     10  C   UNL     1       1.117   9.008  19.196  0.00  0.00    +0.000 A 
ATOM     11 CL   UNL     1      -0.116  10.206  19.548  0.00  0.00    +0.000 Cl
ATOM     12  C   UNL     1       1.751   8.992  17.954  0.00  0.00    +0.000 A 
ATOM     13  C   UNL     1       2.721   8.025  17.669  0.00  0.00    +0.000 A 
ENDBRANCH   6   7
BRANCH   6  14
ATOM     14  O   UNL     1       5.242   6.706  17.757  0.00  0.00    +0.000 OA
ATOM     15  H   UNL     1       5.039   7.074  16.858  0.00  0.00    +0.000 HD
ENDBRANCH   6  14
BRANCH   1  16
ATOM     16  C   UNL     1       4.740   4.037  16.564  0.00  0.00    +0.000 C 
BRANCH  16  18
ATOM     17  C   UNL     1       7.113   4.399  16.486  0.00  0.00    +0.000 C 
ATOM     18  N   UNL     1       5.849   4.607  15.747  0.00  0.00    +0.000 NA
ATOM     19  C   UNL     1       5.990   4.005  14.409  0.00  0.00    +0.000 C 
ENDBRANCH  16  18
ENDBRANCH   1  16
TORSDOF 4
ENDMDL
MODEL 4
REMARK VINA RESULT:      -5.9      1.141      1.881
REMARK  Name = 
REMARK  6 active torsions:
REMARK  status: ('A' for Active; 'I' for Inactive)
REMARK    1  A    between atoms: C_1  and  N_2
REMARK    2  A    between atoms: N_2  and  C_3
REMARK    3  A    between atoms: N_2  and  C_4
REMARK    4  A    between atoms: C_4  and  C_5
REMARK    5  A    between atoms: C_10  and  O_11
REMARK    6  A    between atoms: C_10  and  C_12
REMARK                            x       y       z     vdW  Elec       q    Type
REMARK                         _______ _______ _______ _____ _____    ______ ____
ROOT
ATOM      1  C   UNL     1       3.609   5.064  17.107  0.00  0.00    +0.000 C 
ATOM      2  C   UNL     1       2.319   4.360  17.584  0.00  0.00    +0.000 C 
ATOM      3  S   UNL     1       2.671   3.112  18.873  0.00  0.00    +0.000 S 
ATOM      4  C   UNL     1       3.325   4.291  20.087  0.00  0.00    +0.000 C 
ATOM      5  C   UNL     1       4.464   5.189  19.538  0.00  0.00    +0.000 C 
ATOM      6  C   UNL     1       4.090   6.039  18.265  0.00  0.00    +0.000 C 
ENDROOT
BRANCH   6   7
ATOM      7  C   UNL     1       3.021   7.125  18.576  0.00  0.00    +0.000 A 
ATOM      8  C   UNL     1       2.573   8.085  17.631  0.00  0.00    +0.000 A 
ATOM      9  C   UNL     1       1.637   9.062  17.974  0.00  0.00    +0.000 A 
ATOM     10  C   UNL     1       1.099   9.097  19.257  0.00  0.00    +0.000 A 
ATOM     11 CL   UNL     1      -0.069  10.336  19.682  0.00  0.00    +0.000 Cl
ATOM     12  C   UNL     1       1.485   8.140  20.195  0.00  0.00    +0.000 A 
ATOM     13  C   UNL     1       2.430   7.163  19.861  0.00  0.00    +0.000 A 
ENDBRANCH   6   7
BRANCH   6  14
ATOM     14  O   UNL     1       5.221   6.763  17.815  0.00  0.00    +0.000 OA
ATOM     15  H   UNL     1       5.869   6.149  17.382  0.00  0.00    +0.000 HD
ENDBRANCH   6  14
BRANCH   1  16
ATOM     16  C   UNL     1       4.756   4.073  16.656  0.00  0.00    +0.000 C 
BRANCH  16  18
ATOM     17  C   UNL     1       7.132   4.420  16.628  0.00  0.00    +0.000 C 
ATOM     18  N   UNL     1       5.888   4.616  15.852  0.00  0.00    +0.000 NA
ATOM     19  C   UNL     1       6.058   3.978  14.534  0.00  0.00    +0.000 C 
ENDBRANCH  16  18
ENDBRANCH   1  16
TORSDOF 4
ENDMDL
MODEL 5
REMARK VINA RESULT:      -5.8      1.579      2.124
REMARK  Name = 
REMARK  6 active torsions:
REMARK  status: ('A' for Active; 'I' for Inactive)
REMARK    1  A    between atoms: C_1  and  N_2
REMARK    2  A    between atoms: N_2  and  C_3
REMARK    3  A    between atoms: N_2  and  C_4
REMARK    4  A    between atoms: C_4  and  C_5
REMARK    5  A    between atoms: C_10  and  O_11
REMARK    6  A    between atoms: C_10  and  C_12
REMARK                            x       y       z     vdW  Elec       q    Type
REMARK                         _______ _______ _______ _____ _____    ______ ____
ROOT
ATOM      1  C   UNL     1       3.836   4.484  17.106  0.00  0.00    +0.000 C 
ATOM      2  C   UNL     1       2.564   3.630  17.305  0.00  0.00    +0.000 C 
ATOM      3  S   UNL     1       2.962   1.984  17.994  0.00  0.00    +0.000 S 
ATOM      4  C   UNL     1       3.649   2.606  19.553  0.00  0.00    +0.000 C 
ATOM      5  C   UNL     1       4.766   3.665  19.367  0.00  0.00    +0.000 C 
ATOM      6  C   UNL     1       4.350   4.938  18.538  0.00  0.00    +0.000 C 
ENDROOT
BRANCH   6   7
ATOM      7  C   UNL     1       3.286   5.799  19.278  0.00  0.00    +0.000 A 
ATOM      8  C   UNL     1       2.582   5.365  20.432  0.00  0.00    +0.000 A 
ATOM      9  C   UNL     1       1.610   6.166  21.034  0.00  0.00    +0.000 A 
ATOM     10  C   UNL     1       1.329   7.429  20.526  0.00  0.00    +0.000 A 
ATOM     11 CL   UNL     1       0.097   8.422  21.284  0.00  0.00    +0.000 Cl
ATOM     12  C   UNL     1       2.034   7.902  19.420  0.00  0.00    +0.000 A 
ATOM     13  C   UNL     1       3.004   7.102  18.805  0.00  0.00    +0.000 A 
ENDBRANCH   6   7
BRANCH   6  14
ATOM     14  O   UNL     1       5.463   5.798  18.376  0.00  0.00    +0.000 OA
ATOM     15  H   UNL     1       5.591   6.012  17.416  0.00  0.00    +0.000 HD
ENDBRANCH   6  14
BRANCH   1  16
ATOM     16  C   UNL     1       4.972   3.767  16.272  0.00  0.00    +0.000 C 
BRANCH  16  18
ATOM     17  C   UNL     1       7.175   4.626  15.852  0.00  0.00    +0.000 C 
ATOM     18  N   UNL     1       5.790   4.586  15.333  0.00  0.00    +0.000 NA
ATOM     19  C   UNL     1       5.827   4.072  13.952  0.00  0.00    +0.000 C 
ENDBRANCH  16  18
ENDBRANCH   1  16
TORSDOF 4
ENDMDL
MODEL 6
REMARK VINA RESULT:      -5.8      3.857      5.973
REMARK  Name = 
REMARK  6 active torsions:
REMARK  status: ('A' for Active; 'I' for Inactive)
REMARK    1  A    between atoms: C_1  and  N_2
REMARK    2  A    between atoms: N_2  and  C_3
REMARK    3  A    between atoms: N_2  and  C_4
REMARK    4  A    between atoms: C_4  and  C_5
REMARK    5  A    between atoms: C_10  and  O_11
REMARK    6  A    between atoms: C_10  and  C_12
REMARK                            x       y       z     vdW  Elec       q    Type
REMARK                         _______ _______ _______ _____ _____    ______ ____
ROOT
ATOM      1  C   UNL     1       3.776   3.881  18.295  0.00  0.00    +0.000 C 
ATOM      2  C   UNL     1       2.780   4.717  17.459  0.00  0.00    +0.000 C 
ATOM      3  S   UNL     1       2.489   6.359  18.207  0.00  0.00    +0.000 S 
ATOM      4  C   UNL     1       4.202   6.933  18.050  0.00  0.00    +0.000 C 
ATOM      5  C   UNL     1       5.246   5.968  18.669  0.00  0.00    +0.000 C 
ATOM      6  C   UNL     1       5.224   4.501  18.093  0.00  0.00    +0.000 C 
ENDROOT
BRANCH   6   7
ATOM      7  C   UNL     1       5.664   4.448  16.602  0.00  0.00    +0.000 A 
ATOM      8  C   UNL     1       4.911   3.812  15.580  0.00  0.00    +0.000 A 
ATOM      9  C   UNL     1       5.371   3.762  14.262  0.00  0.00    +0.000 A 
ATOM     10  C   UNL     1       6.577   4.365  13.918  0.00  0.00    +0.000 A 
ATOM     11 CL   UNL     1       7.151   4.286  12.261  0.00  0.00    +0.000 Cl
ATOM     12  C   UNL     1       7.318   5.036  14.890  0.00  0.00    +0.000 A 
ATOM     13  C   UNL     1       6.867   5.083  16.214  0.00  0.00    +0.000 A 
ENDBRANCH   6   7
BRANCH   6  14
ATOM     14  O   UNL     1       6.168   3.697  18.777  0.00  0.00    +0.000 OA
ATOM     15  H   UNL     1       5.978   3.703  19.751  0.00  0.00    +0.000 HD
ENDBRANCH   6  14
BRANCH   1  16
ATOM     16  C   UNL     1       3.394   3.761  19.824  0.00  0.00    +0.000 C 
BRANCH  16  18
ATOM     17  C   UNL     1       1.998   2.852  21.555  0.00  0.00    +0.000 C 
ATOM     18  N   UNL     1       2.687   2.532  20.286  0.00  0.00    +0.000 NA
ATOM     19  C   UNL     1       1.689   2.012  19.334  0.00  0.00    +0.000 C 
ENDBRANCH  16  18
ENDBRANCH   1  16
TORSDOF 4
ENDMDL
MODEL 7
REMARK VINA RESULT:      -5.8      1.603      2.371
REMARK  Name = 
REMARK  6 active torsions:
REMARK  status: ('A' for Active; 'I' for Inactive)
REMARK    1  A    between atoms: C_1  and  N_2
REMARK    2  A    between atoms: N_2  and  C_3
REMARK    3  A    between atoms: N_2  and  C_4
REMARK    4  A    between atoms: C_4  and  C_5
REMARK    5  A    between atoms: C_10  and  O_11
REMARK    6  A    between atoms: C_10  and  C_12
REMARK                            x       y       z     vdW  Elec       q    Type
REMARK                         _______ _______ _______ _____ _____    ______ ____
ROOT
ATOM      1  C   UNL     1       3.881   4.484  17.018  0.00  0.00    +0.000 C 
ATOM      2  C   UNL     1       2.632   3.613  17.283  0.00  0.00    +0.000 C 
ATOM      3  S   UNL     1       3.075   2.022  18.067  0.00  0.00    +0.000 S 
ATOM      4  C   UNL     1       3.763   2.755  19.578  0.00  0.00    +0.000 C 
ATOM      5  C   UNL     1       4.852   3.826  19.315  0.00  0.00    +0.000 C 
ATOM      6  C   UNL     1       4.397   5.036  18.414  0.00  0.00    +0.000 C 
ENDROOT
BRANCH   6   7
ATOM      7  C   UNL     1       3.321   5.916  19.111  0.00  0.00    +0.000 A 
ATOM      8  C   UNL     1       2.919   7.194  18.640  0.00  0.00    +0.000 A 
ATOM      9  C   UNL     1       1.974   7.958  19.326  0.00  0.00    +0.000 A 
ATOM     10  C   UNL     1       1.380   7.465  20.484  0.00  0.00    +0.000 A 
ATOM     11 CL   UNL     1       0.202   8.438  21.345  0.00  0.00    +0.000 Cl
ATOM     12  C   UNL     1       1.721   6.195  20.948  0.00  0.00    +0.000 A 
ATOM     13  C   UNL     1       2.674   5.426  20.270  0.00  0.00    +0.000 A 
ENDBRANCH   6   7
BRANCH   6  14
ATOM     14  O   UNL     1       5.488   5.910  18.187  0.00  0.00    +0.000 OA
ATOM     15  H   UNL     1       6.263   5.403  17.834  0.00  0.00    +0.000 HD
ENDBRANCH   6  14
BRANCH   1  16
ATOM     16  C   UNL     1       5.026   3.743  16.217  0.00  0.00    +0.000 C 
BRANCH  16  18
ATOM     17  C   UNL     1       7.253   4.569  15.865  0.00  0.00    +0.000 C 
ATOM     18  N   UNL     1       5.885   4.545  15.301  0.00  0.00    +0.000 NA
ATOM     19  C   UNL     1       5.961   4.022  13.924  0.00  0.00    +0.000 C 
ENDBRANCH  16  18
ENDBRANCH   1  16
TORSDOF 4
ENDMDL
MODEL 8
REMARK VINA RESULT:      -5.8      1.617      1.964
REMARK  Name = 
REMARK  6 active torsions:
REMARK  status: ('A' for Active; 'I' for Inactive)
REMARK    1  A    between atoms: C_1  and  N_2
REMARK    2  A    between atoms: N_2  and  C_3
REMARK    3  A    between atoms: N_2  and  C_4
REMARK    4  A    between atoms: C_4  and  C_5
REMARK    5  A    between atoms: C_10  and  O_11
REMARK    6  A    between atoms: C_10  and  C_12
REMARK                            x       y       z     vdW  Elec       q    Type
REMARK                         _______ _______ _______ _____ _____    ______ ____
ROOT
ATOM      1  C   UNL     1       4.446   4.482  16.762  0.00  0.00    +0.000 C 
ATOM      2  C   UNL     1       3.069   3.801  16.932  0.00  0.00    +0.000 C 
ATOM      3  S   UNL     1       3.178   2.326  18.007  0.00  0.00    +0.000 S 
ATOM      4  C   UNL     1       3.712   3.226  19.489  0.00  0.00    +0.000 C 
ATOM      5  C   UNL     1       4.958   4.121  19.263  0.00  0.00    +0.000 C 
ATOM      6  C   UNL     1       4.807   5.204  18.129  0.00  0.00    +0.000 C 
ENDROOT
BRANCH   6   7
ATOM      7  C   UNL     1       3.758   6.294  18.492  0.00  0.00    +0.000 A 
ATOM      8  C   UNL     1       3.006   6.295  19.697  0.00  0.00    +0.000 A 
ATOM      9  C   UNL     1       2.050   7.279  19.955  0.00  0.00    +0.000 A 
ATOM     10  C   UNL     1       1.832   8.303  19.039  0.00  0.00    +0.000 A 
ATOM     11 CL   UNL     1       0.619   9.527  19.369  0.00  0.00    +0.000 Cl
ATOM     12  C   UNL     1       2.585   8.354  17.867  0.00  0.00    +0.000 A 
ATOM     13  C   UNL     1       3.540   7.367  17.597  0.00  0.00    +0.000 A 
ENDBRANCH   6   7
BRANCH   6  14
ATOM     14  O   UNL     1       6.023   5.912  17.968  0.00  0.00    +0.000 OA
ATOM     15  H   UNL     1       6.182   6.100  17.007  0.00  0.00    +0.000 HD
ENDBRANCH   6  14
BRANCH   1  16
ATOM     16  C   UNL     1       5.596   3.505  16.289  0.00  0.00    +0.000 C 
BRANCH  16  18
ATOM     17  C   UNL     1       5.284   4.134  13.992  0.00  0.00    +0.000 C 
ATOM     18  N   UNL     1       6.304   3.806  15.012  0.00  0.00    +0.000 NA
ATOM     19  C   UNL     1       7.255   4.930  15.095  0.00  0.00    +0.000 C 
ENDBRANCH  16  18
ENDBRANCH   1  16
TORSDOF 4
ENDMDL
MODEL 9
REMARK VINA RESULT:      -5.7      2.223      3.453
REMARK  Name = 
REMARK  6 active torsions:
REMARK  status: ('A' for Active; 'I' for Inactive)
REMARK    1  A    between atoms: C_1  and  N_2
REMARK    2  A    between atoms: N_2  and  C_3
REMARK    3  A    between atoms: N_2  and  C_4
REMARK    4  A    between atoms: C_4  and  C_5
REMARK    5  A    between atoms: C_10  and  O_11
REMARK    6  A    between atoms: C_10  and  C_12
REMARK                            x       y       z     vdW  Elec       q    Type
REMARK                         _______ _______ _______ _____ _____    ______ ____
ROOT
ATOM      1  C   UNL     1       4.341   4.806  19.133  0.00  0.00    +0.000 C 
ATOM      2  C   UNL     1       5.461   5.824  19.445  0.00  0.00    +0.000 C 
ATOM      3  S   UNL     1       6.718   5.869  18.118  0.00  0.00    +0.000 S 
ATOM      4  C   UNL     1       5.585   6.437  16.820  0.00  0.00    +0.000 C 
ATOM      5  C   UNL     1       4.317   5.557  16.665  0.00  0.00    +0.000 C 
ATOM      6  C   UNL     1       3.444   5.407  17.968  0.00  0.00    +0.000 C 
ENDROOT
BRANCH   6   7
ATOM      7  C   UNL     1       2.786   6.751  18.393  0.00  0.00    +0.000 A 
ATOM      8  C   UNL     1       2.669   7.878  17.537  0.00  0.00    +0.000 A 
ATOM      9  C   UNL     1       2.102   9.073  17.983  0.00  0.00    +0.000 A 
ATOM     10  C   UNL     1       1.610   9.175  19.280  0.00  0.00    +0.000 A 
ATOM     11 CL   UNL     1       0.909  10.686  19.833  0.00  0.00    +0.000 Cl
ATOM     12  C   UNL     1       1.670   8.072  20.131  0.00  0.00    +0.000 A 
ATOM     13  C   UNL     1       2.245   6.873  19.694  0.00  0.00    +0.000 A 
ENDBRANCH   6   7
BRANCH   6  14
ATOM     14  O   UNL     1       2.357   4.532  17.726  0.00  0.00    +0.000 OA
ATOM     15  H   UNL     1       2.351   3.804  18.400  0.00  0.00    +0.000 HD
ENDBRANCH   6  14
BRANCH   1  16
ATOM     16  C   UNL     1       4.866   3.356  18.783  0.00  0.00    +0.000 C 
BRANCH  16  18
ATOM     17  C   UNL     1       3.276   2.680  20.452  0.00  0.00    +0.000 C 
ATOM     18  N   UNL     1       4.162   2.183  19.376  0.00  0.00    +0.000 NA
ATOM     19  C   UNL     1       3.343   1.418  18.418  0.00  0.00    +0.000 C 
ENDBRANCH  16  18
ENDBRANCH   1  16
TORSDOF 4
ENDMDL
