MODEL 1
REMARK VINA RESULT:      -8.5      0.000      0.000
REMARK  Name = 
REMARK  9 active torsions:
REMARK  status: ('A' for Active; 'I' for Inactive)
REMARK    1  A    between atoms: N_1  and  C_2
REMARK    2  A    between atoms: N_10  and  C_11
REMARK    3  A    between atoms: C_13  and  C_14
REMARK    4  A    between atoms: C_14  and  N_15
REMARK    5  A    between atoms: N_15  and  C_16
REMARK    6  A    between atoms: C_16  and  C_17
REMARK    7  A    between atoms: C_18  and  C_19
REMARK    8  A    between atoms: C_25  and  O_26
REMARK    9  A    between atoms: C_27  and  O_28
REMARK                            x       y       z     vdW  Elec       q    Type
REMARK                         _______ _______ _______ _____ _____    ______ ____
ROOT
ATOM      1  C   UNL     1       3.414   5.653  19.342  0.00  0.00    +0.000 C 
ATOM      2  O   UNL     1       4.833   5.789  19.571  0.00  0.00    +0.000 OA
ATOM      3  C   UNL     1       5.526   4.637  19.037  0.00  0.00    +0.000 C 
ATOM      4  C   UNL     1       4.439   3.620  18.679  0.00  0.00    +0.000 C 
ATOM      5  C   UNL     1       3.219   4.479  18.383  0.00  0.00    +0.000 C 
ENDROOT
BRANCH   1  14
ATOM      6  C   UNL     1       1.018   9.854  19.118  0.00  0.00    +0.000 A 
ATOM      7  N   UNL     1       0.489   9.755  20.360  0.00  0.00    +0.000 NA
ATOM      8  C   UNL     1       0.778   8.659  21.092  0.00  0.00    +0.000 A 
ATOM      9  N   UNL     1       1.556   7.605  20.761  0.00  0.00    +0.000 NA
ATOM     10  C   UNL     1       2.053   7.751  19.521  0.00  0.00    +0.000 A 
ATOM     11  C   UNL     1       1.836   8.810  18.653  0.00  0.00    +0.000 A 
ATOM     12  N   UNL     1       2.504   8.614  17.462  0.00  0.00    +0.000 NA
ATOM     13  C   UNL     1       3.134   7.468  17.616  0.00  0.00    +0.000 A 
ATOM     14  N   UNL     1       2.886   6.905  18.839  0.00  0.00    +0.000 N 
BRANCH   6  15
ATOM     15  N   UNL     1       0.734  10.971  18.366  0.00  0.00    +0.000 N 
ATOM     16  H   UNL     1      -0.190  11.366  18.420  0.00  0.00    +0.000 HD
ATOM     17  H   UNL     1       1.472  11.390  17.819  0.00  0.00    +0.000 HD
ENDBRANCH   6  15
ENDBRANCH   1  14
BRANCH   4  18
ATOM     18  O   UNL     1       4.138   2.767  19.801  0.00  0.00    +0.000 OA
ATOM     19  H   UNL     1       3.932   3.318  20.579  0.00  0.00    +0.000 HD
ENDBRANCH   4  18
BRANCH   5  20
ATOM     20  O   UNL     1       2.006   3.764  18.606  0.00  0.00    +0.000 OA
ATOM     21  H   UNL     1       2.172   2.831  18.360  0.00  0.00    +0.000 HD
ENDBRANCH   5  20
BRANCH   3  22
ATOM     22  C   UNL     1       6.413   5.046  17.832  0.00  0.00    +0.000 C 
BRANCH  22  23
ATOM     23  N   UNL     1       7.322   6.150  18.181  0.00  0.00    +0.000 NA
ATOM     24  H   UNL     1       8.293   5.855  18.087  0.00  0.00    +0.000 HD
BRANCH  23  25
ATOM     25  C   UNL     1       7.112   7.338  17.356  0.00  0.00    +0.000 C 
BRANCH  25  26
ATOM     26  C   UNL     1       7.942   8.457  17.843  0.00  0.00    +0.000 C 
ATOM     27  C   UNL     1       8.592   9.367  18.281  0.00  0.00    +0.000 C 
BRANCH  27  28
ATOM     28  C   UNL     1       9.361  10.453  18.814  0.00  0.00    +0.000 A 
ATOM     29  C   UNL     1       9.389  10.694  20.193  0.00  0.00    +0.000 A 
ATOM     30  C   UNL     1      10.140  11.754  20.711  0.00  0.00    +0.000 A 
ATOM     31  C   UNL     1      10.871  12.581  19.855  0.00  0.00    +0.000 A 
ATOM     32  C   UNL     1      10.851  12.342  18.480  0.00  0.00    +0.000 A 
ATOM     33  C   UNL     1      10.099  11.285  17.962  0.00  0.00    +0.000 A 
ENDBRANCH  27  28
ENDBRANCH  25  26
ENDBRANCH  23  25
ENDBRANCH  22  23
ENDBRANCH   3  22
TORSDOF 9
ENDMDL
MODEL 2
REMARK VINA RESULT:      -8.1      3.012      4.359
REMARK  Name = 
REMARK  9 active torsions:
REMARK  status: ('A' for Active; 'I' for Inactive)
REMARK    1  A    between atoms: N_1  and  C_2
REMARK    2  A    between atoms: N_10  and  C_11
REMARK    3  A    between atoms: C_13  and  C_14
REMARK    4  A    between atoms: C_14  and  N_15
REMARK    5  A    between atoms: N_15  and  C_16
REMARK    6  A    between atoms: C_16  and  C_17
REMARK    7  A    between atoms: C_18  and  C_19
REMARK    8  A    between atoms: C_25  and  O_26
REMARK    9  A    between atoms: C_27  and  O_28
REMARK                            x       y       z     vdW  Elec       q    Type
REMARK                         _______ _______ _______ _____ _____    ______ ____
ROOT
ATOM      1  C   UNL     1       5.755   4.526  17.861  0.00  0.00    +0.000 C 
ATOM      2  O   UNL     1       6.682   5.471  18.435  0.00  0.00    +0.000 OA
ATOM      3  C   UNL     1       7.281   6.267  17.387  0.00  0.00    +0.000 C 
ATOM      4  C   UNL     1       6.878   5.599  16.069  0.00  0.00    +0.000 C 
ATOM      5  C   UNL     1       5.560   4.914  16.397  0.00  0.00    +0.000 C 
ENDROOT
BRANCH   1  14
ATOM      6  C   UNL     1       1.450   3.183  19.622  0.00  0.00    +0.000 A 
ATOM      7  N   UNL     1       1.349   2.072  18.855  0.00  0.00    +0.000 NA
ATOM      8  C   UNL     1       2.348   1.801  17.990  0.00  0.00    +0.000 A 
ATOM      9  N   UNL     1       3.486   2.495  17.771  0.00  0.00    +0.000 NA
ATOM     10  C   UNL     1       3.535   3.586  18.554  0.00  0.00    +0.000 A 
ATOM     11  C   UNL     1       2.586   3.997  19.476  0.00  0.00    +0.000 A 
ATOM     12  N   UNL     1       2.973   5.170  20.092  0.00  0.00    +0.000 NA
ATOM     13  C   UNL     1       4.149   5.450  19.569  0.00  0.00    +0.000 A 
ATOM     14  N   UNL     1       4.527   4.528  18.630  0.00  0.00    +0.000 N 
BRANCH   6  15
ATOM     15  N   UNL     1       0.438   3.466  20.512  0.00  0.00    +0.000 N 
ATOM     16  H   UNL     1      -0.486   3.634  20.153  0.00  0.00    +0.000 HD
ATOM     17  H   UNL     1       0.642   3.449  21.501  0.00  0.00    +0.000 HD
ENDBRANCH   6  15
ENDBRANCH   1  14
BRANCH   4  18
ATOM     18  O   UNL     1       7.835   4.591  15.685  0.00  0.00    +0.000 OA
ATOM     19  H   UNL     1       8.156   4.779  14.783  0.00  0.00    +0.000 HD
ENDBRANCH   4  18
BRANCH   5  20
ATOM     20  O   UNL     1       5.322   3.796  15.543  0.00  0.00    +0.000 OA
ATOM     21  H   UNL     1       5.215   4.145  14.634  0.00  0.00    +0.000 HD
ENDBRANCH   5  20
BRANCH   3  22
ATOM     22  C   UNL     1       6.824   7.746  17.496  0.00  0.00    +0.000 C 
BRANCH  22  23
ATOM     23  N   UNL     1       7.961   8.673  17.369  0.00  0.00    +0.000 NA
ATOM     24  H   UNL     1       7.662   9.545  16.935  0.00  0.00    +0.000 HD
BRANCH  23  25
ATOM     25  C   UNL     1       8.587   8.979  18.654  0.00  0.00    +0.000 C 
BRANCH  25  26
ATOM     26  C   UNL     1       9.346  10.242  18.569  0.00  0.00    +0.000 C 
ATOM     27  C   UNL     1       9.999  11.246  18.477  0.00  0.00    +0.000 C 
BRANCH  27  28
ATOM     28  C   UNL     1      10.788  12.438  18.361  0.00  0.00    +0.000 A 
ATOM     29  C   UNL     1      11.564  12.883  19.438  0.00  0.00    +0.000 A 
ATOM     30  C   UNL     1      12.333  14.045  19.322  0.00  0.00    +0.000 A 
ATOM     31  C   UNL     1      12.333  14.771  18.129  0.00  0.00    +0.000 A 
ATOM     32  C   UNL     1      11.565  14.329  17.051  0.00  0.00    +0.000 A 
ATOM     33  C   UNL     1      10.795  13.169  17.166  0.00  0.00    +0.000 A 
ENDBRANCH  27  28
ENDBRANCH  25  26
ENDBRANCH  23  25
ENDBRANCH  22  23
ENDBRANCH   3  22
TORSDOF 9
ENDMDL
MODEL 3
REMARK VINA RESULT:      -8.1      2.558      3.909
REMARK  Name = 
REMARK  9 active torsions:
REMARK  status: ('A' for Active; 'I' for Inactive)
REMARK    1  A    between atoms: N_1  and  C_2
REMARK    2  A    between atoms: N_10  and  C_11
REMARK    3  A    between atoms: C_13  and  C_14
REMARK    4  A    between atoms: C_14  and  N_15
REMARK    5  A    between atoms: N_15  and  C_16
REMARK    6  A    between atoms: C_16  and  C_17
REMARK    7  A    between atoms: C_18  and  C_19
REMARK    8  A    between atoms: C_25  and  O_26
REMARK    9  A    between atoms: C_27  and  O_28
REMARK                            x       y       z     vdW  Elec       q    Type
REMARK                         _______ _______ _______ _____ _____    ______ ____
ROOT
ATOM      1  C   UNL     1       5.572   3.762  17.079  0.00  0.00    +0.000 C 
ATOM      2  O   UNL     1       6.652   3.976  18.013  0.00  0.00    +0.000 OA
ATOM      3  C   UNL     1       7.398   5.156  17.637  0.00  0.00    +0.000 C 
ATOM      4  C   UNL     1       6.893   5.547  16.245  0.00  0.00    +0.000 C 
ATOM      5  C   UNL     1       5.467   5.016  16.213  0.00  0.00    +0.000 C 
ENDROOT
BRANCH   1  14
ATOM      6  C   UNL     1       1.646   4.289  19.862  0.00  0.00    +0.000 A 
ATOM      7  N   UNL     1       1.869   5.596  20.136  0.00  0.00    +0.000 NA
ATOM      8  C   UNL     1       2.967   6.180  19.611  0.00  0.00    +0.000 A 
ATOM      9  N   UNL     1       3.912   5.637  18.814  0.00  0.00    +0.000 NA
ATOM     10  C   UNL     1       3.645   4.341  18.575  0.00  0.00    +0.000 A 
ATOM     11  C   UNL     1       2.569   3.608  19.051  0.00  0.00    +0.000 A 
ATOM     12  N   UNL     1       2.626   2.304  18.603  0.00  0.00    +0.000 NA
ATOM     13  C   UNL     1       3.705   2.255  17.849  0.00  0.00    +0.000 A 
ATOM     14  N   UNL     1       4.358   3.458  17.809  0.00  0.00    +0.000 N 
BRANCH   6  15
ATOM     15  N   UNL     1       0.525   3.687  20.387  0.00  0.00    +0.000 N 
ATOM     16  H   UNL     1       0.639   2.842  20.922  0.00  0.00    +0.000 HD
ATOM     17  H   UNL     1      -0.371   4.134  20.262  0.00  0.00    +0.000 HD
ENDBRANCH   6  15
ENDBRANCH   1  14
BRANCH   4  18
ATOM     18  O   UNL     1       7.651   4.885  15.213  0.00  0.00    +0.000 OA
ATOM     19  H   UNL     1       7.472   3.927  15.246  0.00  0.00    +0.000 HD
ENDBRANCH   4  18
BRANCH   5  20
ATOM     20  O   UNL     1       5.036   4.748  14.881  0.00  0.00    +0.000 OA
ATOM     21  H   UNL     1       4.493   5.510  14.594  0.00  0.00    +0.000 HD
ENDBRANCH   5  20
BRANCH   3  22
ATOM     22  C   UNL     1       7.221   6.274  18.697  0.00  0.00    +0.000 C 
BRANCH  22  23
ATOM     23  N   UNL     1       8.260   7.310  18.568  0.00  0.00    +0.000 NA
ATOM     24  H   UNL     1       9.065   6.944  18.061  0.00  0.00    +0.000 HD
BRANCH  23  25
ATOM     25  C   UNL     1       7.782   8.510  17.886  0.00  0.00    +0.000 C 
BRANCH  25  26
ATOM     26  C   UNL     1       8.685   9.647  18.150  0.00  0.00    +0.000 C 
ATOM     27  C   UNL     1       9.422  10.580  18.316  0.00  0.00    +0.000 C 
BRANCH  27  28
ATOM     28  C   UNL     1      10.303  11.696  18.502  0.00  0.00    +0.000 A 
ATOM     29  C   UNL     1      10.235  12.804  17.650  0.00  0.00    +0.000 A 
ATOM     30  C   UNL     1      11.095  13.892  17.833  0.00  0.00    +0.000 A 
ATOM     31  C   UNL     1      12.029  13.881  18.872  0.00  0.00    +0.000 A 
ATOM     32  C   UNL     1      12.096  12.781  19.729  0.00  0.00    +0.000 A 
ATOM     33  C   UNL     1      11.239  11.693  19.544  0.00  0.00    +0.000 A 
ENDBRANCH  27  28
ENDBRANCH  25  26
ENDBRANCH  23  25
ENDBRANCH  22  23
ENDBRANCH   3  22
TORSDOF 9
ENDMDL
MODEL 4
REMARK VINA RESULT:      -8.0      3.988      7.601
REMARK  Name = 
REMARK  9 active torsions:
REMARK  status: ('A' for Active; 'I' for Inactive)
REMARK    1  A    between atoms: N_1  and  C_2
REMARK    2  A    between atoms: N_10  and  C_11
REMARK    3  A    between atoms: C_13  and  C_14
REMARK    4  A    between atoms: C_14  and  N_15
REMARK    5  A    between atoms: N_15  and  C_16
REMARK    6  A    between atoms: C_16  and  C_17
REMARK    7  A    between atoms: C_18  and  C_19
REMARK    8  A    between atoms: C_25  and  O_26
REMARK    9  A    between atoms: C_27  and  O_28
REMARK                            x       y       z     vdW  Elec       q    Type
REMARK                         _______ _______ _______ _____ _____    ______ ____
ROOT
ATOM      1  C   UNL     1       4.484   4.092  17.454  0.00  0.00    +0.000 C 
ATOM      2  O   UNL     1       3.321   4.931  17.293  0.00  0.00    +0.000 OA
ATOM      3  C   UNL     1       2.690   5.145  18.577  0.00  0.00    +0.000 C 
ATOM      4  C   UNL     1       3.370   4.174  19.546  0.00  0.00    +0.000 C 
ATOM      5  C   UNL     1       4.757   3.978  18.953  0.00  0.00    +0.000 C 
ENDROOT
BRANCH   1  14
ATOM      6  C   UNL     1       7.494   5.109  13.801  0.00  0.00    +0.000 A 
ATOM      7  N   UNL     1       6.864   4.314  12.904  0.00  0.00    +0.000 NA
ATOM      8  C   UNL     1       5.785   3.616  13.316  0.00  0.00    +0.000 A 
ATOM      9  N   UNL     1       5.208   3.597  14.537  0.00  0.00    +0.000 NA
ATOM     10  C   UNL     1       5.872   4.400  15.388  0.00  0.00    +0.000 A 
ATOM     11  C   UNL     1       6.994   5.164  15.114  0.00  0.00    +0.000 A 
ATOM     12  N   UNL     1       7.404   5.857  16.235  0.00  0.00    +0.000 NA
ATOM     13  C   UNL     1       6.528   5.536  17.165  0.00  0.00    +0.000 A 
ATOM     14  N   UNL     1       5.589   4.652  16.705  0.00  0.00    +0.000 N 
BRANCH   6  15
ATOM     15  N   UNL     1       8.592   5.830  13.389  0.00  0.00    +0.000 N 
ATOM     16  H   UNL     1       9.198   6.226  14.089  0.00  0.00    +0.000 HD
ATOM     17  H   UNL     1       8.783   5.901  12.401  0.00  0.00    +0.000 HD
ENDBRANCH   6  15
ENDBRANCH   1  14
BRANCH   4  18
ATOM     18  O   UNL     1       2.695   2.901  19.563  0.00  0.00    +0.000 OA
ATOM     19  H   UNL     1       3.145   2.305  20.191  0.00  0.00    +0.000 HD
ENDBRANCH   4  18
BRANCH   5  20
ATOM     20  O   UNL     1       5.318   2.724  19.332  0.00  0.00    +0.000 OA
ATOM     21  H   UNL     1       5.191   2.630  20.298  0.00  0.00    +0.000 HD
ENDBRANCH   5  20
BRANCH   3  22
ATOM     22  C   UNL     1       2.812   6.632  19.003  0.00  0.00    +0.000 C 
BRANCH  22  23
ATOM     23  N   UNL     1       3.254   7.479  17.883  0.00  0.00    +0.000 NA
ATOM     24  H   UNL     1       3.414   6.914  17.050  0.00  0.00    +0.000 HD
BRANCH  23  25
ATOM     25  C   UNL     1       2.296   8.534  17.557  0.00  0.00    +0.000 C 
BRANCH  25  26
ATOM     26  C   UNL     1       1.586   8.977  18.772  0.00  0.00    +0.000 C 
ATOM     27  C   UNL     1       1.000   9.381  19.739  0.00  0.00    +0.000 C 
BRANCH  27  28
ATOM     28  C   UNL     1       0.297   9.874  20.888  0.00  0.00    +0.000 A 
ATOM     29  C   UNL     1      -0.330  11.125  20.853  0.00  0.00    +0.000 A 
ATOM     30  C   UNL     1      -1.015  11.604  21.975  0.00  0.00    +0.000 A 
ATOM     31  C   UNL     1      -1.079  10.836  23.139  0.00  0.00    +0.000 A 
ATOM     32  C   UNL     1      -0.460   9.586  23.177  0.00  0.00    +0.000 A 
ATOM     33  C   UNL     1       0.226   9.108  22.058  0.00  0.00    +0.000 A 
ENDBRANCH  27  28
ENDBRANCH  25  26
ENDBRANCH  23  25
ENDBRANCH  22  23
ENDBRANCH   3  22
TORSDOF 9
ENDMDL
MODEL 5
REMARK VINA RESULT:      -8.0      0.913      1.233
REMARK  Name = 
REMARK  9 active torsions:
REMARK  status: ('A' for Active; 'I' for Inactive)
REMARK    1  A    between atoms: N_1  and  C_2
REMARK    2  A    between atoms: N_10  and  C_11
REMARK    3  A    between atoms: C_13  and  C_14
REMARK    4  A    between atoms: C_14  and  N_15
REMARK    5  A    between atoms: N_15  and  C_16
REMARK    6  A    between atoms: C_16  and  C_17
REMARK    7  A    between atoms: C_18  and  C_19
REMARK    8  A    between atoms: C_25  and  O_26
REMARK    9  A    between atoms: C_27  and  O_28
REMARK                            x       y       z     vdW  Elec       q    Type
REMARK                         _______ _______ _______ _____ _____    ______ ____
ROOT
ATOM      1  C   UNL     1       2.954   5.993  19.594  0.00  0.00    +0.000 C 
ATOM      2  O   UNL     1       4.394   5.949  19.510  0.00  0.00    +0.000 OA
ATOM      3  C   UNL     1       4.815   4.658  19.010  0.00  0.00    +0.000 C 
ATOM      4  C   UNL     1       3.564   3.774  19.023  0.00  0.00    +0.000 C 
ATOM      5  C   UNL     1       2.418   4.762  18.866  0.00  0.00    +0.000 C 
ENDROOT
BRANCH   1  14
ATOM      6  C   UNL     1       0.761  10.293  19.212  0.00  0.00    +0.000 A 
ATOM      7  N   UNL     1       0.251  10.278  20.466  0.00  0.00    +0.000 NA
ATOM      8  C   UNL     1       0.500   9.203  21.244  0.00  0.00    +0.000 A 
ATOM      9  N   UNL     1       1.219   8.098  20.951  0.00  0.00    +0.000 NA
ATOM     10  C   UNL     1       1.700   8.163  19.697  0.00  0.00    +0.000 A 
ATOM     11  C   UNL     1       1.519   9.189  18.784  0.00  0.00    +0.000 A 
ATOM     12  N   UNL     1       2.155   8.906  17.593  0.00  0.00    +0.000 NA
ATOM     13  C   UNL     1       2.731   7.738  17.790  0.00  0.00    +0.000 A 
ATOM     14  N   UNL     1       2.478   7.245  19.042  0.00  0.00    +0.000 N 
BRANCH   6  15
ATOM     15  N   UNL     1       0.518  11.387  18.413  0.00  0.00    +0.000 N 
ATOM     16  H   UNL     1       1.113  12.193  18.508  0.00  0.00    +0.000 HD
ATOM     17  H   UNL     1      -0.217  11.332  17.724  0.00  0.00    +0.000 HD
ENDBRANCH   6  15
ENDBRANCH   1  14
BRANCH   4  18
ATOM     18  O   UNL     1       3.419   3.101  20.289  0.00  0.00    +0.000 OA
ATOM     19  H   UNL     1       2.869   3.646  20.883  0.00  0.00    +0.000 HD
ENDBRANCH   4  18
BRANCH   5  20
ATOM     20  O   UNL     1       1.208   4.256  19.426  0.00  0.00    +0.000 OA
ATOM     21  H   UNL     1       0.568   4.160  18.691  0.00  0.00    +0.000 HD
ENDBRANCH   5  20
BRANCH   3  22
ATOM     22  C   UNL     1       5.457   4.801  17.605  0.00  0.00    +0.000 C 
BRANCH  22  23
ATOM     23  N   UNL     1       5.868   6.190  17.339  0.00  0.00    +0.000 NA
ATOM     24  H   UNL     1       5.569   6.801  18.098  0.00  0.00    +0.000 HD
BRANCH  23  25
ATOM     25  C   UNL     1       7.313   6.329  17.166  0.00  0.00    +0.000 C 
BRANCH  25  26
ATOM     26  C   UNL     1       7.758   7.665  17.609  0.00  0.00    +0.000 C 
ATOM     27  C   UNL     1       8.165   8.734  17.973  0.00  0.00    +0.000 C 
BRANCH  27  28
ATOM     28  C   UNL     1       8.664  10.006  18.408  0.00  0.00    +0.000 A 
ATOM     29  C   UNL     1       8.394  11.165  17.671  0.00  0.00    +0.000 A 
ATOM     30  C   UNL     1       8.881  12.405  18.098  0.00  0.00    +0.000 A 
ATOM     31  C   UNL     1       9.640  12.496  19.266  0.00  0.00    +0.000 A 
ATOM     32  C   UNL     1       9.908  11.345  20.008  0.00  0.00    +0.000 A 
ATOM     33  C   UNL     1       9.423  10.106  19.581  0.00  0.00    +0.000 A 
ENDBRANCH  27  28
ENDBRANCH  25  26
ENDBRANCH  23  25
ENDBRANCH  22  23
ENDBRANCH   3  22
TORSDOF 9
ENDMDL
MODEL 6
REMARK VINA RESULT:      -8.0      2.707      4.214
REMARK  Name = 
REMARK  9 active torsions:
REMARK  status: ('A' for Active; 'I' for Inactive)
REMARK    1  A    between atoms: N_1  and  C_2
REMARK    2  A    between atoms: N_10  and  C_11
REMARK    3  A    between atoms: C_13  and  C_14
REMARK    4  A    between atoms: C_14  and  N_15
REMARK    5  A    between atoms: N_15  and  C_16
REMARK    6  A    between atoms: C_16  and  C_17
REMARK    7  A    between atoms: C_18  and  C_19
REMARK    8  A    between atoms: C_25  and  O_26
REMARK    9  A    between atoms: C_27  and  O_28
REMARK                            x       y       z     vdW  Elec       q    Type
REMARK                         _______ _______ _______ _____ _____    ______ ____
ROOT
ATOM      1  C   UNL     1       5.316   4.795  17.010  0.00  0.00    +0.000 C 
ATOM      2  O   UNL     1       6.392   4.447  17.908  0.00  0.00    +0.000 OA
ATOM      3  C   UNL     1       7.497   5.362  17.722  0.00  0.00    +0.000 C 
ATOM      4  C   UNL     1       7.171   6.166  16.461  0.00  0.00    +0.000 C 
ATOM      5  C   UNL     1       5.650   6.157  16.407  0.00  0.00    +0.000 C 
ENDROOT
BRANCH   1  14
ATOM      6  C   UNL     1       1.423   3.169  19.386  0.00  0.00    +0.000 A 
ATOM      7  N   UNL     1       1.743   1.860  19.257  0.00  0.00    +0.000 NA
ATOM      8  C   UNL     1       2.872   1.542  18.589  0.00  0.00    +0.000 A 
ATOM      9  N   UNL     1       3.773   2.367  18.013  0.00  0.00    +0.000 NA
ATOM     10  C   UNL     1       3.406   3.652  18.167  0.00  0.00    +0.000 A 
ATOM     11  C   UNL     1       2.277   4.127  18.815  0.00  0.00    +0.000 A 
ATOM     12  N   UNL     1       2.228   5.505  18.769  0.00  0.00    +0.000 NA
ATOM     13  C   UNL     1       3.321   5.858  18.125  0.00  0.00    +0.000 A 
ATOM     14  N   UNL     1       4.061   4.774  17.734  0.00  0.00    +0.000 N 
BRANCH   6  15
ATOM     15  N   UNL     1       0.277   3.504  20.071  0.00  0.00    +0.000 N 
ATOM     16  H   UNL     1      -0.587   3.057  19.812  0.00  0.00    +0.000 HD
ATOM     17  H   UNL     1       0.343   4.152  20.842  0.00  0.00    +0.000 HD
ENDBRANCH   6  15
ENDBRANCH   1  14
BRANCH   4  18
ATOM     18  O   UNL     1       7.675   5.508  15.282  0.00  0.00    +0.000 OA
ATOM     19  H   UNL     1       7.179   5.820  14.502  0.00  0.00    +0.000 HD
ENDBRANCH   4  18
BRANCH   5  20
ATOM     20  O   UNL     1       5.171   6.317  15.073  0.00  0.00    +0.000 OA
ATOM     21  H   UNL     1       5.119   5.424  14.676  0.00  0.00    +0.000 HD
ENDBRANCH   5  20
BRANCH   3  22
ATOM     22  C   UNL     1       7.693   6.242  18.984  0.00  0.00    +0.000 C 
BRANCH  22  23
ATOM     23  N   UNL     1       8.603   7.369  18.720  0.00  0.00    +0.000 NA
ATOM     24  H   UNL     1       9.316   7.100  18.043  0.00  0.00    +0.000 HD
BRANCH  23  25
ATOM     25  C   UNL     1       7.907   8.553  18.221  0.00  0.00    +0.000 C 
BRANCH  25  26
ATOM     26  C   UNL     1       8.780   9.740  18.311  0.00  0.00    +0.000 C 
ATOM     27  C   UNL     1       9.469  10.717  18.425  0.00  0.00    +0.000 C 
BRANCH  27  28
ATOM     28  C   UNL     1      10.286  11.886  18.574  0.00  0.00    +0.000 A 
ATOM     29  C   UNL     1      10.842  12.211  19.816  0.00  0.00    +0.000 A 
ATOM     30  C   UNL     1      11.639  13.351  19.959  0.00  0.00    +0.000 A 
ATOM     31  C   UNL     1      11.887  14.176  18.859  0.00  0.00    +0.000 A 
ATOM     32  C   UNL     1      11.340  13.853  17.616  0.00  0.00    +0.000 A 
ATOM     33  C   UNL     1      10.542  12.715  17.474  0.00  0.00    +0.000 A 
ENDBRANCH  27  28
ENDBRANCH  25  26
ENDBRANCH  23  25
ENDBRANCH  22  23
ENDBRANCH   3  22
TORSDOF 9
ENDMDL
MODEL 7
REMARK VINA RESULT:      -8.0      3.382      6.872
REMARK  Name = 
REMARK  9 active torsions:
REMARK  status: ('A' for Active; 'I' for Inactive)
REMARK    1  A    between atoms: N_1  and  C_2
REMARK    2  A    between atoms: N_10  and  C_11
REMARK    3  A    between atoms: C_13  and  C_14
REMARK    4  A    between atoms: C_14  and  N_15
REMARK    5  A    between atoms: N_15  and  C_16
REMARK    6  A    between atoms: C_16  and  C_17
REMARK    7  A    between atoms: C_18  and  C_19
REMARK    8  A    between atoms: C_25  and  O_26
REMARK    9  A    between atoms: C_27  and  O_28
REMARK                            x       y       z     vdW  Elec       q    Type
REMARK                         _______ _______ _______ _____ _____    ______ ____
ROOT
ATOM      1  C   UNL     1       4.350   3.588  17.566  0.00  0.00    +0.000 C 
ATOM      2  O   UNL     1       3.000   3.682  17.066  0.00  0.00    +0.000 OA
ATOM      3  C   UNL     1       2.073   3.200  18.067  0.00  0.00    +0.000 C 
ATOM      4  C   UNL     1       2.930   2.542  19.151  0.00  0.00    +0.000 C 
ATOM      5  C   UNL     1       4.261   3.274  19.059  0.00  0.00    +0.000 C 
ENDROOT
BRANCH   1  14
ATOM      6  C   UNL     1       7.561   7.202  17.838  0.00  0.00    +0.000 A 
ATOM      7  N   UNL     1       8.193   6.717  18.933  0.00  0.00    +0.000 NA
ATOM      8  C   UNL     1       7.740   5.567  19.475  0.00  0.00    +0.000 A 
ATOM      9  N   UNL     1       6.713   4.790  19.068  0.00  0.00    +0.000 NA
ATOM     10  C   UNL     1       6.120   5.316  17.982  0.00  0.00    +0.000 A 
ATOM     11  C   UNL     1       6.465   6.487  17.326  0.00  0.00    +0.000 A 
ATOM     12  N   UNL     1       5.628   6.714  16.252  0.00  0.00    +0.000 NA
ATOM     13  C   UNL     1       4.805   5.686  16.245  0.00  0.00    +0.000 A 
ATOM     14  N   UNL     1       5.057   4.819  17.275  0.00  0.00    +0.000 N 
BRANCH   6  15
ATOM     15  N   UNL     1       8.020   8.371  17.274  0.00  0.00    +0.000 N 
ATOM     16  H   UNL     1       8.714   8.314  16.547  0.00  0.00    +0.000 HD
ATOM     17  H   UNL     1       7.614   9.246  17.570  0.00  0.00    +0.000 HD
ENDBRANCH   6  15
ENDBRANCH   1  14
BRANCH   4  18
ATOM     18  O   UNL     1       3.154   1.148  18.861  0.00  0.00    +0.000 OA
ATOM     19  H   UNL     1       4.113   0.970  18.851  0.00  0.00    +0.000 HD
ENDBRANCH   4  18
BRANCH   5  20
ATOM     20  O   UNL     1       5.338   2.469  19.532  0.00  0.00    +0.000 OA
ATOM     21  H   UNL     1       5.692   1.979  18.762  0.00  0.00    +0.000 HD
ENDBRANCH   5  20
BRANCH   3  22
ATOM     22  C   UNL     1       1.190   4.361  18.595  0.00  0.00    +0.000 C 
BRANCH  22  23
ATOM     23  N   UNL     1       1.713   4.905  19.859  0.00  0.00    +0.000 NA
ATOM     24  H   UNL     1       2.330   4.229  20.309  0.00  0.00    +0.000 HD
BRANCH  23  25
ATOM     25  C   UNL     1       2.443   6.158  19.677  0.00  0.00    +0.000 C 
BRANCH  25  26
ATOM     26  C   UNL     1       1.735   7.269  20.343  0.00  0.00    +0.000 C 
ATOM     27  C   UNL     1       1.173   8.202  20.848  0.00  0.00    +0.000 C 
BRANCH  27  28
ATOM     28  C   UNL     1       0.506   9.323  21.442  0.00  0.00    +0.000 A 
ATOM     29  C   UNL     1      -0.234   9.168  22.620  0.00  0.00    +0.000 A 
ATOM     30  C   UNL     1      -0.884  10.263  23.197  0.00  0.00    +0.000 A 
ATOM     31  C   UNL     1      -0.797  11.524  22.603  0.00  0.00    +0.000 A 
ATOM     32  C   UNL     1      -0.056  11.686  21.431  0.00  0.00    +0.000 A 
ATOM     33  C   UNL     1       0.591  10.591  20.853  0.00  0.00    +0.000 A 
ENDBRANCH  27  28
ENDBRANCH  25  26
ENDBRANCH  23  25
ENDBRANCH  22  23
ENDBRANCH   3  22
TORSDOF 9
ENDMDL
MODEL 8
REMARK VINA RESULT:      -7.9      2.881      4.310
REMARK  Name = 
REMARK  9 active torsions:
REMARK  status: ('A' for Active; 'I' for Inactive)
REMARK    1  A    between atoms: N_1  and  C_2
REMARK    2  A    between atoms: N_10  and  C_11
REMARK    3  A    between atoms: C_13  and  C_14
REMARK    4  A    between atoms: C_14  and  N_15
REMARK    5  A    between atoms: N_15  and  C_16
REMARK    6  A    between atoms: C_16  and  C_17
REMARK    7  A    between atoms: C_18  and  C_19
REMARK    8  A    between atoms: C_25  and  O_26
REMARK    9  A    between atoms: C_27  and  O_28
REMARK                            x       y       z     vdW  Elec       q    Type
REMARK                         _______ _______ _______ _____ _____    ______ ____
ROOT
ATOM      1  C   UNL     1       5.841   4.510  18.290  0.00  0.00    +0.000 C 
ATOM      2  O   UNL     1       6.611   5.648  18.732  0.00  0.00    +0.000 OA
ATOM      3  C   UNL     1       7.285   6.251  17.603  0.00  0.00    +0.000 C 
ATOM      4  C   UNL     1       7.112   5.272  16.438  0.00  0.00    +0.000 C 
ATOM      5  C   UNL     1       5.815   4.545  16.763  0.00  0.00    +0.000 C 
ENDROOT
BRANCH   1  14
ATOM      6  C   UNL     1       1.417   3.183  19.741  0.00  0.00    +0.000 A 
ATOM      7  N   UNL     1       1.475   1.950  19.185  0.00  0.00    +0.000 NA
ATOM      8  C   UNL     1       2.592   1.605  18.510  0.00  0.00    +0.000 A 
ATOM      9  N   UNL     1       3.711   2.332  18.304  0.00  0.00    +0.000 NA
ATOM     10  C   UNL     1       3.601   3.545  18.874  0.00  0.00    +0.000 A 
ATOM     11  C   UNL     1       2.519   4.040  19.584  0.00  0.00    +0.000 A 
ATOM     12  N   UNL     1       2.762   5.328  20.016  0.00  0.00    +0.000 NA
ATOM     13  C   UNL     1       3.980   5.599  19.594  0.00  0.00    +0.000 A 
ATOM     14  N   UNL     1       4.525   4.556  18.893  0.00  0.00    +0.000 N 
BRANCH   6  15
ATOM     15  N   UNL     1       0.285   3.541  20.437  0.00  0.00    +0.000 N 
ATOM     16  H   UNL     1      -0.492   3.927  19.927  0.00  0.00    +0.000 HD
ATOM     17  H   UNL     1       0.248   3.364  21.430  0.00  0.00    +0.000 HD
ENDBRANCH   6  15
ENDBRANCH   1  14
BRANCH   4  18
ATOM     18  O   UNL     1       8.182   4.307  16.408  0.00  0.00    +0.000 OA
ATOM     19  H   UNL     1       7.834   3.449  16.100  0.00  0.00    +0.000 HD
ENDBRANCH   4  18
BRANCH   5  20
ATOM     20  O   UNL     1       5.776   3.250  16.168  0.00  0.00    +0.000 OA
ATOM     21  H   UNL     1       4.976   3.215  15.605  0.00  0.00    +0.000 HD
ENDBRANCH   5  20
BRANCH   3  22
ATOM     22  C   UNL     1       6.711   7.663  17.316  0.00  0.00    +0.000 C 
BRANCH  22  23
ATOM     23  N   UNL     1       7.755   8.698  17.404  0.00  0.00    +0.000 NA
ATOM     24  H   UNL     1       7.348   9.625  17.284  0.00  0.00    +0.000 HD
BRANCH  23  25
ATOM     25  C   UNL     1       8.479   8.666  18.673  0.00  0.00    +0.000 C 
BRANCH  25  26
ATOM     26  C   UNL     1       9.284   9.891  18.838  0.00  0.00    +0.000 C 
ATOM     27  C   UNL     1       9.900  10.914  18.965  0.00  0.00    +0.000 C 
BRANCH  27  28
ATOM     28  C   UNL     1      10.623  12.143  19.115  0.00  0.00    +0.000 A 
ATOM     29  C   UNL     1      11.590  12.517  18.173  0.00  0.00    +0.000 A 
ATOM     30  C   UNL     1      12.294  13.717  18.321  0.00  0.00    +0.000 A 
ATOM     31  C   UNL     1      12.037  14.552  19.410  0.00  0.00    +0.000 A 
ATOM     32  C   UNL     1      11.070  14.186  20.349  0.00  0.00    +0.000 A 
ATOM     33  C   UNL     1      10.368  12.988  20.203  0.00  0.00    +0.000 A 
ENDBRANCH  27  28
ENDBRANCH  25  26
ENDBRANCH  23  25
ENDBRANCH  22  23
ENDBRANCH   3  22
TORSDOF 9
ENDMDL
MODEL 9
REMARK VINA RESULT:      -7.9      4.126      8.130
REMARK  Name = 
REMARK  9 active torsions:
REMARK  status: ('A' for Active; 'I' for Inactive)
REMARK    1  A    between atoms: N_1  and  C_2
REMARK    2  A    between atoms: N_10  and  C_11
REMARK    3  A    between atoms: C_13  and  C_14
REMARK    4  A    between atoms: C_14  and  N_15
REMARK    5  A    between atoms: N_15  and  C_16
REMARK    6  A    between atoms: C_16  and  C_17
REMARK    7  A    between atoms: C_18  and  C_19
REMARK    8  A    between atoms: C_25  and  O_26
REMARK    9  A    between atoms: C_27  and  O_28
REMARK                            x       y       z     vdW  Elec       q    Type
REMARK                         _______ _______ _______ _____ _____    ______ ____
ROOT
ATOM      1  C   UNL     1       4.491   3.797  17.657  0.00  0.00    +0.000 C 
ATOM      2  O   UNL     1       3.287   4.546  17.389  0.00  0.00    +0.000 OA
ATOM      3  C   UNL     1       2.581   4.796  18.627  0.00  0.00    +0.000 C 
ATOM      4  C   UNL     1       3.273   3.932  19.686  0.00  0.00    +0.000 C 
ATOM      5  C   UNL     1       4.697   3.793  19.170  0.00  0.00    +0.000 C 
ENDROOT
BRANCH   1  14
ATOM      6  C   UNL     1       7.426   5.034  14.010  0.00  0.00    +0.000 A 
ATOM      7  N   UNL     1       6.739   4.348  13.067  0.00  0.00    +0.000 NA
ATOM      8  C   UNL     1       5.646   3.655  13.450  0.00  0.00    +0.000 A 
ATOM      9  N   UNL     1       5.106   3.546  14.684  0.00  0.00    +0.000 NA
ATOM     10  C   UNL     1       5.826   4.242  15.581  0.00  0.00    +0.000 A 
ATOM     11  C   UNL     1       6.970   4.987  15.338  0.00  0.00    +0.000 A 
ATOM     12  N   UNL     1       7.440   5.559  16.503  0.00  0.00    +0.000 NA
ATOM     13  C   UNL     1       6.582   5.186  17.430  0.00  0.00    +0.000 A 
ATOM     14  N   UNL     1       5.595   4.383  16.923  0.00  0.00    +0.000 N 
BRANCH   6  15
ATOM     15  N   UNL     1       8.538   5.749  13.628  0.00  0.00    +0.000 N 
ATOM     16  H   UNL     1       8.799   5.750  12.656  0.00  0.00    +0.000 HD
ATOM     17  H   UNL     1       9.032   6.289  14.323  0.00  0.00    +0.000 HD
ENDBRANCH   6  15
ENDBRANCH   1  14
BRANCH   4  18
ATOM     18  O   UNL     1       2.680   2.620  19.754  0.00  0.00    +0.000 OA
ATOM     19  H   UNL     1       3.302   2.008  20.189  0.00  0.00    +0.000 HD
ENDBRANCH   4  18
BRANCH   5  20
ATOM     20  O   UNL     1       5.318   2.604  19.653  0.00  0.00    +0.000 OA
ATOM     21  H   UNL     1       5.296   1.950  18.925  0.00  0.00    +0.000 HD
ENDBRANCH   5  20
BRANCH   3  22
ATOM     22  C   UNL     1       2.588   6.310  18.962  0.00  0.00    +0.000 C 
BRANCH  22  23
ATOM     23  N   UNL     1       2.529   7.133  17.742  0.00  0.00    +0.000 NA
ATOM     24  H   UNL     1       1.662   6.956  17.235  0.00  0.00    +0.000 HD
BRANCH  23  25
ATOM     25  C   UNL     1       2.627   8.564  18.019  0.00  0.00    +0.000 C 
BRANCH  25  26
ATOM     26  C   UNL     1       1.291   9.189  17.986  0.00  0.00    +0.000 C 
ATOM     27  C   UNL     1       0.204   9.699  18.008  0.00  0.00    +0.000 C 
BRANCH  27  28
ATOM     28  C   UNL     1      -1.093  10.308  18.046  0.00  0.00    +0.000 A 
ATOM     29  C   UNL     1      -1.375  11.320  18.972  0.00  0.00    +0.000 A 
ATOM     30  C   UNL     1      -2.641  11.913  19.007  0.00  0.00    +0.000 A 
ATOM     31  C   UNL     1      -3.635  11.501  18.117  0.00  0.00    +0.000 A 
ATOM     32  C   UNL     1      -3.358  10.496  17.189  0.00  0.00    +0.000 A 
ATOM     33  C   UNL     1      -2.094   9.902  17.154  0.00  0.00    +0.000 A 
ENDBRANCH  27  28
ENDBRANCH  25  26
ENDBRANCH  23  25
ENDBRANCH  22  23
ENDBRANCH   3  22
TORSDOF 9
ENDMDL
