MODEL 1
REMARK VINA RESULT:      -7.1      0.000      0.000
REMARK  Name = 
REMARK  5 active torsions:
REMARK  status: ('A' for Active; 'I' for Inactive)
REMARK    1  A    between atoms: C_1  and  S_2
REMARK    2  A    between atoms: S_2  and  C_3
REMARK    3  A    between atoms: C_5  and  C_6
REMARK    4  A    between atoms: C_10  and  S_11
REMARK    5  A    between atoms: S_11  and  C_14
REMARK                            x       y       z     vdW  Elec       q    Type
REMARK                         _______ _______ _______ _____ _____    ______ ____
ROOT
ATOM      1  C   UNL     1       3.745   5.848  17.843  0.00  0.00    +0.000 A 
ATOM      2  S   UNL     1       5.308   6.459  17.465  0.00  0.00    +0.000 S 
ATOM      3  C   UNL     1       5.773   5.027  16.655  0.00  0.00    +0.000 A 
ATOM      4  C   UNL     1       4.755   4.097  16.680  0.00  0.00    +0.000 A 
ATOM      5  C   UNL     1       3.590   4.562  17.373  0.00  0.00    +0.000 A 
ENDROOT
BRANCH   3   6
ATOM      6  C   UNL     1       7.086   4.883  16.041  0.00  0.00    +0.000 C 
ATOM      7  N   UNL     1       8.040   4.230  16.629  0.00  0.00    +0.000 NA
ATOM      8  N   UNL     1       7.410   5.402  14.822  0.00  0.00    +0.000 N 
ATOM      9  H   UNL     1       7.708   3.881  17.536  0.00  0.00    +0.000 HD
ATOM     10  H   UNL     1       6.677   5.410  14.126  0.00  0.00    +0.000 HD
ATOM     11  H   UNL     1       8.278   5.003  14.479  0.00  0.00    +0.000 HD
ENDBRANCH   3   6
BRANCH   5  12
ATOM     12  S   UNL     1       2.199   3.549  17.594  0.00  0.00    +0.000 S 
ATOM     13  O   UNL     1       1.068   4.415  17.320  0.00  0.00    +0.000 OA
ATOM     14  O   UNL     1       2.472   2.386  16.774  0.00  0.00    +0.000 OA
BRANCH  12  15
ATOM     15  C   UNL     1       2.105   3.080  19.294  0.00  0.00    +0.000 A 
ATOM     16  C   UNL     1       3.254   2.630  19.954  0.00  0.00    +0.000 A 
ATOM     17  C   UNL     1       3.197   2.365  21.323  0.00  0.00    +0.000 A 
ATOM     18  C   UNL     1       2.003   2.554  22.024  0.00  0.00    +0.000 A 
ATOM     19  C   UNL     1       0.861   3.004  21.360  0.00  0.00    +0.000 A 
ATOM     20  C   UNL     1       0.909   3.267  19.993  0.00  0.00    +0.000 A 
ENDBRANCH  12  15
ENDBRANCH   5  12
BRANCH   1  22
ATOM     21  C   UNL     1       2.623   8.354  17.651  0.00  0.00    +0.000 C 
ATOM     22  S   UNL     1       2.577   6.865  18.680  0.00  0.00    +0.000 S 
ENDBRANCH   1  22
TORSDOF 4
ENDMDL
MODEL 2
REMARK VINA RESULT:      -7.0      2.168      3.344
REMARK  Name = 
REMARK  5 active torsions:
REMARK  status: ('A' for Active; 'I' for Inactive)
REMARK    1  A    between atoms: C_1  and  S_2
REMARK    2  A    between atoms: S_2  and  C_3
REMARK    3  A    between atoms: C_5  and  C_6
REMARK    4  A    between atoms: C_10  and  S_11
REMARK    5  A    between atoms: S_11  and  C_14
REMARK                            x       y       z     vdW  Elec       q    Type
REMARK                         _______ _______ _______ _____ _____    ______ ____
ROOT
ATOM      1  C   UNL     1       5.873   4.706  17.645  0.00  0.00    +0.000 A 
ATOM      2  S   UNL     1       7.111   4.912  16.469  0.00  0.00    +0.000 S 
ATOM      3  C   UNL     1       6.125   4.340  15.195  0.00  0.00    +0.000 A 
ATOM      4  C   UNL     1       4.874   3.992  15.662  0.00  0.00    +0.000 A 
ATOM      5  C   UNL     1       4.730   4.191  17.074  0.00  0.00    +0.000 A 
ENDROOT
BRANCH   3   6
ATOM      6  C   UNL     1       6.607   4.264  13.824  0.00  0.00    +0.000 C 
ATOM      7  N   UNL     1       7.441   5.137  13.349  0.00  0.00    +0.000 NA
ATOM      8  N   UNL     1       6.238   3.287  12.947  0.00  0.00    +0.000 N 
ATOM      9  H   UNL     1       7.657   5.832  14.075  0.00  0.00    +0.000 HD
ATOM     10  H   UNL     1       6.087   2.366  13.335  0.00  0.00    +0.000 HD
ATOM     11  H   UNL     1       6.849   3.280  12.136  0.00  0.00    +0.000 HD
ENDBRANCH   3   6
BRANCH   5  12
ATOM     12  S   UNL     1       3.269   3.764  17.908  0.00  0.00    +0.000 S 
ATOM     13  O   UNL     1       2.333   3.421  16.854  0.00  0.00    +0.000 OA
ATOM     14  O   UNL     1       3.691   2.784  18.887  0.00  0.00    +0.000 OA
BRANCH  12  15
ATOM     15  C   UNL     1       2.642   5.200  18.722  0.00  0.00    +0.000 A 
ATOM     16  C   UNL     1       2.159   5.100  20.031  0.00  0.00    +0.000 A 
ATOM     17  C   UNL     1       1.766   6.257  20.706  0.00  0.00    +0.000 A 
ATOM     18  C   UNL     1       1.862   7.501  20.078  0.00  0.00    +0.000 A 
ATOM     19  C   UNL     1       2.345   7.595  18.772  0.00  0.00    +0.000 A 
ATOM     20  C   UNL     1       2.736   6.444  18.090  0.00  0.00    +0.000 A 
ENDBRANCH  12  15
ENDBRANCH   5  12
BRANCH   1  22
ATOM     21  C   UNL     1       7.849   5.810  19.211  0.00  0.00    +0.000 C 
ATOM     22  S   UNL     1       6.153   5.185  19.317  0.00  0.00    +0.000 S 
ENDBRANCH   1  22
TORSDOF 4
ENDMDL
MODEL 3
REMARK VINA RESULT:      -6.9      2.289      3.121
REMARK  Name = 
REMARK  5 active torsions:
REMARK  status: ('A' for Active; 'I' for Inactive)
REMARK    1  A    between atoms: C_1  and  S_2
REMARK    2  A    between atoms: S_2  and  C_3
REMARK    3  A    between atoms: C_5  and  C_6
REMARK    4  A    between atoms: C_10  and  S_11
REMARK    5  A    between atoms: S_11  and  C_14
REMARK                            x       y       z     vdW  Elec       q    Type
REMARK                         _______ _______ _______ _____ _____    ______ ____
ROOT
ATOM      1  C   UNL     1       5.624   4.432  16.302  0.00  0.00    +0.000 A 
ATOM      2  S   UNL     1       6.997   5.413  16.637  0.00  0.00    +0.000 S 
ATOM      3  C   UNL     1       6.802   5.270  18.330  0.00  0.00    +0.000 A 
ATOM      4  C   UNL     1       5.704   4.493  18.632  0.00  0.00    +0.000 A 
ATOM      5  C   UNL     1       5.017   4.018  17.467  0.00  0.00    +0.000 A 
ENDROOT
BRANCH   3   6
ATOM      6  C   UNL     1       7.717   5.908  19.266  0.00  0.00    +0.000 C 
ATOM      7  N   UNL     1       7.967   5.389  20.428  0.00  0.00    +0.000 NA
ATOM      8  N   UNL     1       8.377   7.072  19.002  0.00  0.00    +0.000 N 
ATOM      9  H   UNL     1       7.426   4.523  20.540  0.00  0.00    +0.000 HD
ATOM     10  H   UNL     1       8.669   7.217  18.045  0.00  0.00    +0.000 HD
ATOM     11  H   UNL     1       9.124   7.223  19.672  0.00  0.00    +0.000 HD
ENDBRANCH   3   6
BRANCH   5  12
ATOM     12  S   UNL     1       3.566   3.074  17.589  0.00  0.00    +0.000 S 
ATOM     13  O   UNL     1       2.657   3.674  16.631  0.00  0.00    +0.000 OA
ATOM     14  O   UNL     1       4.019   1.706  17.440  0.00  0.00    +0.000 OA
BRANCH  12  15
ATOM     15  C   UNL     1       2.871   3.308  19.195  0.00  0.00    +0.000 A 
ATOM     16  C   UNL     1       1.840   4.237  19.376  0.00  0.00    +0.000 A 
ATOM     17  C   UNL     1       1.223   4.339  20.624  0.00  0.00    +0.000 A 
ATOM     18  C   UNL     1       1.631   3.516  21.677  0.00  0.00    +0.000 A 
ATOM     19  C   UNL     1       2.659   2.592  21.490  0.00  0.00    +0.000 A 
ATOM     20  C   UNL     1       3.283   2.486  20.248  0.00  0.00    +0.000 A 
ENDBRANCH  12  15
ENDBRANCH   5  12
BRANCH   1  22
ATOM     21  C   UNL     1       6.764   4.395  13.797  0.00  0.00    +0.000 C 
ATOM     22  S   UNL     1       5.199   4.046  14.638  0.00  0.00    +0.000 S 
ENDBRANCH   1  22
TORSDOF 4
ENDMDL
MODEL 4
REMARK VINA RESULT:      -6.9      0.702      1.400
REMARK  Name = 
REMARK  5 active torsions:
REMARK  status: ('A' for Active; 'I' for Inactive)
REMARK    1  A    between atoms: C_1  and  S_2
REMARK    2  A    between atoms: S_2  and  C_3
REMARK    3  A    between atoms: C_5  and  C_6
REMARK    4  A    between atoms: C_10  and  S_11
REMARK    5  A    between atoms: S_11  and  C_14
REMARK                            x       y       z     vdW  Elec       q    Type
REMARK                         _______ _______ _______ _____ _____    ______ ____
ROOT
ATOM      1  C   UNL     1       3.942   5.609  17.617  0.00  0.00    +0.000 A 
ATOM      2  S   UNL     1       5.405   6.170  16.908  0.00  0.00    +0.000 S 
ATOM      3  C   UNL     1       5.518   4.828  15.855  0.00  0.00    +0.000 A 
ATOM      4  C   UNL     1       4.460   3.964  16.048  0.00  0.00    +0.000 A 
ATOM      5  C   UNL     1       3.557   4.406  17.069  0.00  0.00    +0.000 A 
ENDROOT
BRANCH   3   6
ATOM      6  C   UNL     1       6.611   4.686  14.905  0.00  0.00    +0.000 C 
ATOM      7  N   UNL     1       6.607   3.755  14.001  0.00  0.00    +0.000 NA
ATOM      8  N   UNL     1       7.701   5.506  14.880  0.00  0.00    +0.000 N 
ATOM      9  H   UNL     1       5.755   3.188  14.099  0.00  0.00    +0.000 HD
ATOM     10  H   UNL     1       7.541   6.476  15.114  0.00  0.00    +0.000 HD
ATOM     11  H   UNL     1       8.222   5.387  14.017  0.00  0.00    +0.000 HD
ENDBRANCH   3   6
BRANCH   5  12
ATOM     12  S   UNL     1       2.182   3.456  17.540  0.00  0.00    +0.000 S 
ATOM     13  O   UNL     1       1.040   4.306  17.266  0.00  0.00    +0.000 OA
ATOM     14  O   UNL     1       2.366   2.197  16.847  0.00  0.00    +0.000 OA
BRANCH  12  15
ATOM     15  C   UNL     1       2.243   3.199  19.286  0.00  0.00    +0.000 A 
ATOM     16  C   UNL     1       1.096   3.409  20.058  0.00  0.00    +0.000 A 
ATOM     17  C   UNL     1       1.122   3.101  21.420  0.00  0.00    +0.000 A 
ATOM     18  C   UNL     1       2.282   2.582  21.999  0.00  0.00    +0.000 A 
ATOM     19  C   UNL     1       3.424   2.375  21.223  0.00  0.00    +0.000 A 
ATOM     20  C   UNL     1       3.408   2.684  19.864  0.00  0.00    +0.000 A 
ENDBRANCH  12  15
ENDBRANCH   5  12
BRANCH   1  22
ATOM     21  C   UNL     1       2.576   7.988  17.842  0.00  0.00    +0.000 C 
ATOM     22  S   UNL     1       3.123   6.579  18.838  0.00  0.00    +0.000 S 
ENDBRANCH   1  22
TORSDOF 4
ENDMDL
MODEL 5
REMARK VINA RESULT:      -6.9      2.159      3.282
REMARK  Name = 
REMARK  5 active torsions:
REMARK  status: ('A' for Active; 'I' for Inactive)
REMARK    1  A    between atoms: C_1  and  S_2
REMARK    2  A    between atoms: S_2  and  C_3
REMARK    3  A    between atoms: C_5  and  C_6
REMARK    4  A    between atoms: C_10  and  S_11
REMARK    5  A    between atoms: S_11  and  C_14
REMARK                            x       y       z     vdW  Elec       q    Type
REMARK                         _______ _______ _______ _____ _____    ______ ____
ROOT
ATOM      1  C   UNL     1       5.933   4.669  17.644  0.00  0.00    +0.000 A 
ATOM      2  S   UNL     1       7.177   4.857  16.471  0.00  0.00    +0.000 S 
ATOM      3  C   UNL     1       6.178   4.321  15.191  0.00  0.00    +0.000 A 
ATOM      4  C   UNL     1       4.919   3.999  15.653  0.00  0.00    +0.000 A 
ATOM      5  C   UNL     1       4.778   4.187  17.067  0.00  0.00    +0.000 A 
ENDROOT
BRANCH   3   6
ATOM      6  C   UNL     1       6.660   4.246  13.819  0.00  0.00    +0.000 C 
ATOM      7  N   UNL     1       6.318   3.272  13.033  0.00  0.00    +0.000 NA
ATOM      8  N   UNL     1       7.484   5.177  13.256  0.00  0.00    +0.000 N 
ATOM      9  H   UNL     1       5.705   2.623  13.541  0.00  0.00    +0.000 HD
ATOM     10  H   UNL     1       7.345   6.135  13.546  0.00  0.00    +0.000 HD
ATOM     11  H   UNL     1       7.515   5.068  12.248  0.00  0.00    +0.000 HD
ENDBRANCH   3   6
BRANCH   5  12
ATOM     12  S   UNL     1       3.306   3.788  17.895  0.00  0.00    +0.000 S 
ATOM     13  O   UNL     1       2.337   3.577  16.837  0.00  0.00    +0.000 OA
ATOM     14  O   UNL     1       3.684   2.717  18.795  0.00  0.00    +0.000 OA
BRANCH  12  15
ATOM     15  C   UNL     1       2.778   5.196  18.821  0.00  0.00    +0.000 A 
ATOM     16  C   UNL     1       2.791   6.462  18.226  0.00  0.00    +0.000 A 
ATOM     17  C   UNL     1       2.272   7.553  18.925  0.00  0.00    +0.000 A 
ATOM     18  C   UNL     1       1.740   7.375  20.205  0.00  0.00    +0.000 A 
ATOM     19  C   UNL     1       1.729   6.110  20.793  0.00  0.00    +0.000 A 
ATOM     20  C   UNL     1       2.249   5.016  20.103  0.00  0.00    +0.000 A 
ENDBRANCH  12  15
ENDBRANCH   5  12
BRANCH   1  22
ATOM     21  C   UNL     1       7.862   5.882  19.188  0.00  0.00    +0.000 C 
ATOM     22  S   UNL     1       6.223   5.125  19.320  0.00  0.00    +0.000 S 
ENDBRANCH   1  22
TORSDOF 4
ENDMDL
MODEL 6
REMARK VINA RESULT:      -6.8      3.471      6.337
REMARK  Name = 
REMARK  5 active torsions:
REMARK  status: ('A' for Active; 'I' for Inactive)
REMARK    1  A    between atoms: C_1  and  S_2
REMARK    2  A    between atoms: S_2  and  C_3
REMARK    3  A    between atoms: C_5  and  C_6
REMARK    4  A    between atoms: C_10  and  S_11
REMARK    5  A    between atoms: S_11  and  C_14
REMARK                            x       y       z     vdW  Elec       q    Type
REMARK                         _______ _______ _______ _____ _____    ______ ____
ROOT
ATOM      1  C   UNL     1       4.306   5.534  17.321  0.00  0.00    +0.000 A 
ATOM      2  S   UNL     1       2.987   4.620  17.942  0.00  0.00    +0.000 S 
ATOM      3  C   UNL     1       3.825   3.137  17.795  0.00  0.00    +0.000 A 
ATOM      4  C   UNL     1       5.087   3.337  17.274  0.00  0.00    +0.000 A 
ATOM      5  C   UNL     1       5.362   4.714  16.990  0.00  0.00    +0.000 A 
ENDROOT
BRANCH   3   6
ATOM      6  C   UNL     1       3.225   1.872  18.192  0.00  0.00    +0.000 C 
ATOM      7  N   UNL     1       1.939   1.736  18.299  0.00  0.00    +0.000 NA
ATOM      8  N   UNL     1       3.946   0.748  18.469  0.00  0.00    +0.000 N 
ATOM      9  H   UNL     1       1.482   2.629  18.077  0.00  0.00    +0.000 HD
ATOM     10  H   UNL     1       4.782   0.602  17.920  0.00  0.00    +0.000 HD
ATOM     11  H   UNL     1       3.344  -0.069  18.499  0.00  0.00    +0.000 HD
ENDBRANCH   3   6
BRANCH   5  12
ATOM     12  S   UNL     1       6.860   5.212  16.267  0.00  0.00    +0.000 S 
ATOM     13  O   UNL     1       6.864   6.657  16.391  0.00  0.00    +0.000 OA
ATOM     14  O   UNL     1       7.860   4.398  16.928  0.00  0.00    +0.000 OA
BRANCH  12  15
ATOM     15  C   UNL     1       6.812   4.829  14.545  0.00  0.00    +0.000 A 
ATOM     16  C   UNL     1       7.730   5.428  13.675  0.00  0.00    +0.000 A 
ATOM     17  C   UNL     1       7.757   5.040  12.334  0.00  0.00    +0.000 A 
ATOM     18  C   UNL     1       6.876   4.058  11.871  0.00  0.00    +0.000 A 
ATOM     19  C   UNL     1       5.963   3.465  12.744  0.00  0.00    +0.000 A 
ATOM     20  C   UNL     1       5.928   3.849  14.083  0.00  0.00    +0.000 A 
ENDBRANCH  12  15
ENDBRANCH   5  12
BRANCH   1  22
ATOM     21  C   UNL     1       2.629   7.579  18.082  0.00  0.00    +0.000 C 
ATOM     22  S   UNL     1       4.198   7.289  17.227  0.00  0.00    +0.000 S 
ENDBRANCH   1  22
TORSDOF 4
ENDMDL
MODEL 7
REMARK VINA RESULT:      -6.8      0.661      1.487
REMARK  Name = 
REMARK  5 active torsions:
REMARK  status: ('A' for Active; 'I' for Inactive)
REMARK    1  A    between atoms: C_1  and  S_2
REMARK    2  A    between atoms: S_2  and  C_3
REMARK    3  A    between atoms: C_5  and  C_6
REMARK    4  A    between atoms: C_10  and  S_11
REMARK    5  A    between atoms: S_11  and  C_14
REMARK                            x       y       z     vdW  Elec       q    Type
REMARK                         _______ _______ _______ _____ _____    ______ ____
ROOT
ATOM      1  C   UNL     1       3.613   6.099  17.505  0.00  0.00    +0.000 A 
ATOM      2  S   UNL     1       5.175   6.713  17.129  0.00  0.00    +0.000 S 
ATOM      3  C   UNL     1       5.758   5.184  16.633  0.00  0.00    +0.000 A 
ATOM      4  C   UNL     1       4.778   4.222  16.759  0.00  0.00    +0.000 A 
ATOM      5  C   UNL     1       3.545   4.744  17.272  0.00  0.00    +0.000 A 
ENDROOT
BRANCH   3   6
ATOM      6  C   UNL     1       7.118   5.000  16.147  0.00  0.00    +0.000 C 
ATOM      7  N   UNL     1       7.508   5.503  15.017  0.00  0.00    +0.000 NA
ATOM      8  N   UNL     1       8.075   4.307  16.829  0.00  0.00    +0.000 N 
ATOM      9  H   UNL     1       6.724   6.000  14.576  0.00  0.00    +0.000 HD
ATOM     10  H   UNL     1       8.050   4.377  17.837  0.00  0.00    +0.000 HD
ATOM     11  H   UNL     1       8.996   4.488  16.441  0.00  0.00    +0.000 HD
ENDBRANCH   3   6
BRANCH   5  12
ATOM     12  S   UNL     1       2.181   3.716  17.581  0.00  0.00    +0.000 S 
ATOM     13  O   UNL     1       1.026   4.546  17.299  0.00  0.00    +0.000 OA
ATOM     14  O   UNL     1       2.455   2.521  16.809  0.00  0.00    +0.000 OA
BRANCH  12  15
ATOM     15  C   UNL     1       2.145   3.328  19.303  0.00  0.00    +0.000 A 
ATOM     16  C   UNL     1       0.932   3.378  19.999  0.00  0.00    +0.000 A 
ATOM     17  C   UNL     1       0.891   2.966  21.333  0.00  0.00    +0.000 A 
ATOM     18  C   UNL     1       2.052   2.503  21.959  0.00  0.00    +0.000 A 
ATOM     19  C   UNL     1       3.258   2.456  21.258  0.00  0.00    +0.000 A 
ATOM     20  C   UNL     1       3.308   2.869  19.928  0.00  0.00    +0.000 A 
ENDBRANCH  12  15
ENDBRANCH   5  12
BRANCH   1  22
ATOM     21  C   UNL     1       2.373   6.868  19.839  0.00  0.00    +0.000 C 
ATOM     22  S   UNL     1       2.345   7.190  18.058  0.00  0.00    +0.000 S 
ENDBRANCH   1  22
TORSDOF 4
ENDMDL
MODEL 8
REMARK VINA RESULT:      -6.8      2.298      3.013
REMARK  Name = 
REMARK  5 active torsions:
REMARK  status: ('A' for Active; 'I' for Inactive)
REMARK    1  A    between atoms: C_1  and  S_2
REMARK    2  A    between atoms: S_2  and  C_3
REMARK    3  A    between atoms: C_5  and  C_6
REMARK    4  A    between atoms: C_10  and  S_11
REMARK    5  A    between atoms: S_11  and  C_14
REMARK                            x       y       z     vdW  Elec       q    Type
REMARK                         _______ _______ _______ _____ _____    ______ ____
ROOT
ATOM      1  C   UNL     1       5.679   4.363  16.291  0.00  0.00    +0.000 A 
ATOM      2  S   UNL     1       7.067   5.321  16.631  0.00  0.00    +0.000 S 
ATOM      3  C   UNL     1       6.820   5.245  18.321  0.00  0.00    +0.000 A 
ATOM      4  C   UNL     1       5.693   4.507  18.619  0.00  0.00    +0.000 A 
ATOM      5  C   UNL     1       5.028   4.008  17.452  0.00  0.00    +0.000 A 
ENDROOT
BRANCH   3   6
ATOM      6  C   UNL     1       7.723   5.894  19.261  0.00  0.00    +0.000 C 
ATOM      7  N   UNL     1       7.970   5.382  20.427  0.00  0.00    +0.000 NA
ATOM      8  N   UNL     1       8.376   7.062  18.996  0.00  0.00    +0.000 N 
ATOM      9  H   UNL     1       7.434   4.512  20.539  0.00  0.00    +0.000 HD
ATOM     10  H   UNL     1       8.674   7.205  18.040  0.00  0.00    +0.000 HD
ATOM     11  H   UNL     1       9.118   7.221  19.670  0.00  0.00    +0.000 HD
ENDBRANCH   3   6
BRANCH   5  12
ATOM     12  S   UNL     1       3.550   3.105  17.564  0.00  0.00    +0.000 S 
ATOM     13  O   UNL     1       2.663   3.735  16.606  0.00  0.00    +0.000 OA
ATOM     14  O   UNL     1       3.964   1.725  17.412  0.00  0.00    +0.000 OA
BRANCH  12  15
ATOM     15  C   UNL     1       2.856   3.353  19.169  0.00  0.00    +0.000 A 
ATOM     16  C   UNL     1       3.111   2.427  20.186  0.00  0.00    +0.000 A 
ATOM     17  C   UNL     1       2.650   2.685  21.478  0.00  0.00    +0.000 A 
ATOM     18  C   UNL     1       1.946   3.861  21.749  0.00  0.00    +0.000 A 
ATOM     19  C   UNL     1       1.695   4.781  20.730  0.00  0.00    +0.000 A 
ATOM     20  C   UNL     1       2.149   4.529  19.436  0.00  0.00    +0.000 A 
ENDBRANCH  12  15
ENDBRANCH   5  12
BRANCH   1  22
ATOM     21  C   UNL     1       6.795   4.468  13.777  0.00  0.00    +0.000 C 
ATOM     22  S   UNL     1       5.292   3.926  14.630  0.00  0.00    +0.000 S 
ENDBRANCH   1  22
TORSDOF 4
ENDMDL
MODEL 9
REMARK VINA RESULT:      -6.7      3.060      5.566
REMARK  Name = 
REMARK  5 active torsions:
REMARK  status: ('A' for Active; 'I' for Inactive)
REMARK    1  A    between atoms: C_1  and  S_2
REMARK    2  A    between atoms: S_2  and  C_3
REMARK    3  A    between atoms: C_5  and  C_6
REMARK    4  A    between atoms: C_10  and  S_11
REMARK    5  A    between atoms: S_11  and  C_14
REMARK                            x       y       z     vdW  Elec       q    Type
REMARK                         _______ _______ _______ _____ _____    ______ ____
ROOT
ATOM      1  C   UNL     1       2.564   4.928  20.265  0.00  0.00    +0.000 A 
ATOM      2  S   UNL     1       1.790   6.450  20.474  0.00  0.00    +0.000 S 
ATOM      3  C   UNL     1       2.391   7.063  18.996  0.00  0.00    +0.000 A 
ATOM      4  C   UNL     1       3.175   6.125  18.358  0.00  0.00    +0.000 A 
ATOM      5  C   UNL     1       3.286   4.898  19.092  0.00  0.00    +0.000 A 
ENDROOT
BRANCH   3   6
ATOM      6  C   UNL     1       2.072   8.407  18.534  0.00  0.00    +0.000 C 
ATOM      7  N   UNL     1       2.447   8.828  17.366  0.00  0.00    +0.000 NA
ATOM      8  N   UNL     1       1.361   9.309  19.269  0.00  0.00    +0.000 N 
ATOM      9  H   UNL     1       2.977   8.088  16.889  0.00  0.00    +0.000 HD
ATOM     10  H   UNL     1       0.624   8.935  19.851  0.00  0.00    +0.000 HD
ATOM     11  H   UNL     1       1.054  10.085  18.690  0.00  0.00    +0.000 HD
ENDBRANCH   3   6
BRANCH   5  12
ATOM     12  S   UNL     1       4.272   3.587  18.527  0.00  0.00    +0.000 S 
ATOM     13  O   UNL     1       5.151   3.284  19.640  0.00  0.00    +0.000 OA
ATOM     14  O   UNL     1       3.320   2.612  18.035  0.00  0.00    +0.000 OA
BRANCH  12  15
ATOM     15  C   UNL     1       5.281   4.168  17.201  0.00  0.00    +0.000 A 
ATOM     16  C   UNL     1       6.563   4.661  17.469  0.00  0.00    +0.000 A 
ATOM     17  C   UNL     1       7.396   5.018  16.406  0.00  0.00    +0.000 A 
ATOM     18  C   UNL     1       6.950   4.877  15.089  0.00  0.00    +0.000 A 
ATOM     19  C   UNL     1       5.670   4.385  14.829  0.00  0.00    +0.000 A 
ATOM     20  C   UNL     1       4.831   4.030  15.884  0.00  0.00    +0.000 A 
ENDBRANCH  12  15
ENDBRANCH   5  12
BRANCH   1  22
ATOM     21  C   UNL     1       1.073   2.643  20.626  0.00  0.00    +0.000 C 
ATOM     22  S   UNL     1       2.332   3.648  21.452  0.00  0.00    +0.000 S 
ENDBRANCH   1  22
TORSDOF 4
ENDMDL
