MODEL 1
REMARK VINA RESULT:      -9.3      0.000      0.000
REMARK  Name = 
REMARK  5 active torsions:
REMARK  status: ('A' for Active; 'I' for Inactive)
REMARK    1  A    between atoms: C_2  and  C_3
REMARK    2  A    between atoms: C_2  and  C_22
REMARK    3  A    between atoms: C_4  and  C_5
REMARK    4  A    between atoms: N_7  and  C_8
REMARK    5  A    between atoms: C_15  and  C_16
REMARK                            x       y       z     vdW  Elec       q    Type
REMARK                         _______ _______ _______ _____ _____    ______ ____
ROOT
ATOM      1  C   UNL     1       4.092   6.419  17.126  0.00  0.00    +0.000 A 
ATOM      2  C   UNL     1       4.869   6.488  16.001  0.00  0.00    +0.000 A 
ATOM      3  N   UNL     1       5.131   5.194  15.624  0.00  0.00    +0.000 N 
ATOM      4  N   UNL     1       4.589   4.302  16.495  0.00  0.00    +0.000 NA
ATOM      5  C   UNL     1       3.942   5.036  17.420  0.00  0.00    +0.000 A 
ENDROOT
BRANCH   3   6
ATOM      6  C   UNL     1       5.858   4.767  14.481  0.00  0.00    +0.000 A 
ATOM      7  C   UNL     1       7.130   5.288  14.197  0.00  0.00    +0.000 A 
ATOM      8  C   UNL     1       7.817   4.878  13.053  0.00  0.00    +0.000 A 
ATOM      9  C   UNL     1       7.241   3.954  12.184  0.00  0.00    +0.000 A 
ATOM     10  C   UNL     1       5.981   3.427  12.463  0.00  0.00    +0.000 A 
ATOM     11  C   UNL     1       5.292   3.825  13.611  0.00  0.00    +0.000 A 
ENDBRANCH   3   6
BRANCH   5  12
ATOM     12  C   UNL     1       3.232   4.402  18.534  0.00  0.00    +0.000 A 
ATOM     13  C   UNL     1       1.846   4.525  18.677  0.00  0.00    +0.000 A 
ATOM     14  C   UNL     1       1.193   3.899  19.740  0.00  0.00    +0.000 A 
ATOM     15  C   UNL     1       1.948   3.160  20.634  0.00  0.00    +0.000 A 
ATOM     16  N   UNL     1       3.284   3.010  20.536  0.00  0.00    +0.000 NA
ATOM     17  C   UNL     1       3.891   3.644  19.500  0.00  0.00    +0.000 A 
ENDBRANCH   5  12
BRANCH   1  19
ATOM     18  C   UNL     1       2.349   8.012  17.642  0.00  0.00    +0.000 C 
ATOM     19  C   UNL     1       3.595   7.554  17.813  0.00  0.00    +0.000 C 
BRANCH  18  21
ATOM     20  O   UNL     1       2.329  10.375  17.891  0.00  0.00    +0.000 OA
ATOM     21  C   UNL     1       1.958   9.281  18.295  0.00  0.00    +0.000 C 
BRANCH  21  22
ATOM     22  C   UNL     1       1.166   9.145  19.536  0.00  0.00    +0.000 A 
ATOM     23  C   UNL     1       1.519   8.211  20.540  0.00  0.00    +0.000 A 
ATOM     24  C   UNL     1       0.946   8.292  21.810  0.00  0.00    +0.000 A 
ATOM     25  C   UNL     1       0.058   9.321  22.027  0.00  0.00    +0.000 A 
ATOM     26  C   UNL     1      -0.347  10.172  21.016  0.00  0.00    +0.000 A 
ATOM     27  C   UNL     1       0.154  10.085  19.743  0.00  0.00    +0.000 A 
ATOM     28  O   UNL     1      -1.167  11.157  21.476  0.00  0.00    +0.000 OA
ATOM     29  C   UNL     1      -0.908  11.025  22.888  0.00  0.00    +0.000 C 
ATOM     30  O   UNL     1      -0.442   9.703  23.236  0.00  0.00    +0.000 OA
ENDBRANCH  21  22
ENDBRANCH  18  21
ENDBRANCH   1  19
TORSDOF 5
ENDMDL
MODEL 2
REMARK VINA RESULT:      -9.0      0.684      1.191
REMARK  Name = 
REMARK  5 active torsions:
REMARK  status: ('A' for Active; 'I' for Inactive)
REMARK    1  A    between atoms: C_2  and  C_3
REMARK    2  A    between atoms: C_2  and  C_22
REMARK    3  A    between atoms: C_4  and  C_5
REMARK    4  A    between atoms: N_7  and  C_8
REMARK    5  A    between atoms: C_15  and  C_16
REMARK                            x       y       z     vdW  Elec       q    Type
REMARK                         _______ _______ _______ _____ _____    ______ ____
ROOT
ATOM      1  C   UNL     1       3.883   6.588  17.265  0.00  0.00    +0.000 A 
ATOM      2  C   UNL     1       4.707   6.630  16.173  0.00  0.00    +0.000 A 
ATOM      3  N   UNL     1       4.936   5.327  15.803  0.00  0.00    +0.000 N 
ATOM      4  N   UNL     1       4.326   4.454  16.650  0.00  0.00    +0.000 NA
ATOM      5  C   UNL     1       3.670   5.212  17.549  0.00  0.00    +0.000 A 
ENDROOT
BRANCH   3   6
ATOM      6  C   UNL     1       5.693   4.874  14.689  0.00  0.00    +0.000 A 
ATOM      7  C   UNL     1       5.175   3.916  13.804  0.00  0.00    +0.000 A 
ATOM      8  C   UNL     1       5.945   3.462  12.732  0.00  0.00    +0.000 A 
ATOM      9  C   UNL     1       7.234   3.954  12.539  0.00  0.00    +0.000 A 
ATOM     10  C   UNL     1       7.753   4.911  13.410  0.00  0.00    +0.000 A 
ATOM     11  C   UNL     1       6.984   5.377  14.479  0.00  0.00    +0.000 A 
ENDBRANCH   3   6
BRANCH   5  12
ATOM     12  C   UNL     1       2.892   4.604  18.632  0.00  0.00    +0.000 A 
ATOM     13  C   UNL     1       2.975   5.083  19.944  0.00  0.00    +0.000 A 
ATOM     14  C   UNL     1       2.214   4.495  20.954  0.00  0.00    +0.000 A 
ATOM     15  C   UNL     1       1.383   3.438  20.623  0.00  0.00    +0.000 A 
ATOM     16  N   UNL     1       1.267   2.945  19.374  0.00  0.00    +0.000 NA
ATOM     17  C   UNL     1       2.032   3.529  18.417  0.00  0.00    +0.000 A 
ENDBRANCH   5  12
BRANCH   1  19
ATOM     18  C   UNL     1       2.157   8.204  17.768  0.00  0.00    +0.000 C 
ATOM     19  C   UNL     1       3.402   7.740  17.934  0.00  0.00    +0.000 C 
BRANCH  18  21
ATOM     20  O   UNL     1       2.146  10.572  17.961  0.00  0.00    +0.000 OA
ATOM     21  C   UNL     1       1.782   9.488  18.400  0.00  0.00    +0.000 C 
BRANCH  21  22
ATOM     22  C   UNL     1       1.018   9.383  19.661  0.00  0.00    +0.000 A 
ATOM     23  C   UNL     1       1.422   8.509  20.699  0.00  0.00    +0.000 A 
ATOM     24  C   UNL     1       0.869   8.630  21.975  0.00  0.00    +0.000 A 
ATOM     25  C   UNL     1      -0.051   9.637  22.162  0.00  0.00    +0.000 A 
ATOM     26  C   UNL     1      -0.504  10.424  21.121  0.00  0.00    +0.000 A 
ATOM     27  C   UNL     1      -0.023  10.296  19.843  0.00  0.00    +0.000 A 
ATOM     28  O   UNL     1      -1.350  11.401  21.551  0.00  0.00    +0.000 OA
ATOM     29  C   UNL     1      -1.062  11.344  22.962  0.00  0.00    +0.000 C 
ATOM     30  O   UNL     1      -0.542  10.057  23.362  0.00  0.00    +0.000 OA
ENDBRANCH  21  22
ENDBRANCH  18  21
ENDBRANCH   1  19
TORSDOF 5
ENDMDL
MODEL 3
REMARK VINA RESULT:      -8.6      4.868      9.111
REMARK  Name = 
REMARK  5 active torsions:
REMARK  status: ('A' for Active; 'I' for Inactive)
REMARK    1  A    between atoms: C_2  and  C_3
REMARK    2  A    between atoms: C_2  and  C_22
REMARK    3  A    between atoms: C_4  and  C_5
REMARK    4  A    between atoms: N_7  and  C_8
REMARK    5  A    between atoms: C_15  and  C_16
REMARK                            x       y       z     vdW  Elec       q    Type
REMARK                         _______ _______ _______ _____ _____    ______ ____
ROOT
ATOM      1  C   UNL     1       0.661  10.573  18.526  0.00  0.00    +0.000 A 
ATOM      2  C   UNL     1      -0.624  10.229  18.201  0.00  0.00    +0.000 A 
ATOM      3  N   UNL     1      -1.385  11.362  18.358  0.00  0.00    +0.000 N 
ATOM      4  N   UNL     1      -0.641  12.403  18.817  0.00  0.00    +0.000 NA
ATOM      5  C   UNL     1       0.619  11.938  18.919  0.00  0.00    +0.000 A 
ENDROOT
BRANCH   3   6
ATOM      6  C   UNL     1      -2.773  11.503  18.087  0.00  0.00    +0.000 A 
ATOM      7  C   UNL     1      -3.655  11.986  19.065  0.00  0.00    +0.000 A 
ATOM      8  C   UNL     1      -5.020  12.091  18.790  0.00  0.00    +0.000 A 
ATOM      9  C   UNL     1      -5.513  11.710  17.544  0.00  0.00    +0.000 A 
ATOM     10  C   UNL     1      -4.642  11.235  16.565  0.00  0.00    +0.000 A 
ATOM     11  C   UNL     1      -3.274  11.138  16.830  0.00  0.00    +0.000 A 
ENDBRANCH   3   6
BRANCH   5  12
ATOM     12  C   UNL     1       1.709  12.795  19.394  0.00  0.00    +0.000 A 
ATOM     13  C   UNL     1       2.576  13.431  18.499  0.00  0.00    +0.000 A 
ATOM     14  C   UNL     1       3.597  14.252  18.977  0.00  0.00    +0.000 A 
ATOM     15  C   UNL     1       3.722  14.421  20.346  0.00  0.00    +0.000 A 
ATOM     16  N   UNL     1       2.909  13.833  21.246  0.00  0.00    +0.000 NA
ATOM     17  C   UNL     1       1.935  13.028  20.749  0.00  0.00    +0.000 A 
ENDBRANCH   5  12
BRANCH   1  19
ATOM     18  C   UNL     1       1.693   8.499  17.836  0.00  0.00    +0.000 C 
ATOM     19  C   UNL     1       1.755   9.675  18.473  0.00  0.00    +0.000 C 
BRANCH  18  21
ATOM     20  O   UNL     1       3.915   7.774  17.408  0.00  0.00    +0.000 OA
ATOM     21  C   UNL     1       2.835   7.565  17.946  0.00  0.00    +0.000 C 
BRANCH  21  22
ATOM     22  C   UNL     1       2.562   6.303  18.666  0.00  0.00    +0.000 A 
ATOM     23  C   UNL     1       2.195   6.297  20.034  0.00  0.00    +0.000 A 
ATOM     24  C   UNL     1       1.667   5.143  20.615  0.00  0.00    +0.000 A 
ATOM     25  C   UNL     1       1.509   4.049  19.794  0.00  0.00    +0.000 A 
ATOM     26  C   UNL     1       1.953   4.038  18.486  0.00  0.00    +0.000 A 
ATOM     27  C   UNL     1       2.527   5.137  17.899  0.00  0.00    +0.000 A 
ATOM     28  O   UNL     1       1.622   2.884  17.844  0.00  0.00    +0.000 OA
ATOM     29  C   UNL     1       0.637   2.385  18.771  0.00  0.00    +0.000 C 
ATOM     30  O   UNL     1       0.824   2.912  20.102  0.00  0.00    +0.000 OA
ENDBRANCH  21  22
ENDBRANCH  18  21
ENDBRANCH   1  19
TORSDOF 5
ENDMDL
MODEL 4
REMARK VINA RESULT:      -8.2      4.895      9.130
REMARK  Name = 
REMARK  5 active torsions:
REMARK  status: ('A' for Active; 'I' for Inactive)
REMARK    1  A    between atoms: C_2  and  C_3
REMARK    2  A    between atoms: C_2  and  C_22
REMARK    3  A    between atoms: C_4  and  C_5
REMARK    4  A    between atoms: N_7  and  C_8
REMARK    5  A    between atoms: C_15  and  C_16
REMARK                            x       y       z     vdW  Elec       q    Type
REMARK                         _______ _______ _______ _____ _____    ______ ____
ROOT
ATOM      1  C   UNL     1       0.549  10.497  18.621  0.00  0.00    +0.000 A 
ATOM      2  C   UNL     1      -0.761  10.180  18.384  0.00  0.00    +0.000 A 
ATOM      3  N   UNL     1      -1.459  11.363  18.391  0.00  0.00    +0.000 N 
ATOM      4  N   UNL     1      -0.649  12.418  18.671  0.00  0.00    +0.000 NA
ATOM      5  C   UNL     1       0.589  11.905  18.809  0.00  0.00    +0.000 A 
ENDROOT
BRANCH   3   6
ATOM      6  C   UNL     1      -2.846  11.539  18.138  0.00  0.00    +0.000 A 
ATOM      7  C   UNL     1      -3.709  12.016  19.136  0.00  0.00    +0.000 A 
ATOM      8  C   UNL     1      -5.074  12.155  18.878  0.00  0.00    +0.000 A 
ATOM      9  C   UNL     1      -5.587  11.814  17.629  0.00  0.00    +0.000 A 
ATOM     10  C   UNL     1      -4.736  11.344  16.630  0.00  0.00    +0.000 A 
ATOM     11  C   UNL     1      -3.367  11.213  16.878  0.00  0.00    +0.000 A 
ENDBRANCH   3   6
BRANCH   5  12
ATOM     12  C   UNL     1       1.736  12.762  19.123  0.00  0.00    +0.000 A 
ATOM     13  C   UNL     1       2.540  13.299  18.112  0.00  0.00    +0.000 A 
ATOM     14  C   UNL     1       3.618  14.122  18.438  0.00  0.00    +0.000 A 
ATOM     15  C   UNL     1       3.861  14.392  19.774  0.00  0.00    +0.000 A 
ATOM     16  N   UNL     1       3.113  13.902  20.782  0.00  0.00    +0.000 NA
ATOM     17  C   UNL     1       2.081  13.091  20.432  0.00  0.00    +0.000 A 
ENDBRANCH   5  12
BRANCH   1  19
ATOM     18  C   UNL     1       1.618   8.455  17.893  0.00  0.00    +0.000 C 
ATOM     19  C   UNL     1       1.594   9.542  18.674  0.00  0.00    +0.000 C 
BRANCH  18  21
ATOM     20  O   UNL     1       3.851   7.645  17.834  0.00  0.00    +0.000 OA
ATOM     21  C   UNL     1       2.676   7.443  18.109  0.00  0.00    +0.000 C 
BRANCH  21  22
ATOM     22  C   UNL     1       2.210   6.123  18.588  0.00  0.00    +0.000 A 
ATOM     23  C   UNL     1       1.955   5.059  17.690  0.00  0.00    +0.000 A 
ATOM     24  C   UNL     1       1.799   3.757  18.169  0.00  0.00    +0.000 A 
ATOM     25  C   UNL     1       1.927   3.574  19.527  0.00  0.00    +0.000 A 
ATOM     26  C   UNL     1       2.087   4.630  20.402  0.00  0.00    +0.000 A 
ATOM     27  C   UNL     1       2.189   5.928  19.970  0.00  0.00    +0.000 A 
ATOM     28  O   UNL     1       2.270   4.209  21.684  0.00  0.00    +0.000 OA
ATOM     29  C   UNL     1       2.568   2.823  21.424  0.00  0.00    +0.000 C 
ATOM     30  O   UNL     1       2.024   2.373  20.164  0.00  0.00    +0.000 OA
ENDBRANCH  21  22
ENDBRANCH  18  21
ENDBRANCH   1  19
TORSDOF 5
ENDMDL
MODEL 5
REMARK VINA RESULT:      -8.2      4.984      9.491
REMARK  Name = 
REMARK  5 active torsions:
REMARK  status: ('A' for Active; 'I' for Inactive)
REMARK    1  A    between atoms: C_2  and  C_3
REMARK    2  A    between atoms: C_2  and  C_22
REMARK    3  A    between atoms: C_4  and  C_5
REMARK    4  A    between atoms: N_7  and  C_8
REMARK    5  A    between atoms: C_15  and  C_16
REMARK                            x       y       z     vdW  Elec       q    Type
REMARK                         _______ _______ _______ _____ _____    ______ ____
ROOT
ATOM      1  C   UNL     1      -0.228  10.579  18.353  0.00  0.00    +0.000 A 
ATOM      2  C   UNL     1      -1.571  10.361  18.208  0.00  0.00    +0.000 A 
ATOM      3  N   UNL     1      -2.202  11.513  18.610  0.00  0.00    +0.000 N 
ATOM      4  N   UNL     1      -1.311  12.440  19.052  0.00  0.00    +0.000 NA
ATOM      5  C   UNL     1      -0.094  11.886  18.895  0.00  0.00    +0.000 A 
ENDROOT
BRANCH   3   6
ATOM      6  C   UNL     1      -3.598  11.776  18.587  0.00  0.00    +0.000 A 
ATOM      7  C   UNL     1      -4.371  11.481  17.454  0.00  0.00    +0.000 A 
ATOM      8  C   UNL     1      -5.736  11.773  17.439  0.00  0.00    +0.000 A 
ATOM      9  C   UNL     1      -6.336  12.365  18.548  0.00  0.00    +0.000 A 
ATOM     10  C   UNL     1      -5.576  12.656  19.680  0.00  0.00    +0.000 A 
ATOM     11  C   UNL     1      -4.212  12.356  19.705  0.00  0.00    +0.000 A 
ENDBRANCH   3   6
BRANCH   5  12
ATOM     12  C   UNL     1       1.124  12.606  19.276  0.00  0.00    +0.000 A 
ATOM     13  C   UNL     1       1.955  13.187  18.313  0.00  0.00    +0.000 A 
ATOM     14  C   UNL     1       3.102  13.879  18.704  0.00  0.00    +0.000 A 
ATOM     15  C   UNL     1       3.386  13.976  20.055  0.00  0.00    +0.000 A 
ATOM     16  N   UNL     1       2.613  13.437  21.019  0.00  0.00    +0.000 NA
ATOM     17  C   UNL     1       1.514  12.757  20.605  0.00  0.00    +0.000 A 
ENDBRANCH   5  12
BRANCH   1  19
ATOM     18  C   UNL     1       1.253   8.753  18.916  0.00  0.00    +0.000 C 
ATOM     19  C   UNL     1       0.766   9.625  18.024  0.00  0.00    +0.000 C 
BRANCH  18  21
ATOM     20  O   UNL     1       3.268   8.252  17.759  0.00  0.00    +0.000 OA
ATOM     21  C   UNL     1       2.384   7.883  18.522  0.00  0.00    +0.000 C 
BRANCH  21  22
ATOM     22  C   UNL     1       2.331   6.496  19.028  0.00  0.00    +0.000 A 
ATOM     23  C   UNL     1       2.136   6.217  20.403  0.00  0.00    +0.000 A 
ATOM     24  C   UNL     1       1.803   4.927  20.819  0.00  0.00    +0.000 A 
ATOM     25  C   UNL     1       1.657   3.974  19.836  0.00  0.00    +0.000 A 
ATOM     26  C   UNL     1       1.936   4.235  18.508  0.00  0.00    +0.000 A 
ATOM     27  C   UNL     1       2.320   5.478  18.072  0.00  0.00    +0.000 A 
ATOM     28  O   UNL     1       1.648   3.173  17.707  0.00  0.00    +0.000 OA
ATOM     29  C   UNL     1       0.839   2.411  18.626  0.00  0.00    +0.000 C 
ATOM     30  O   UNL     1       1.133   2.728  20.004  0.00  0.00    +0.000 OA
ENDBRANCH  21  22
ENDBRANCH  18  21
ENDBRANCH   1  19
TORSDOF 5
ENDMDL
MODEL 6
REMARK VINA RESULT:      -8.1      3.332      8.629
REMARK  Name = 
REMARK  5 active torsions:
REMARK  status: ('A' for Active; 'I' for Inactive)
REMARK    1  A    between atoms: C_2  and  C_3
REMARK    2  A    between atoms: C_2  and  C_22
REMARK    3  A    between atoms: C_4  and  C_5
REMARK    4  A    between atoms: N_7  and  C_8
REMARK    5  A    between atoms: C_15  and  C_16
REMARK                            x       y       z     vdW  Elec       q    Type
REMARK                         _______ _______ _______ _____ _____    ______ ____
ROOT
ATOM      1  C   UNL     1       3.256   6.968  18.379  0.00  0.00    +0.000 A 
ATOM      2  C   UNL     1       2.738   8.163  18.801  0.00  0.00    +0.000 A 
ATOM      3  N   UNL     1       1.756   7.864  19.714  0.00  0.00    +0.000 N 
ATOM      4  N   UNL     1       1.597   6.521  19.853  0.00  0.00    +0.000 NA
ATOM      5  C   UNL     1       2.514   5.956  19.045  0.00  0.00    +0.000 A 
ENDROOT
BRANCH   3   6
ATOM      6  C   UNL     1       0.974   8.786  20.461  0.00  0.00    +0.000 A 
ATOM      7  C   UNL     1       0.290   9.834  19.827  0.00  0.00    +0.000 A 
ATOM      8  C   UNL     1      -0.450  10.747  20.581  0.00  0.00    +0.000 A 
ATOM      9  C   UNL     1      -0.507  10.625  21.967  0.00  0.00    +0.000 A 
ATOM     10  C   UNL     1       0.164   9.582  22.604  0.00  0.00    +0.000 A 
ATOM     11  C   UNL     1       0.898   8.659  21.855  0.00  0.00    +0.000 A 
ENDBRANCH   3   6
BRANCH   5  12
ATOM     12  C   UNL     1       2.633   4.500  18.932  0.00  0.00    +0.000 A 
ATOM     13  C   UNL     1       2.270   3.830  17.759  0.00  0.00    +0.000 A 
ATOM     14  C   UNL     1       2.406   2.444  17.673  0.00  0.00    +0.000 A 
ATOM     15  C   UNL     1       2.909   1.761  18.768  0.00  0.00    +0.000 A 
ATOM     16  N   UNL     1       3.276   2.363  19.916  0.00  0.00    +0.000 NA
ATOM     17  C   UNL     1       3.116   3.710  19.974  0.00  0.00    +0.000 A 
ENDBRANCH   5  12
BRANCH   1  19
ATOM     18  C   UNL     1       5.524   6.394  17.770  0.00  0.00    +0.000 C 
ATOM     19  C   UNL     1       4.311   6.855  17.440  0.00  0.00    +0.000 C 
BRANCH  18  21
ATOM     20  O   UNL     1       7.411   7.355  16.692  0.00  0.00    +0.000 OA
ATOM     21  C   UNL     1       6.604   6.437  16.760  0.00  0.00    +0.000 C 
BRANCH  21  22
ATOM     22  C   UNL     1       6.592   5.345  15.764  0.00  0.00    +0.000 A 
ATOM     23  C   UNL     1       5.651   4.289  15.835  0.00  0.00    +0.000 A 
ATOM     24  C   UNL     1       5.466   3.437  14.745  0.00  0.00    +0.000 A 
ATOM     25  C   UNL     1       6.217   3.692  13.620  0.00  0.00    +0.000 A 
ATOM     26  C   UNL     1       7.195   4.668  13.593  0.00  0.00    +0.000 A 
ATOM     27  C   UNL     1       7.442   5.487  14.665  0.00  0.00    +0.000 A 
ATOM     28  O   UNL     1       7.755   4.795  12.358  0.00  0.00    +0.000 OA
ATOM     29  C   UNL     1       6.772   4.073  11.590  0.00  0.00    +0.000 C 
ATOM     30  O   UNL     1       6.038   3.125  12.395  0.00  0.00    +0.000 OA
ENDBRANCH  21  22
ENDBRANCH  18  21
ENDBRANCH   1  19
TORSDOF 5
ENDMDL
MODEL 7
REMARK VINA RESULT:      -8.0      2.060      2.773
REMARK  Name = 
REMARK  5 active torsions:
REMARK  status: ('A' for Active; 'I' for Inactive)
REMARK    1  A    between atoms: C_2  and  C_3
REMARK    2  A    between atoms: C_2  and  C_22
REMARK    3  A    between atoms: C_4  and  C_5
REMARK    4  A    between atoms: N_7  and  C_8
REMARK    5  A    between atoms: C_15  and  C_16
REMARK                            x       y       z     vdW  Elec       q    Type
REMARK                         _______ _______ _______ _____ _____    ______ ____
ROOT
ATOM      1  C   UNL     1       3.060   6.409  18.475  0.00  0.00    +0.000 A 
ATOM      2  C   UNL     1       3.934   6.655  17.451  0.00  0.00    +0.000 A 
ATOM      3  N   UNL     1       4.464   5.441  17.087  0.00  0.00    +0.000 N 
ATOM      4  N   UNL     1       3.995   4.437  17.874  0.00  0.00    +0.000 NA
ATOM      5  C   UNL     1       3.127   5.012  18.727  0.00  0.00    +0.000 A 
ENDROOT
BRANCH   3   6
ATOM      6  C   UNL     1       5.381   5.191  16.031  0.00  0.00    +0.000 A 
ATOM      7  C   UNL     1       6.674   5.735  16.051  0.00  0.00    +0.000 A 
ATOM      8  C   UNL     1       7.551   5.502  14.990  0.00  0.00    +0.000 A 
ATOM      9  C   UNL     1       7.144   4.733  13.903  0.00  0.00    +0.000 A 
ATOM     10  C   UNL     1       5.863   4.183  13.878  0.00  0.00    +0.000 A 
ATOM     11  C   UNL     1       4.984   4.404  14.941  0.00  0.00    +0.000 A 
ENDBRANCH   3   6
BRANCH   5  12
ATOM     12  C   UNL     1       2.420   4.223  19.740  0.00  0.00    +0.000 A 
ATOM     13  C   UNL     1       1.270   3.494  19.420  0.00  0.00    +0.000 A 
ATOM     14  C   UNL     1       0.624   2.740  20.401  0.00  0.00    +0.000 A 
ATOM     15  C   UNL     1       1.152   2.731  21.680  0.00  0.00    +0.000 A 
ATOM     16  N   UNL     1       2.259   3.413  22.034  0.00  0.00    +0.000 NA
ATOM     17  C   UNL     1       2.855   4.150  21.061  0.00  0.00    +0.000 A 
ENDBRANCH   5  12
BRANCH   1  19
ATOM     18  C   UNL     1       1.807   8.476  18.463  0.00  0.00    +0.000 C 
ATOM     19  C   UNL     1       2.294   7.414  19.116  0.00  0.00    +0.000 C 
BRANCH  18  21
ATOM     20  O   UNL     1       1.481   9.861  20.366  0.00  0.00    +0.000 OA
ATOM     21  C   UNL     1       1.134   9.544  19.236  0.00  0.00    +0.000 C 
BRANCH  21  22
ATOM     22  C   UNL     1      -0.057  10.143  18.597  0.00  0.00    +0.000 A 
ATOM     23  C   UNL     1      -0.672   9.545  17.471  0.00  0.00    +0.000 A 
ATOM     24  C   UNL     1      -1.942   9.954  17.063  0.00  0.00    +0.000 A 
ATOM     25  C   UNL     1      -2.553  10.931  17.816  0.00  0.00    +0.000 A 
ATOM     26  C   UNL     1      -1.909  11.570  18.857  0.00  0.00    +0.000 A 
ATOM     27  C   UNL     1      -0.639  11.232  19.250  0.00  0.00    +0.000 A 
ATOM     28  O   UNL     1      -2.729  12.443  19.506  0.00  0.00    +0.000 OA
ATOM     29  C   UNL     1      -3.996  11.988  18.990  0.00  0.00    +0.000 C 
ATOM     30  O   UNL     1      -3.858  11.313  17.721  0.00  0.00    +0.000 OA
ENDBRANCH  21  22
ENDBRANCH  18  21
ENDBRANCH   1  19
TORSDOF 5
ENDMDL
MODEL 8
REMARK VINA RESULT:      -8.0      2.308      3.167
REMARK  Name = 
REMARK  5 active torsions:
REMARK  status: ('A' for Active; 'I' for Inactive)
REMARK    1  A    between atoms: C_2  and  C_3
REMARK    2  A    between atoms: C_2  and  C_22
REMARK    3  A    between atoms: C_4  and  C_5
REMARK    4  A    between atoms: N_7  and  C_8
REMARK    5  A    between atoms: C_15  and  C_16
REMARK                            x       y       z     vdW  Elec       q    Type
REMARK                         _______ _______ _______ _____ _____    ______ ____
ROOT
ATOM      1  C   UNL     1       3.125   6.533  18.228  0.00  0.00    +0.000 A 
ATOM      2  C   UNL     1       3.998   6.726  17.190  0.00  0.00    +0.000 A 
ATOM      3  N   UNL     1       4.479   5.486  16.848  0.00  0.00    +0.000 N 
ATOM      4  N   UNL     1       3.982   4.516  17.660  0.00  0.00    +0.000 NA
ATOM      5  C   UNL     1       3.144   5.141  18.509  0.00  0.00    +0.000 A 
ENDROOT
BRANCH   3   6
ATOM      6  C   UNL     1       5.376   5.180  15.789  0.00  0.00    +0.000 A 
ATOM      7  C   UNL     1       6.703   5.636  15.810  0.00  0.00    +0.000 A 
ATOM      8  C   UNL     1       7.561   5.350  14.746  0.00  0.00    +0.000 A 
ATOM      9  C   UNL     1       7.102   4.615  13.656  0.00  0.00    +0.000 A 
ATOM     10  C   UNL     1       5.787   4.152  13.630  0.00  0.00    +0.000 A 
ATOM     11  C   UNL     1       4.926   4.426  14.696  0.00  0.00    +0.000 A 
ENDBRANCH   3   6
BRANCH   5  12
ATOM     12  C   UNL     1       2.420   4.399  19.545  0.00  0.00    +0.000 A 
ATOM     13  C   UNL     1       1.219   3.740  19.261  0.00  0.00    +0.000 A 
ATOM     14  C   UNL     1       0.556   3.030  20.263  0.00  0.00    +0.000 A 
ATOM     15  C   UNL     1       1.118   2.994  21.528  0.00  0.00    +0.000 A 
ATOM     16  N   UNL     1       2.273   3.610  21.848  0.00  0.00    +0.000 NA
ATOM     17  C   UNL     1       2.885   4.305  20.855  0.00  0.00    +0.000 A 
ENDBRANCH   5  12
BRANCH   1  19
ATOM     18  C   UNL     1       1.786   8.545  18.162  0.00  0.00    +0.000 C 
ATOM     19  C   UNL     1       2.403   7.579  18.854  0.00  0.00    +0.000 C 
BRANCH  18  21
ATOM     20  O   UNL     1       1.748  10.268  19.798  0.00  0.00    +0.000 OA
ATOM     21  C   UNL     1       1.170   9.671  18.899  0.00  0.00    +0.000 C 
BRANCH  21  22
ATOM     22  C   UNL     1      -0.235   9.970  18.552  0.00  0.00    +0.000 A 
ATOM     23  C   UNL     1      -0.996  10.909  19.290  0.00  0.00    +0.000 A 
ATOM     24  C   UNL     1      -2.205  11.388  18.784  0.00  0.00    +0.000 A 
ATOM     25  C   UNL     1      -2.590  10.923  17.547  0.00  0.00    +0.000 A 
ATOM     26  C   UNL     1      -1.887   9.941  16.876  0.00  0.00    +0.000 A 
ATOM     27  C   UNL     1      -0.724   9.408  17.371  0.00  0.00    +0.000 A 
ATOM     28  O   UNL     1      -2.406   9.694  15.642  0.00  0.00    +0.000 OA
ATOM     29  C   UNL     1      -3.238  10.864  15.509  0.00  0.00    +0.000 C 
ATOM     30  O   UNL     1      -3.609  11.418  16.790  0.00  0.00    +0.000 OA
ENDBRANCH  21  22
ENDBRANCH  18  21
ENDBRANCH   1  19
TORSDOF 5
ENDMDL
MODEL 9
REMARK VINA RESULT:      -8.0      4.560      7.185
REMARK  Name = 
REMARK  5 active torsions:
REMARK  status: ('A' for Active; 'I' for Inactive)
REMARK    1  A    between atoms: C_2  and  C_3
REMARK    2  A    between atoms: C_2  and  C_22
REMARK    3  A    between atoms: C_4  and  C_5
REMARK    4  A    between atoms: N_7  and  C_8
REMARK    5  A    between atoms: C_15  and  C_16
REMARK                            x       y       z     vdW  Elec       q    Type
REMARK                         _______ _______ _______ _____ _____    ______ ____
ROOT
ATOM      1  C   UNL     1      -0.267  10.052  18.483  0.00  0.00    +0.000 A 
ATOM      2  C   UNL     1       0.605   9.217  17.838  0.00  0.00    +0.000 A 
ATOM      3  N   UNL     1       1.430   8.691  18.802  0.00  0.00    +0.000 N 
ATOM      4  N   UNL     1       1.146   9.197  20.032  0.00  0.00    +0.000 NA
ATOM      5  C   UNL     1       0.102  10.029  19.855  0.00  0.00    +0.000 A 
ENDROOT
BRANCH   3   6
ATOM      6  C   UNL     1       2.462   7.733  18.615  0.00  0.00    +0.000 A 
ATOM      7  C   UNL     1       3.336   7.816  17.521  0.00  0.00    +0.000 A 
ATOM      8  C   UNL     1       4.326   6.848  17.337  0.00  0.00    +0.000 A 
ATOM      9  C   UNL     1       4.446   5.791  18.236  0.00  0.00    +0.000 A 
ATOM     10  C   UNL     1       3.585   5.705  19.330  0.00  0.00    +0.000 A 
ATOM     11  C   UNL     1       2.600   6.676  19.525  0.00  0.00    +0.000 A 
ENDBRANCH   3   6
BRANCH   5  12
ATOM     12  C   UNL     1      -0.481  10.767  20.979  0.00  0.00    +0.000 A 
ATOM     13  C   UNL     1      -1.081  12.017  20.794  0.00  0.00    +0.000 A 
ATOM     14  C   UNL     1      -1.641  12.693  21.879  0.00  0.00    +0.000 A 
ATOM     15  C   UNL     1      -1.588  12.095  23.127  0.00  0.00    +0.000 A 
ATOM     16  N   UNL     1      -1.025  10.891  23.353  0.00  0.00    +0.000 NA
ATOM     17  C   UNL     1      -0.476  10.267  22.279  0.00  0.00    +0.000 A 
ENDBRANCH   5  12
BRANCH   1  19
ATOM     18  C   UNL     1      -2.568  10.363  17.809  0.00  0.00    +0.000 C 
ATOM     19  C   UNL     1      -1.295  10.775  17.829  0.00  0.00    +0.000 C 
BRANCH  18  21
ATOM     20  O   UNL     1      -3.438  11.233  15.776  0.00  0.00    +0.000 OA
ATOM     21  C   UNL     1      -3.549  11.107  16.989  0.00  0.00    +0.000 C 
BRANCH  21  22
ATOM     22  C   UNL     1      -4.628  11.784  17.740  0.00  0.00    +0.000 A 
ATOM     23  C   UNL     1      -5.826  12.193  17.106  0.00  0.00    +0.000 A 
ATOM     24  C   UNL     1      -6.936  12.561  17.868  0.00  0.00    +0.000 A 
ATOM     25  C   UNL     1      -6.805  12.482  19.236  0.00  0.00    +0.000 A 
ATOM     26  C   UNL     1      -5.605  12.168  19.845  0.00  0.00    +0.000 A 
ATOM     27  C   UNL     1      -4.480  11.855  19.126  0.00  0.00    +0.000 A 
ATOM     28  O   UNL     1      -5.728  12.073  21.198  0.00  0.00    +0.000 OA
ATOM     29  C   UNL     1      -7.165  11.995  21.288  0.00  0.00    +0.000 C 
ATOM     30  O   UNL     1      -7.817  12.586  20.143  0.00  0.00    +0.000 OA
ENDBRANCH  21  22
ENDBRANCH  18  21
ENDBRANCH   1  19
TORSDOF 5
ENDMDL
