MODEL 1
REMARK VINA RESULT:      -7.6      0.000      0.000
REMARK  Name = 
REMARK  11 active torsions:
REMARK  status: ('A' for Active; 'I' for Inactive)
REMARK    1  A    between atoms: C_1  and  O_2
REMARK    2  A    between atoms: O_2  and  C_3
REMARK    3  A    between atoms: C_5  and  C_6
REMARK    4  A    between atoms: C_6  and  C_7
REMARK    5  A    between atoms: C_6  and  C_8
REMARK    6  A    between atoms: C_6  and  C_9
REMARK    7  A    between atoms: C_12  and  C_13
REMARK    8  A    between atoms: N_15  and  C_16
REMARK    9  A    between atoms: C_19  and  C_20
REMARK   10  A    between atoms: C_20  and  C_21
REMARK   11  A    between atoms: C_21  and  O_23
REMARK                            x       y       z     vdW  Elec       q    Type
REMARK                         _______ _______ _______ _____ _____    ______ ____
ROOT
ATOM      1  C   UNL     1       1.652   8.904  18.400  0.00  0.00    +0.000 C 
ATOM      2  O   UNL     1       2.015   9.387  17.327  0.00  0.00    +0.000 OA
ATOM      3  N   UNL     1       2.019   7.651  18.855  0.00  0.00    +0.000 N 
ATOM      4  H   UNL     1       1.564   7.320  19.701  0.00  0.00    +0.000 HD
ENDROOT
BRANCH   1  10
ATOM      5  C   UNL     1      -0.517  10.262  18.792  0.00  0.00    +0.000 A 
ATOM      6  C   UNL     1      -1.239  11.088  19.681  0.00  0.00    +0.000 A 
ATOM      7  C   UNL     1      -0.790  11.377  20.987  0.00  0.00    +0.000 A 
ATOM      8  C   UNL     1       0.368  10.728  21.421  0.00  0.00    +0.000 A 
ATOM      9  C   UNL     1       1.104   9.930  20.551  0.00  0.00    +0.000 A 
ATOM     10  C   UNL     1       0.701   9.717  19.221  0.00  0.00    +0.000 A 
BRANCH   7  11
ATOM     11  C   UNL     1      -1.539  12.357  21.906  0.00  0.00    +0.000 C 
ATOM     12  C   UNL     1      -2.737  12.945  21.142  0.00  0.00    +0.000 C 
ATOM     13  C   UNL     1      -2.058  11.663  23.189  0.00  0.00    +0.000 C 
ATOM     14  C   UNL     1      -0.633  13.515  22.386  0.00  0.00    +0.000 C 
ENDBRANCH   7  11
BRANCH   5  16
ATOM     15  C   UNL     1      -2.358  10.030  17.303  0.00  0.00    +0.000 C 
ATOM     16  O   UNL     1      -0.944  10.000  17.512  0.00  0.00    +0.000 OA
ENDBRANCH   5  16
ENDBRANCH   1  10
BRANCH   3  17
ATOM     17  C   UNL     1       2.922   6.777  18.205  0.00  0.00    +0.000 A 
ATOM     18  C   UNL     1       2.673   5.411  18.042  0.00  0.00    +0.000 A 
ATOM     19  C   UNL     1       3.567   4.588  17.356  0.00  0.00    +0.000 A 
ATOM     20  C   UNL     1       4.736   5.114  16.804  0.00  0.00    +0.000 A 
ATOM     21  C   UNL     1       5.023   6.470  17.019  0.00  0.00    +0.000 A 
ATOM     22  C   UNL     1       4.111   7.299  17.691  0.00  0.00    +0.000 A 
BRANCH  20  23
ATOM     23  C   UNL     1       5.652   4.191  16.036  0.00  0.00    +0.000 C 
BRANCH  23  24
ATOM     24  C   UNL     1       7.092   4.634  15.963  0.00  0.00    +0.000 C 
ATOM     25  O   UNL     1       7.924   4.397  16.832  0.00  0.00    +0.000 OA
BRANCH  24  26
ATOM     26  O   UNL     1       7.415   5.281  14.819  0.00  0.00    +0.000 OA
ATOM     27  H   UNL     1       8.349   5.150  14.558  0.00  0.00    +0.000 HD
ENDBRANCH  24  26
ENDBRANCH  23  24
ENDBRANCH  20  23
ENDBRANCH   3  17
TORSDOF 7
ENDMDL
MODEL 2
REMARK VINA RESULT:      -7.6      0.182      1.297
REMARK  Name = 
REMARK  11 active torsions:
REMARK  status: ('A' for Active; 'I' for Inactive)
REMARK    1  A    between atoms: C_1  and  O_2
REMARK    2  A    between atoms: O_2  and  C_3
REMARK    3  A    between atoms: C_5  and  C_6
REMARK    4  A    between atoms: C_6  and  C_7
REMARK    5  A    between atoms: C_6  and  C_8
REMARK    6  A    between atoms: C_6  and  C_9
REMARK    7  A    between atoms: C_12  and  C_13
REMARK    8  A    between atoms: N_15  and  C_16
REMARK    9  A    between atoms: C_19  and  C_20
REMARK   10  A    between atoms: C_20  and  C_21
REMARK   11  A    between atoms: C_21  and  O_23
REMARK                            x       y       z     vdW  Elec       q    Type
REMARK                         _______ _______ _______ _____ _____    ______ ____
ROOT
ATOM      1  C   UNL     1       1.659   8.895  18.345  0.00  0.00    +0.000 C 
ATOM      2  O   UNL     1       2.011   9.404  17.281  0.00  0.00    +0.000 OA
ATOM      3  N   UNL     1       2.030   7.632  18.766  0.00  0.00    +0.000 N 
ATOM      4  H   UNL     1       1.584   7.280  19.608  0.00  0.00    +0.000 HD
ENDROOT
BRANCH   1  10
ATOM      5  C   UNL     1      -0.524  10.211  18.801  0.00  0.00    +0.000 A 
ATOM      6  C   UNL     1      -1.235  11.021  19.712  0.00  0.00    +0.000 A 
ATOM      7  C   UNL     1      -0.756  11.315  21.006  0.00  0.00    +0.000 A 
ATOM      8  C   UNL     1       0.425  10.687  21.405  0.00  0.00    +0.000 A 
ATOM      9  C   UNL     1       1.152   9.905  20.513  0.00  0.00    +0.000 A 
ATOM     10  C   UNL     1       0.717   9.688  19.194  0.00  0.00    +0.000 A 
BRANCH   7  11
ATOM     11  C   UNL     1      -1.498  12.278  21.949  0.00  0.00    +0.000 C 
ATOM     12  C   UNL     1      -0.555  13.431  22.331  0.00  0.00    +0.000 C 
ATOM     13  C   UNL     1      -2.767  12.870  21.288  0.00  0.00    +0.000 C 
ATOM     14  C   UNL     1      -1.979  11.574  23.239  0.00  0.00    +0.000 C 
ENDBRANCH   7  11
BRANCH   5  16
ATOM     15  C   UNL     1      -2.187  10.609  17.147  0.00  0.00    +0.000 C 
ATOM     16  O   UNL     1      -0.981   9.944  17.533  0.00  0.00    +0.000 OA
ENDBRANCH   5  16
ENDBRANCH   1  10
BRANCH   3  17
ATOM     17  C   UNL     1       2.928   6.774  18.086  0.00  0.00    +0.000 A 
ATOM     18  C   UNL     1       4.108   7.228  17.490  0.00  0.00    +0.000 A 
ATOM     19  C   UNL     1       4.991   6.347  16.867  0.00  0.00    +0.000 A 
ATOM     20  C   UNL     1       4.721   4.978  16.831  0.00  0.00    +0.000 A 
ATOM     21  C   UNL     1       3.508   4.524  17.370  0.00  0.00    +0.000 A 
ATOM     22  C   UNL     1       2.633   5.411  18.015  0.00  0.00    +0.000 A 
BRANCH  20  23
ATOM     23  C   UNL     1       5.727   4.059  16.180  0.00  0.00    +0.000 C 
BRANCH  23  24
ATOM     24  C   UNL     1       7.146   4.572  16.163  0.00  0.00    +0.000 C 
ATOM     25  O   UNL     1       7.953   4.375  17.064  0.00  0.00    +0.000 OA
BRANCH  24  26
ATOM     26  O   UNL     1       7.481   5.238  15.033  0.00  0.00    +0.000 OA
ATOM     27  H   UNL     1       7.081   4.847  14.230  0.00  0.00    +0.000 HD
ENDBRANCH  24  26
ENDBRANCH  23  24
ENDBRANCH  20  23
ENDBRANCH   3  17
TORSDOF 7
ENDMDL
MODEL 3
REMARK VINA RESULT:      -7.6      1.241      1.620
REMARK  Name = 
REMARK  11 active torsions:
REMARK  status: ('A' for Active; 'I' for Inactive)
REMARK    1  A    between atoms: C_1  and  O_2
REMARK    2  A    between atoms: O_2  and  C_3
REMARK    3  A    between atoms: C_5  and  C_6
REMARK    4  A    between atoms: C_6  and  C_7
REMARK    5  A    between atoms: C_6  and  C_8
REMARK    6  A    between atoms: C_6  and  C_9
REMARK    7  A    between atoms: C_12  and  C_13
REMARK    8  A    between atoms: N_15  and  C_16
REMARK    9  A    between atoms: C_19  and  C_20
REMARK   10  A    between atoms: C_20  and  C_21
REMARK   11  A    between atoms: C_21  and  O_23
REMARK                            x       y       z     vdW  Elec       q    Type
REMARK                         _______ _______ _______ _____ _____    ______ ____
ROOT
ATOM      1  C   UNL     1       1.321   8.214  20.147  0.00  0.00    +0.000 C 
ATOM      2  O   UNL     1       1.553   7.335  20.978  0.00  0.00    +0.000 OA
ATOM      3  N   UNL     1       1.884   8.262  18.885  0.00  0.00    +0.000 N 
ATOM      4  H   UNL     1       1.703   9.096  18.334  0.00  0.00    +0.000 HD
ENDROOT
BRANCH   1  10
ATOM      5  C   UNL     1      -0.268  10.216  19.735  0.00  0.00    +0.000 A 
ATOM      6  C   UNL     1      -0.999  11.272  20.320  0.00  0.00    +0.000 A 
ATOM      7  C   UNL     1      -1.079  11.461  21.715  0.00  0.00    +0.000 A 
ATOM      8  C   UNL     1      -0.479  10.495  22.525  0.00  0.00    +0.000 A 
ATOM      9  C   UNL     1       0.266   9.462  21.966  0.00  0.00    +0.000 A 
ATOM     10  C   UNL     1       0.419   9.328  20.575  0.00  0.00    +0.000 A 
BRANCH   7  11
ATOM     11  C   UNL     1      -1.800  12.673  22.332  0.00  0.00    +0.000 C 
ATOM     12  C   UNL     1      -2.764  12.180  23.425  0.00  0.00    +0.000 C 
ATOM     13  C   UNL     1      -0.805  13.679  22.960  0.00  0.00    +0.000 C 
ATOM     14  C   UNL     1      -2.603  13.471  21.278  0.00  0.00    +0.000 C 
ENDBRANCH   7  11
BRANCH   5  16
ATOM     15  C   UNL     1      -1.403  10.078  17.649  0.00  0.00    +0.000 C 
ATOM     16  O   UNL     1      -0.172  10.046  18.374  0.00  0.00    +0.000 OA
ENDBRANCH   5  16
ENDBRANCH   1  10
BRANCH   3  17
ATOM     17  C   UNL     1       2.735   7.276  18.332  0.00  0.00    +0.000 A 
ATOM     18  C   UNL     1       2.517   5.905  18.496  0.00  0.00    +0.000 A 
ATOM     19  C   UNL     1       3.352   4.961  17.898  0.00  0.00    +0.000 A 
ATOM     20  C   UNL     1       4.429   5.365  17.108  0.00  0.00    +0.000 A 
ATOM     21  C   UNL     1       4.692   6.739  16.992  0.00  0.00    +0.000 A 
ATOM     22  C   UNL     1       3.837   7.685  17.577  0.00  0.00    +0.000 A 
BRANCH  20  23
ATOM     23  C   UNL     1       5.281   4.306  16.449  0.00  0.00    +0.000 C 
BRANCH  23  24
ATOM     24  C   UNL     1       6.763   4.428  16.701  0.00  0.00    +0.000 C 
ATOM     25  O   UNL     1       7.571   4.792  15.854  0.00  0.00    +0.000 OA
BRANCH  24  26
ATOM     26  O   UNL     1       7.133   4.149  17.973  0.00  0.00    +0.000 OA
ATOM     27  H   UNL     1       6.557   4.576  18.639  0.00  0.00    +0.000 HD
ENDBRANCH  24  26
ENDBRANCH  23  24
ENDBRANCH  20  23
ENDBRANCH   3  17
TORSDOF 7
ENDMDL
MODEL 4
REMARK VINA RESULT:      -7.6      0.445      1.224
REMARK  Name = 
REMARK  11 active torsions:
REMARK  status: ('A' for Active; 'I' for Inactive)
REMARK    1  A    between atoms: C_1  and  O_2
REMARK    2  A    between atoms: O_2  and  C_3
REMARK    3  A    between atoms: C_5  and  C_6
REMARK    4  A    between atoms: C_6  and  C_7
REMARK    5  A    between atoms: C_6  and  C_8
REMARK    6  A    between atoms: C_6  and  C_9
REMARK    7  A    between atoms: C_12  and  C_13
REMARK    8  A    between atoms: N_15  and  C_16
REMARK    9  A    between atoms: C_19  and  C_20
REMARK   10  A    between atoms: C_20  and  C_21
REMARK   11  A    between atoms: C_21  and  O_23
REMARK                            x       y       z     vdW  Elec       q    Type
REMARK                         _______ _______ _______ _____ _____    ______ ____
ROOT
ATOM      1  C   UNL     1       1.565   9.053  18.432  0.00  0.00    +0.000 C 
ATOM      2  O   UNL     1       2.038   9.586  17.428  0.00  0.00    +0.000 OA
ATOM      3  N   UNL     1       1.818   7.748  18.814  0.00  0.00    +0.000 N 
ATOM      4  H   UNL     1       1.281   7.388  19.597  0.00  0.00    +0.000 HD
ENDROOT
BRANCH   1  10
ATOM      5  C   UNL     1      -0.636  10.357  18.825  0.00  0.00    +0.000 A 
ATOM      6  C   UNL     1      -1.363  11.195  19.699  0.00  0.00    +0.000 A 
ATOM      7  C   UNL     1      -0.893  11.547  20.981  0.00  0.00    +0.000 A 
ATOM      8  C   UNL     1       0.294  10.952  21.411  0.00  0.00    +0.000 A 
ATOM      9  C   UNL     1       1.035  10.143  20.555  0.00  0.00    +0.000 A 
ATOM     10  C   UNL     1       0.609   9.867  19.244  0.00  0.00    +0.000 A 
BRANCH   7  11
ATOM     11  C   UNL     1      -1.652  12.539  21.881  0.00  0.00    +0.000 C 
ATOM     12  C   UNL     1      -2.800  13.169  21.075  0.00  0.00    +0.000 C 
ATOM     13  C   UNL     1      -2.242  11.846  23.133  0.00  0.00    +0.000 C 
ATOM     14  C   UNL     1      -0.734  13.665  22.410  0.00  0.00    +0.000 C 
ENDBRANCH   7  11
BRANCH   5  16
ATOM     15  C   UNL     1      -2.500   9.894  17.419  0.00  0.00    +0.000 C 
ATOM     16  O   UNL     1      -1.084  10.033  17.566  0.00  0.00    +0.000 OA
ENDBRANCH   5  16
ENDBRANCH   1  10
BRANCH   3  17
ATOM     17  C   UNL     1       2.711   6.864  18.163  0.00  0.00    +0.000 A 
ATOM     18  C   UNL     1       3.884   7.295  17.536  0.00  0.00    +0.000 A 
ATOM     19  C   UNL     1       4.764   6.390  16.943  0.00  0.00    +0.000 A 
ATOM     20  C   UNL     1       4.498   5.019  16.970  0.00  0.00    +0.000 A 
ATOM     21  C   UNL     1       3.292   4.586  17.541  0.00  0.00    +0.000 A 
ATOM     22  C   UNL     1       2.420   5.498  18.155  0.00  0.00    +0.000 A 
BRANCH  20  23
ATOM     23  C   UNL     1       5.501   4.076  16.350  0.00  0.00    +0.000 C 
BRANCH  23  24
ATOM     24  C   UNL     1       6.938   4.329  16.730  0.00  0.00    +0.000 C 
ATOM     25  O   UNL     1       7.805   4.670  15.933  0.00  0.00    +0.000 OA
BRANCH  24  26
ATOM     26  O   UNL     1       7.192   4.199  18.053  0.00  0.00    +0.000 OA
ATOM     27  H   UNL     1       7.882   3.531  18.244  0.00  0.00    +0.000 HD
ENDBRANCH  24  26
ENDBRANCH  23  24
ENDBRANCH  20  23
ENDBRANCH   3  17
TORSDOF 7
ENDMDL
MODEL 5
REMARK VINA RESULT:      -7.5      2.764      9.427
REMARK  Name = 
REMARK  11 active torsions:
REMARK  status: ('A' for Active; 'I' for Inactive)
REMARK    1  A    between atoms: C_1  and  O_2
REMARK    2  A    between atoms: O_2  and  C_3
REMARK    3  A    between atoms: C_5  and  C_6
REMARK    4  A    between atoms: C_6  and  C_7
REMARK    5  A    between atoms: C_6  and  C_8
REMARK    6  A    between atoms: C_6  and  C_9
REMARK    7  A    between atoms: C_12  and  C_13
REMARK    8  A    between atoms: N_15  and  C_16
REMARK    9  A    between atoms: C_19  and  C_20
REMARK   10  A    between atoms: C_20  and  C_21
REMARK   11  A    between atoms: C_21  and  O_23
REMARK                            x       y       z     vdW  Elec       q    Type
REMARK                         _______ _______ _______ _____ _____    ______ ____
ROOT
ATOM      1  C   UNL     1       1.437   8.602  19.452  0.00  0.00    +0.000 C 
ATOM      2  O   UNL     1       0.838   9.278  18.615  0.00  0.00    +0.000 OA
ATOM      3  N   UNL     1       1.334   8.784  20.819  0.00  0.00    +0.000 N 
ATOM      4  H   UNL     1       1.963   8.240  21.401  0.00  0.00    +0.000 HD
ENDROOT
BRANCH   1  10
ATOM      5  C   UNL     1       2.618   6.298  19.489  0.00  0.00    +0.000 A 
ATOM      6  C   UNL     1       3.621   5.486  18.917  0.00  0.00    +0.000 A 
ATOM      7  C   UNL     1       4.384   5.890  17.803  0.00  0.00    +0.000 A 
ATOM      8  C   UNL     1       4.046   7.105  17.205  0.00  0.00    +0.000 A 
ATOM      9  C   UNL     1       3.077   7.930  17.768  0.00  0.00    +0.000 A 
ATOM     10  C   UNL     1       2.381   7.564  18.933  0.00  0.00    +0.000 A 
BRANCH   7  11
ATOM     11  C   UNL     1       5.539   5.033  17.254  0.00  0.00    +0.000 C 
ATOM     12  C   UNL     1       4.980   3.678  16.790  0.00  0.00    +0.000 C 
ATOM     13  C   UNL     1       6.248   5.716  16.060  0.00  0.00    +0.000 C 
ATOM     14  C   UNL     1       6.636   4.785  18.316  0.00  0.00    +0.000 C 
ENDBRANCH   7  11
BRANCH   5  16
ATOM     15  C   UNL     1       1.315   4.605  20.537  0.00  0.00    +0.000 C 
ATOM     16  O   UNL     1       1.890   5.913  20.590  0.00  0.00    +0.000 OA
ENDBRANCH   5  16
ENDBRANCH   1  10
BRANCH   3  17
ATOM     17  C   UNL     1       0.472   9.706  21.458  0.00  0.00    +0.000 A 
ATOM     18  C   UNL     1      -0.339   9.361  22.543  0.00  0.00    +0.000 A 
ATOM     19  C   UNL     1      -1.143  10.308  23.178  0.00  0.00    +0.000 A 
ATOM     20  C   UNL     1      -1.151  11.636  22.747  0.00  0.00    +0.000 A 
ATOM     21  C   UNL     1      -0.388  11.975  21.620  0.00  0.00    +0.000 A 
ATOM     22  C   UNL     1       0.435  11.024  20.998  0.00  0.00    +0.000 A 
BRANCH  20  23
ATOM     23  C   UNL     1      -2.007  12.633  23.492  0.00  0.00    +0.000 C 
BRANCH  23  24
ATOM     24  C   UNL     1      -3.493  12.383  23.415  0.00  0.00    +0.000 C 
ATOM     25  O   UNL     1      -4.134  12.399  22.371  0.00  0.00    +0.000 OA
BRANCH  24  26
ATOM     26  O   UNL     1      -4.066  12.085  24.605  0.00  0.00    +0.000 OA
ATOM     27  H   UNL     1      -5.040  12.011  24.549  0.00  0.00    +0.000 HD
ENDBRANCH  24  26
ENDBRANCH  23  24
ENDBRANCH  20  23
ENDBRANCH   3  17
TORSDOF 7
ENDMDL
MODEL 6
REMARK VINA RESULT:      -7.5      2.779      9.442
REMARK  Name = 
REMARK  11 active torsions:
REMARK  status: ('A' for Active; 'I' for Inactive)
REMARK    1  A    between atoms: C_1  and  O_2
REMARK    2  A    between atoms: O_2  and  C_3
REMARK    3  A    between atoms: C_5  and  C_6
REMARK    4  A    between atoms: C_6  and  C_7
REMARK    5  A    between atoms: C_6  and  C_8
REMARK    6  A    between atoms: C_6  and  C_9
REMARK    7  A    between atoms: C_12  and  C_13
REMARK    8  A    between atoms: N_15  and  C_16
REMARK    9  A    between atoms: C_19  and  C_20
REMARK   10  A    between atoms: C_20  and  C_21
REMARK   11  A    between atoms: C_21  and  O_23
REMARK                            x       y       z     vdW  Elec       q    Type
REMARK                         _______ _______ _______ _____ _____    ______ ____
ROOT
ATOM      1  C   UNL     1       1.591   8.641  19.426  0.00  0.00    +0.000 C 
ATOM      2  O   UNL     1       1.207   9.498  18.631  0.00  0.00    +0.000 OA
ATOM      3  N   UNL     1       1.364   8.685  20.790  0.00  0.00    +0.000 N 
ATOM      4  H   UNL     1       1.828   7.979  21.354  0.00  0.00    +0.000 HD
ENDROOT
BRANCH   1  10
ATOM      5  C   UNL     1       2.475   6.208  19.360  0.00  0.00    +0.000 A 
ATOM      6  C   UNL     1       3.383   5.307  18.763  0.00  0.00    +0.000 A 
ATOM      7  C   UNL     1       4.218   5.669  17.686  0.00  0.00    +0.000 A 
ATOM      8  C   UNL     1       4.049   6.946  17.149  0.00  0.00    +0.000 A 
ATOM      9  C   UNL     1       3.177   7.856  17.739  0.00  0.00    +0.000 A 
ATOM     10  C   UNL     1       2.411   7.520  18.870  0.00  0.00    +0.000 A 
BRANCH   7  11
ATOM     11  C   UNL     1       5.270   4.703  17.113  0.00  0.00    +0.000 C 
ATOM     12  C   UNL     1       4.729   3.266  17.197  0.00  0.00    +0.000 C 
ATOM     13  C   UNL     1       5.605   5.024  15.636  0.00  0.00    +0.000 C 
ATOM     14  C   UNL     1       6.611   4.780  17.880  0.00  0.00    +0.000 C 
ENDBRANCH   7  11
BRANCH   5  16
ATOM     15  C   UNL     1       2.103   4.728  21.185  0.00  0.00    +0.000 C 
ATOM     16  O   UNL     1       1.677   5.861  20.424  0.00  0.00    +0.000 OA
ENDBRANCH   5  16
ENDBRANCH   1  10
BRANCH   3  17
ATOM     17  C   UNL     1       0.592   9.664  21.459  0.00  0.00    +0.000 A 
ATOM     18  C   UNL     1       0.533  10.998  21.044  0.00  0.00    +0.000 A 
ATOM     19  C   UNL     1      -0.273  11.927  21.702  0.00  0.00    +0.000 A 
ATOM     20  C   UNL     1      -1.054  11.542  22.794  0.00  0.00    +0.000 A 
ATOM     21  C   UNL     1      -0.950  10.221  23.254  0.00  0.00    +0.000 A 
ATOM     22  C   UNL     1      -0.154   9.285  22.577  0.00  0.00    +0.000 A 
BRANCH  20  23
ATOM     23  C   UNL     1      -1.941  12.575  23.448  0.00  0.00    +0.000 C 
BRANCH  23  24
ATOM     24  C   UNL     1      -3.418  12.273  23.397  0.00  0.00    +0.000 C 
ATOM     25  O   UNL     1      -4.075  11.915  24.368  0.00  0.00    +0.000 OA
BRANCH  24  26
ATOM     26  O   UNL     1      -3.984  12.481  22.185  0.00  0.00    +0.000 OA
ATOM     27  H   UNL     1      -3.595  11.921  21.483  0.00  0.00    +0.000 HD
ENDBRANCH  24  26
ENDBRANCH  23  24
ENDBRANCH  20  23
ENDBRANCH   3  17
TORSDOF 7
ENDMDL
MODEL 7
REMARK VINA RESULT:      -7.5      0.167      1.448
REMARK  Name = 
REMARK  11 active torsions:
REMARK  status: ('A' for Active; 'I' for Inactive)
REMARK    1  A    between atoms: C_1  and  O_2
REMARK    2  A    between atoms: O_2  and  C_3
REMARK    3  A    between atoms: C_5  and  C_6
REMARK    4  A    between atoms: C_6  and  C_7
REMARK    5  A    between atoms: C_6  and  C_8
REMARK    6  A    between atoms: C_6  and  C_9
REMARK    7  A    between atoms: C_12  and  C_13
REMARK    8  A    between atoms: N_15  and  C_16
REMARK    9  A    between atoms: C_19  and  C_20
REMARK   10  A    between atoms: C_20  and  C_21
REMARK   11  A    between atoms: C_21  and  O_23
REMARK                            x       y       z     vdW  Elec       q    Type
REMARK                         _______ _______ _______ _____ _____    ______ ____
ROOT
ATOM      1  C   UNL     1       1.607   8.949  18.373  0.00  0.00    +0.000 C 
ATOM      2  O   UNL     1       1.971   9.436  17.303  0.00  0.00    +0.000 OA
ATOM      3  N   UNL     1       1.953   7.685  18.813  0.00  0.00    +0.000 N 
ATOM      4  H   UNL     1       1.498   7.354  19.659  0.00  0.00    +0.000 HD
ENDROOT
BRANCH   1  10
ATOM      5  C   UNL     1      -0.555  10.307  18.808  0.00  0.00    +0.000 A 
ATOM      6  C   UNL     1      -1.253  11.144  19.705  0.00  0.00    +0.000 A 
ATOM      7  C   UNL     1      -0.768  11.453  20.992  0.00  0.00    +0.000 A 
ATOM      8  C   UNL     1       0.404  10.815  21.402  0.00  0.00    +0.000 A 
ATOM      9  C   UNL     1       1.117  10.005  20.524  0.00  0.00    +0.000 A 
ATOM     10  C   UNL     1       0.677   9.772  19.209  0.00  0.00    +0.000 A 
BRANCH   7  11
ATOM     11  C   UNL     1      -1.494  12.445  21.918  0.00  0.00    +0.000 C 
ATOM     12  C   UNL     1      -1.980  11.696  23.171  0.00  0.00    +0.000 C 
ATOM     13  C   UNL     1      -0.570  13.606  22.358  0.00  0.00    +0.000 C 
ATOM     14  C   UNL     1      -2.709  13.106  21.226  0.00  0.00    +0.000 C 
ENDBRANCH   7  11
BRANCH   5  16
ATOM     15  C   UNL     1      -2.438   9.940  17.399  0.00  0.00    +0.000 C 
ATOM     16  O   UNL     1      -1.018  10.025  17.544  0.00  0.00    +0.000 OA
ENDBRANCH   5  16
ENDBRANCH   1  10
BRANCH   3  17
ATOM     17  C   UNL     1       2.835   6.801  18.148  0.00  0.00    +0.000 A 
ATOM     18  C   UNL     1       4.048   7.216  17.590  0.00  0.00    +0.000 A 
ATOM     19  C   UNL     1       4.914   6.308  16.980  0.00  0.00    +0.000 A 
ATOM     20  C   UNL     1       4.593   4.951  16.920  0.00  0.00    +0.000 A 
ATOM     21  C   UNL     1       3.349   4.539  17.421  0.00  0.00    +0.000 A 
ATOM     22  C   UNL     1       2.490   5.451  18.052  0.00  0.00    +0.000 A 
BRANCH  20  23
ATOM     23  C   UNL     1       5.581   4.001  16.286  0.00  0.00    +0.000 C 
BRANCH  23  24
ATOM     24  C   UNL     1       6.884   4.627  15.855  0.00  0.00    +0.000 C 
ATOM     25  O   UNL     1       7.019   5.284  14.829  0.00  0.00    +0.000 OA
BRANCH  24  26
ATOM     26  O   UNL     1       7.901   4.447  16.730  0.00  0.00    +0.000 OA
ATOM     27  H   UNL     1       8.011   3.512  16.997  0.00  0.00    +0.000 HD
ENDBRANCH  24  26
ENDBRANCH  23  24
ENDBRANCH  20  23
ENDBRANCH   3  17
TORSDOF 7
ENDMDL
MODEL 8
REMARK VINA RESULT:      -7.4      1.242      1.810
REMARK  Name = 
REMARK  11 active torsions:
REMARK  status: ('A' for Active; 'I' for Inactive)
REMARK    1  A    between atoms: C_1  and  O_2
REMARK    2  A    between atoms: O_2  and  C_3
REMARK    3  A    between atoms: C_5  and  C_6
REMARK    4  A    between atoms: C_6  and  C_7
REMARK    5  A    between atoms: C_6  and  C_8
REMARK    6  A    between atoms: C_6  and  C_9
REMARK    7  A    between atoms: C_12  and  C_13
REMARK    8  A    between atoms: N_15  and  C_16
REMARK    9  A    between atoms: C_19  and  C_20
REMARK   10  A    between atoms: C_20  and  C_21
REMARK   11  A    between atoms: C_21  and  O_23
REMARK                            x       y       z     vdW  Elec       q    Type
REMARK                         _______ _______ _______ _____ _____    ______ ____
ROOT
ATOM      1  C   UNL     1       1.429   8.401  20.091  0.00  0.00    +0.000 C 
ATOM      2  O   UNL     1       1.901   7.671  20.962  0.00  0.00    +0.000 OA
ATOM      3  N   UNL     1       1.777   8.345  18.754  0.00  0.00    +0.000 N 
ATOM      4  H   UNL     1       1.405   9.074  18.153  0.00  0.00    +0.000 HD
ENDROOT
BRANCH   1  10
ATOM      5  C   UNL     1      -0.282  10.308  19.715  0.00  0.00    +0.000 A 
ATOM      6  C   UNL     1      -1.070  11.311  20.319  0.00  0.00    +0.000 A 
ATOM      7  C   UNL     1      -1.147  11.481  21.717  0.00  0.00    +0.000 A 
ATOM      8  C   UNL     1      -0.482  10.544  22.510  0.00  0.00    +0.000 A 
ATOM      9  C   UNL     1       0.319   9.564  21.933  0.00  0.00    +0.000 A 
ATOM     10  C   UNL     1       0.466   9.454  20.539  0.00  0.00    +0.000 A 
BRANCH   7  11
ATOM     11  C   UNL     1      -1.934  12.640  22.354  0.00  0.00    +0.000 C 
ATOM     12  C   UNL     1      -2.899  12.072  23.407  0.00  0.00    +0.000 C 
ATOM     13  C   UNL     1      -0.998  13.667  23.036  0.00  0.00    +0.000 C 
ATOM     14  C   UNL     1      -2.748  13.436  21.306  0.00  0.00    +0.000 C 
ENDBRANCH   7  11
BRANCH   5  16
ATOM     15  C   UNL     1      -1.426  10.168  17.634  0.00  0.00    +0.000 C 
ATOM     16  O   UNL     1      -0.189  10.158  18.352  0.00  0.00    +0.000 OA
ENDBRANCH   5  16
ENDBRANCH   1  10
BRANCH   3  17
ATOM     17  C   UNL     1       2.655   7.396  18.177  0.00  0.00    +0.000 A 
ATOM     18  C   UNL     1       3.813   7.757  17.482  0.00  0.00    +0.000 A 
ATOM     19  C   UNL     1       4.678   6.793  16.964  0.00  0.00    +0.000 A 
ATOM     20  C   UNL     1       4.411   5.434  17.137  0.00  0.00    +0.000 A 
ATOM     21  C   UNL     1       3.219   5.065  17.777  0.00  0.00    +0.000 A 
ATOM     22  C   UNL     1       2.362   6.038  18.314  0.00  0.00    +0.000 A 
BRANCH  20  23
ATOM     23  C   UNL     1       5.399   4.428  16.593  0.00  0.00    +0.000 C 
BRANCH  23  24
ATOM     24  C   UNL     1       6.760   4.454  17.243  0.00  0.00    +0.000 C 
ATOM     25  O   UNL     1       6.939   4.414  18.455  0.00  0.00    +0.000 OA
BRANCH  24  26
ATOM     26  O   UNL     1       7.792   4.473  16.366  0.00  0.00    +0.000 OA
ATOM     27  H   UNL     1       8.111   3.578  16.135  0.00  0.00    +0.000 HD
ENDBRANCH  24  26
ENDBRANCH  23  24
ENDBRANCH  20  23
ENDBRANCH   3  17
TORSDOF 7
ENDMDL
MODEL 9
REMARK VINA RESULT:      -7.4      1.227      1.895
REMARK  Name = 
REMARK  11 active torsions:
REMARK  status: ('A' for Active; 'I' for Inactive)
REMARK    1  A    between atoms: C_1  and  O_2
REMARK    2  A    between atoms: O_2  and  C_3
REMARK    3  A    between atoms: C_5  and  C_6
REMARK    4  A    between atoms: C_6  and  C_7
REMARK    5  A    between atoms: C_6  and  C_8
REMARK    6  A    between atoms: C_6  and  C_9
REMARK    7  A    between atoms: C_12  and  C_13
REMARK    8  A    between atoms: N_15  and  C_16
REMARK    9  A    between atoms: C_19  and  C_20
REMARK   10  A    between atoms: C_20  and  C_21
REMARK   11  A    between atoms: C_21  and  O_23
REMARK                            x       y       z     vdW  Elec       q    Type
REMARK                         _______ _______ _______ _____ _____    ______ ____
ROOT
ATOM      1  C   UNL     1       1.778   8.029  19.868  0.00  0.00    +0.000 C 
ATOM      2  O   UNL     1       2.111   7.224  20.738  0.00  0.00    +0.000 OA
ATOM      3  N   UNL     1       2.234   7.999  18.563  0.00  0.00    +0.000 N 
ATOM      4  H   UNL     1       1.977   8.783  17.970  0.00  0.00    +0.000 HD
ENDROOT
BRANCH   1  10
ATOM      5  C   UNL     1       0.649  10.343  19.599  0.00  0.00    +0.000 A 
ATOM      6  C   UNL     1      -0.171  11.324  20.198  0.00  0.00    +0.000 A 
ATOM      7  C   UNL     1      -0.787  11.139  21.453  0.00  0.00    +0.000 A 
ATOM      8  C   UNL     1      -0.639   9.889  22.057  0.00  0.00    +0.000 A 
ATOM      9  C   UNL     1       0.184   8.920  21.494  0.00  0.00    +0.000 A 
ATOM     10  C   UNL     1       0.870   9.142  20.287  0.00  0.00    +0.000 A 
BRANCH   7  11
ATOM     11  C   UNL     1      -1.598  12.256  22.134  0.00  0.00    +0.000 C 
ATOM     12  C   UNL     1      -0.641  13.384  22.554  0.00  0.00    +0.000 C 
ATOM     13  C   UNL     1      -2.678  12.842  21.192  0.00  0.00    +0.000 C 
ATOM     14  C   UNL     1      -2.354  11.748  23.383  0.00  0.00    +0.000 C 
ENDBRANCH   7  11
BRANCH   5  16
ATOM     15  C   UNL     1       2.126  11.674  18.291  0.00  0.00    +0.000 C 
ATOM     16  O   UNL     1       1.268  10.534  18.386  0.00  0.00    +0.000 OA
ENDBRANCH   5  16
ENDBRANCH   1  10
BRANCH   3  17
ATOM     17  C   UNL     1       3.076   7.003  18.013  0.00  0.00    +0.000 A 
ATOM     18  C   UNL     1       2.769   5.640  18.060  0.00  0.00    +0.000 A 
ATOM     19  C   UNL     1       3.601   4.689  17.469  0.00  0.00    +0.000 A 
ATOM     20  C   UNL     1       4.765   5.079  16.803  0.00  0.00    +0.000 A 
ATOM     21  C   UNL     1       5.111   6.439  16.808  0.00  0.00    +0.000 A 
ATOM     22  C   UNL     1       4.260   7.394  17.386  0.00  0.00    +0.000 A 
BRANCH  20  23
ATOM     23  C   UNL     1       5.612   4.017  16.143  0.00  0.00    +0.000 C 
BRANCH  23  24
ATOM     24  C   UNL     1       7.060   4.389  15.939  0.00  0.00    +0.000 C 
ATOM     25  O   UNL     1       7.491   4.919  14.921  0.00  0.00    +0.000 OA
BRANCH  24  26
ATOM     26  O   UNL     1       7.853   4.133  17.006  0.00  0.00    +0.000 OA
ATOM     27  H   UNL     1       8.782   4.403  16.861  0.00  0.00    +0.000 HD
ENDBRANCH  24  26
ENDBRANCH  23  24
ENDBRANCH  20  23
ENDBRANCH   3  17
TORSDOF 7
ENDMDL
