MODEL 1
REMARK VINA RESULT:      -6.4      0.000      0.000
REMARK  Name = 
REMARK  8 active torsions:
REMARK  status: ('A' for Active; 'I' for Inactive)
REMARK    1  A    between atoms: C_1  and  C_2
REMARK    2  A    between atoms: C_2  and  C_3
REMARK    3  A    between atoms: C_2  and  C_4
REMARK    4  A    between atoms: C_2  and  C_5
REMARK    5  A    between atoms: C_5  and  O_7
REMARK    6  A    between atoms: O_7  and  C_8
REMARK    7  A    between atoms: C_8  and  C_9
REMARK    8  A    between atoms: C_9  and  C_11
REMARK                            x       y       z     vdW  Elec       q    Type
REMARK                         _______ _______ _______ _____ _____    ______ ____
ROOT
ATOM      1  C   UNL     1       4.160   3.396  17.658  0.00  0.00    +0.000 C 
ENDROOT
BRANCH   1   2
ATOM      2  C   UNL     1       4.177   4.920  17.713  0.00  0.00    +0.000 C 
ATOM      3  O   UNL     1       3.161   5.606  17.572  0.00  0.00    +0.000 OA
BRANCH   2   4
ATOM      4  C   UNL     1       5.481   5.601  17.926  0.00  0.00    +0.000 A 
ATOM      5  C   UNL     1       6.289   5.166  18.985  0.00  0.00    +0.000 A 
ATOM      6  C   UNL     1       7.514   5.784  19.236  0.00  0.00    +0.000 A 
ATOM      7  C   UNL     1       7.944   6.831  18.424  0.00  0.00    +0.000 A 
ATOM      8  C   UNL     1       7.154   7.258  17.358  0.00  0.00    +0.000 A 
ATOM      9  C   UNL     1       5.922   6.647  17.105  0.00  0.00    +0.000 A 
ENDBRANCH   2   4
ENDBRANCH   1   2
BRANCH   1  10
ATOM     10  O   UNL     1       3.053   2.841  18.379  0.00  0.00    +0.000 OA
BRANCH  10  11
ATOM     11  C   UNL     1       3.221   2.821  19.733  0.00  0.00    +0.000 C 
ATOM     12  O   UNL     1       4.250   2.454  20.289  0.00  0.00    +0.000 OA
BRANCH  11  14
ATOM     13  C   UNL     1       2.227   4.811  20.872  0.00  0.00    +0.000 C 
ATOM     14  C   UNL     1       1.980   3.352  20.457  0.00  0.00    +0.000 C 
ATOM     15  C   UNL     1       1.712   2.516  21.714  0.00  0.00    +0.000 C 
ATOM     16  C   UNL     1       0.763   3.305  19.521  0.00  0.00    +0.000 C 
ENDBRANCH  11  14
ENDBRANCH  10  11
ENDBRANCH   1  10
TORSDOF 5
ENDMDL
MODEL 2
REMARK VINA RESULT:      -6.3      2.286      5.444
REMARK  Name = 
REMARK  8 active torsions:
REMARK  status: ('A' for Active; 'I' for Inactive)
REMARK    1  A    between atoms: C_1  and  C_2
REMARK    2  A    between atoms: C_2  and  C_3
REMARK    3  A    between atoms: C_2  and  C_4
REMARK    4  A    between atoms: C_2  and  C_5
REMARK    5  A    between atoms: C_5  and  O_7
REMARK    6  A    between atoms: O_7  and  C_8
REMARK    7  A    between atoms: C_8  and  C_9
REMARK    8  A    between atoms: C_9  and  C_11
REMARK                            x       y       z     vdW  Elec       q    Type
REMARK                         _______ _______ _______ _____ _____    ______ ____
ROOT
ATOM      1  C   UNL     1       3.381   7.258  17.667  0.00  0.00    +0.000 C 
ENDROOT
BRANCH   1   2
ATOM      2  C   UNL     1       2.502   6.993  18.884  0.00  0.00    +0.000 C 
ATOM      3  O   UNL     1       2.178   7.877  19.681  0.00  0.00    +0.000 OA
BRANCH   2   4
ATOM      4  C   UNL     1       2.035   5.602  19.124  0.00  0.00    +0.000 A 
ATOM      5  C   UNL     1       1.864   4.761  18.016  0.00  0.00    +0.000 A 
ATOM      6  C   UNL     1       1.412   3.453  18.188  0.00  0.00    +0.000 A 
ATOM      7  C   UNL     1       1.140   2.974  19.468  0.00  0.00    +0.000 A 
ATOM      8  C   UNL     1       1.324   3.799  20.576  0.00  0.00    +0.000 A 
ATOM      9  C   UNL     1       1.770   5.113  20.410  0.00  0.00    +0.000 A 
ENDBRANCH   2   4
ENDBRANCH   1   2
BRANCH   1  10
ATOM     10  O   UNL     1       4.730   6.818  17.868  0.00  0.00    +0.000 OA
BRANCH  10  11
ATOM     11  C   UNL     1       5.278   6.182  16.792  0.00  0.00    +0.000 C 
ATOM     12  O   UNL     1       5.404   6.694  15.686  0.00  0.00    +0.000 OA
BRANCH  11  14
ATOM     13  C   UNL     1       5.589   4.565  18.674  0.00  0.00    +0.000 C 
ATOM     14  C   UNL     1       5.748   4.771  17.158  0.00  0.00    +0.000 C 
ATOM     15  C   UNL     1       7.226   4.601  16.786  0.00  0.00    +0.000 C 
ATOM     16  C   UNL     1       4.895   3.725  16.426  0.00  0.00    +0.000 C 
ENDBRANCH  11  14
ENDBRANCH  10  11
ENDBRANCH   1  10
TORSDOF 5
ENDMDL
MODEL 3
REMARK VINA RESULT:      -6.3      2.268      5.403
REMARK  Name = 
REMARK  8 active torsions:
REMARK  status: ('A' for Active; 'I' for Inactive)
REMARK    1  A    between atoms: C_1  and  C_2
REMARK    2  A    between atoms: C_2  and  C_3
REMARK    3  A    between atoms: C_2  and  C_4
REMARK    4  A    between atoms: C_2  and  C_5
REMARK    5  A    between atoms: C_5  and  O_7
REMARK    6  A    between atoms: O_7  and  C_8
REMARK    7  A    between atoms: C_8  and  C_9
REMARK    8  A    between atoms: C_9  and  C_11
REMARK                            x       y       z     vdW  Elec       q    Type
REMARK                         _______ _______ _______ _____ _____    ______ ____
ROOT
ATOM      1  C   UNL     1       3.335   6.995  17.678  0.00  0.00    +0.000 C 
ENDROOT
BRANCH   1   2
ATOM      2  C   UNL     1       2.514   6.710  18.931  0.00  0.00    +0.000 C 
ATOM      3  O   UNL     1       2.267   7.572  19.779  0.00  0.00    +0.000 OA
BRANCH   2   4
ATOM      4  C   UNL     1       2.009   5.328  19.141  0.00  0.00    +0.000 A 
ATOM      5  C   UNL     1       1.699   4.928  20.447  0.00  0.00    +0.000 A 
ATOM      6  C   UNL     1       1.237   3.636  20.697  0.00  0.00    +0.000 A 
ATOM      7  C   UNL     1       1.070   2.741  19.642  0.00  0.00    +0.000 A 
ATOM      8  C   UNL     1       1.360   3.137  18.337  0.00  0.00    +0.000 A 
ATOM      9  C   UNL     1       1.830   4.429  18.081  0.00  0.00    +0.000 A 
ENDBRANCH   2   4
ENDBRANCH   1   2
BRANCH   1  10
ATOM     10  O   UNL     1       4.733   6.756  17.882  0.00  0.00    +0.000 OA
BRANCH  10  11
ATOM     11  C   UNL     1       5.360   6.159  16.827  0.00  0.00    +0.000 C 
ATOM     12  O   UNL     1       5.554   6.706  15.747  0.00  0.00    +0.000 OA
BRANCH  11  14
ATOM     13  C   UNL     1       5.590   4.498  18.681  0.00  0.00    +0.000 C 
ATOM     14  C   UNL     1       5.822   4.742  17.181  0.00  0.00    +0.000 C 
ATOM     15  C   UNL     1       7.317   4.591  16.877  0.00  0.00    +0.000 C 
ATOM     16  C   UNL     1       5.013   3.709  16.383  0.00  0.00    +0.000 C 
ENDBRANCH  11  14
ENDBRANCH  10  11
ENDBRANCH   1  10
TORSDOF 5
ENDMDL
MODEL 4
REMARK VINA RESULT:      -6.2      2.269      5.600
REMARK  Name = 
REMARK  8 active torsions:
REMARK  status: ('A' for Active; 'I' for Inactive)
REMARK    1  A    between atoms: C_1  and  C_2
REMARK    2  A    between atoms: C_2  and  C_3
REMARK    3  A    between atoms: C_2  and  C_4
REMARK    4  A    between atoms: C_2  and  C_5
REMARK    5  A    between atoms: C_5  and  O_7
REMARK    6  A    between atoms: O_7  and  C_8
REMARK    7  A    between atoms: C_8  and  C_9
REMARK    8  A    between atoms: C_9  and  C_11
REMARK                            x       y       z     vdW  Elec       q    Type
REMARK                         _______ _______ _______ _____ _____    ______ ____
ROOT
ATOM      1  C   UNL     1       3.394   6.988  17.625  0.00  0.00    +0.000 C 
ENDROOT
BRANCH   1   2
ATOM      2  C   UNL     1       2.570   6.739  18.884  0.00  0.00    +0.000 C 
ATOM      3  O   UNL     1       2.350   7.616  19.723  0.00  0.00    +0.000 OA
BRANCH   2   4
ATOM      4  C   UNL     1       2.029   5.374  19.111  0.00  0.00    +0.000 A 
ATOM      5  C   UNL     1       1.819   4.957  20.432  0.00  0.00    +0.000 A 
ATOM      6  C   UNL     1       1.328   3.678  20.698  0.00  0.00    +0.000 A 
ATOM      7  C   UNL     1       1.033   2.814  19.645  0.00  0.00    +0.000 A 
ATOM      8  C   UNL     1       1.223   3.228  18.327  0.00  0.00    +0.000 A 
ATOM      9  C   UNL     1       1.721   4.506  18.055  0.00  0.00    +0.000 A 
ENDBRANCH   2   4
ENDBRANCH   1   2
BRANCH   1  10
ATOM     10  O   UNL     1       4.615   6.238  17.620  0.00  0.00    +0.000 OA
BRANCH  10  11
ATOM     11  C   UNL     1       5.141   6.032  16.378  0.00  0.00    +0.000 C 
ATOM     12  O   UNL     1       5.160   6.882  15.494  0.00  0.00    +0.000 OA
BRANCH  11  14
ATOM     13  C   UNL     1       5.859   4.268  14.760  0.00  0.00    +0.000 C 
ATOM     14  C   UNL     1       5.737   4.628  16.250  0.00  0.00    +0.000 C 
ATOM     15  C   UNL     1       4.821   3.607  16.935  0.00  0.00    +0.000 C 
ATOM     16  C   UNL     1       7.136   4.590  16.882  0.00  0.00    +0.000 C 
ENDBRANCH  11  14
ENDBRANCH  10  11
ENDBRANCH   1  10
TORSDOF 5
ENDMDL
MODEL 5
REMARK VINA RESULT:      -6.1      2.056      5.639
REMARK  Name = 
REMARK  8 active torsions:
REMARK  status: ('A' for Active; 'I' for Inactive)
REMARK    1  A    between atoms: C_1  and  C_2
REMARK    2  A    between atoms: C_2  and  C_3
REMARK    3  A    between atoms: C_2  and  C_4
REMARK    4  A    between atoms: C_2  and  C_5
REMARK    5  A    between atoms: C_5  and  O_7
REMARK    6  A    between atoms: O_7  and  C_8
REMARK    7  A    between atoms: C_8  and  C_9
REMARK    8  A    between atoms: C_9  and  C_11
REMARK                            x       y       z     vdW  Elec       q    Type
REMARK                         _______ _______ _______ _____ _____    ______ ____
ROOT
ATOM      1  C   UNL     1       5.294   5.319  19.208  0.00  0.00    +0.000 C 
ENDROOT
BRANCH   1   2
ATOM      2  C   UNL     1       3.847   5.720  18.939  0.00  0.00    +0.000 C 
ATOM      3  O   UNL     1       3.532   6.820  18.477  0.00  0.00    +0.000 OA
BRANCH   2   4
ATOM      4  C   UNL     1       2.775   4.744  19.268  0.00  0.00    +0.000 A 
ATOM      5  C   UNL     1       2.221   3.993  18.223  0.00  0.00    +0.000 A 
ATOM      6  C   UNL     1       1.202   3.075  18.479  0.00  0.00    +0.000 A 
ATOM      7  C   UNL     1       0.739   2.895  19.781  0.00  0.00    +0.000 A 
ATOM      8  C   UNL     1       1.298   3.626  20.828  0.00  0.00    +0.000 A 
ATOM      9  C   UNL     1       2.315   4.551  20.577  0.00  0.00    +0.000 A 
ENDBRANCH   2   4
ENDBRANCH   1   2
BRANCH   1  10
ATOM     10  O   UNL     1       5.815   4.460  18.187  0.00  0.00    +0.000 OA
BRANCH  10  11
ATOM     11  C   UNL     1       6.600   5.094  17.268  0.00  0.00    +0.000 C 
ATOM     12  O   UNL     1       7.684   5.603  17.529  0.00  0.00    +0.000 OA
BRANCH  11  14
ATOM     13  C   UNL     1       4.947   3.905  15.818  0.00  0.00    +0.000 C 
ATOM     14  C   UNL     1       5.973   5.049  15.871  0.00  0.00    +0.000 C 
ATOM     15  C   UNL     1       7.059   4.792  14.820  0.00  0.00    +0.000 C 
ATOM     16  C   UNL     1       5.252   6.372  15.575  0.00  0.00    +0.000 C 
ENDBRANCH  11  14
ENDBRANCH  10  11
ENDBRANCH   1  10
TORSDOF 5
ENDMDL
MODEL 6
REMARK VINA RESULT:      -6.1      2.052      5.496
REMARK  Name = 
REMARK  8 active torsions:
REMARK  status: ('A' for Active; 'I' for Inactive)
REMARK    1  A    between atoms: C_1  and  C_2
REMARK    2  A    between atoms: C_2  and  C_3
REMARK    3  A    between atoms: C_2  and  C_4
REMARK    4  A    between atoms: C_2  and  C_5
REMARK    5  A    between atoms: C_5  and  O_7
REMARK    6  A    between atoms: O_7  and  C_8
REMARK    7  A    between atoms: C_8  and  C_9
REMARK    8  A    between atoms: C_9  and  C_11
REMARK                            x       y       z     vdW  Elec       q    Type
REMARK                         _______ _______ _______ _____ _____    ______ ____
ROOT
ATOM      1  C   UNL     1       5.223   5.368  19.199  0.00  0.00    +0.000 C 
ENDROOT
BRANCH   1   2
ATOM      2  C   UNL     1       3.773   5.749  18.919  0.00  0.00    +0.000 C 
ATOM      3  O   UNL     1       3.444   6.858  18.492  0.00  0.00    +0.000 OA
BRANCH   2   4
ATOM      4  C   UNL     1       2.717   4.740  19.194  0.00  0.00    +0.000 A 
ATOM      5  C   UNL     1       2.270   4.592  20.513  0.00  0.00    +0.000 A 
ATOM      6  C   UNL     1       1.292   3.648  20.825  0.00  0.00    +0.000 A 
ATOM      7  C   UNL     1       0.745   2.855  19.817  0.00  0.00    +0.000 A 
ATOM      8  C   UNL     1       1.172   3.009  18.498  0.00  0.00    +0.000 A 
ATOM      9  C   UNL     1       2.157   3.949  18.182  0.00  0.00    +0.000 A 
ENDBRANCH   2   4
ENDBRANCH   1   2
BRANCH   1  10
ATOM     10  O   UNL     1       5.741   4.457  18.222  0.00  0.00    +0.000 OA
BRANCH  10  11
ATOM     11  C   UNL     1       6.570   5.033  17.303  0.00  0.00    +0.000 C 
ATOM     12  O   UNL     1       7.679   5.484  17.571  0.00  0.00    +0.000 OA
BRANCH  11  14
ATOM     13  C   UNL     1       5.270   6.349  15.623  0.00  0.00    +0.000 C 
ATOM     14  C   UNL     1       5.957   5.002  15.900  0.00  0.00    +0.000 C 
ATOM     15  C   UNL     1       4.913   3.883  15.812  0.00  0.00    +0.000 C 
ATOM     16  C   UNL     1       7.056   4.783  14.850  0.00  0.00    +0.000 C 
ENDBRANCH  11  14
ENDBRANCH  10  11
ENDBRANCH   1  10
TORSDOF 5
ENDMDL
MODEL 7
REMARK VINA RESULT:      -6.1      1.990      5.719
REMARK  Name = 
REMARK  8 active torsions:
REMARK  status: ('A' for Active; 'I' for Inactive)
REMARK    1  A    between atoms: C_1  and  C_2
REMARK    2  A    between atoms: C_2  and  C_3
REMARK    3  A    between atoms: C_2  and  C_4
REMARK    4  A    between atoms: C_2  and  C_5
REMARK    5  A    between atoms: C_5  and  O_7
REMARK    6  A    between atoms: O_7  and  C_8
REMARK    7  A    between atoms: C_8  and  C_9
REMARK    8  A    between atoms: C_9  and  C_11
REMARK                            x       y       z     vdW  Elec       q    Type
REMARK                         _______ _______ _______ _____ _____    ______ ____
ROOT
ATOM      1  C   UNL     1       4.059   6.465  18.040  0.00  0.00    +0.000 C 
ENDROOT
BRANCH   1   2
ATOM      2  C   UNL     1       4.294   5.430  19.136  0.00  0.00    +0.000 C 
ATOM      3  O   UNL     1       5.364   5.328  19.741  0.00  0.00    +0.000 OA
BRANCH   2   4
ATOM      4  C   UNL     1       3.187   4.496  19.468  0.00  0.00    +0.000 A 
ATOM      5  C   UNL     1       2.073   5.006  20.147  0.00  0.00    +0.000 A 
ATOM      6  C   UNL     1       1.015   4.166  20.496  0.00  0.00    +0.000 A 
ATOM      7  C   UNL     1       1.060   2.815  20.158  0.00  0.00    +0.000 A 
ATOM      8  C   UNL     1       2.158   2.303  19.467  0.00  0.00    +0.000 A 
ATOM      9  C   UNL     1       3.223   3.139  19.120  0.00  0.00    +0.000 A 
ENDBRANCH   2   4
ENDBRANCH   1   2
BRANCH   1  10
ATOM     10  O   UNL     1       4.415   5.970  16.744  0.00  0.00    +0.000 OA
BRANCH  10  11
ATOM     11  C   UNL     1       5.728   6.148  16.417  0.00  0.00    +0.000 C 
ATOM     12  O   UNL     1       6.297   7.234  16.438  0.00  0.00    +0.000 OA
BRANCH  11  14
ATOM     13  C   UNL     1       5.343   3.703  16.065  0.00  0.00    +0.000 C 
ATOM     14  C   UNL     1       6.402   4.818  16.068  0.00  0.00    +0.000 C 
ATOM     15  C   UNL     1       7.472   4.485  17.114  0.00  0.00    +0.000 C 
ATOM     16  C   UNL     1       7.036   4.899  14.672  0.00  0.00    +0.000 C 
ENDBRANCH  11  14
ENDBRANCH  10  11
ENDBRANCH   1  10
TORSDOF 5
ENDMDL
MODEL 8
REMARK VINA RESULT:      -6.1      1.927      2.566
REMARK  Name = 
REMARK  8 active torsions:
REMARK  status: ('A' for Active; 'I' for Inactive)
REMARK    1  A    between atoms: C_1  and  C_2
REMARK    2  A    between atoms: C_2  and  C_3
REMARK    3  A    between atoms: C_2  and  C_4
REMARK    4  A    between atoms: C_2  and  C_5
REMARK    5  A    between atoms: C_5  and  O_7
REMARK    6  A    between atoms: O_7  and  C_8
REMARK    7  A    between atoms: C_8  and  C_9
REMARK    8  A    between atoms: C_9  and  C_11
REMARK                            x       y       z     vdW  Elec       q    Type
REMARK                         _______ _______ _______ _____ _____    ______ ____
ROOT
ATOM      1  C   UNL     1       4.160   5.508  19.491  0.00  0.00    +0.000 C 
ENDROOT
BRANCH   1   2
ATOM      2  C   UNL     1       5.594   5.309  19.009  0.00  0.00    +0.000 C 
ATOM      3  O   UNL     1       6.552   5.219  19.781  0.00  0.00    +0.000 OA
BRANCH   2   4
ATOM      4  C   UNL     1       5.839   5.238  17.545  0.00  0.00    +0.000 A 
ATOM      5  C   UNL     1       6.973   4.547  17.097  0.00  0.00    +0.000 A 
ATOM      6  C   UNL     1       7.256   4.467  15.734  0.00  0.00    +0.000 A 
ATOM      7  C   UNL     1       6.401   5.066  14.810  0.00  0.00    +0.000 A 
ATOM      8  C   UNL     1       5.262   5.740  15.247  0.00  0.00    +0.000 A 
ATOM      9  C   UNL     1       4.977   5.829  16.613  0.00  0.00    +0.000 A 
ENDBRANCH   2   4
ENDBRANCH   1   2
BRANCH   1  10
ATOM     10  O   UNL     1       3.629   4.331  20.112  0.00  0.00    +0.000 OA
BRANCH  10  11
ATOM     11  C   UNL     1       3.177   3.390  19.233  0.00  0.00    +0.000 C 
ATOM     12  O   UNL     1       3.883   2.514  18.747  0.00  0.00    +0.000 OA
BRANCH  11  14
ATOM     13  C   UNL     1       1.017   4.202  20.196  0.00  0.00    +0.000 C 
ATOM     14  C   UNL     1       1.676   3.546  18.971  0.00  0.00    +0.000 C 
ATOM     15  C   UNL     1       1.041   2.169  18.743  0.00  0.00    +0.000 C 
ATOM     16  C   UNL     1       1.445   4.444  17.748  0.00  0.00    +0.000 C 
ENDBRANCH  11  14
ENDBRANCH  10  11
ENDBRANCH   1  10
TORSDOF 5
ENDMDL
MODEL 9
REMARK VINA RESULT:      -6.1      2.159      5.600
REMARK  Name = 
REMARK  8 active torsions:
REMARK  status: ('A' for Active; 'I' for Inactive)
REMARK    1  A    between atoms: C_1  and  C_2
REMARK    2  A    between atoms: C_2  and  C_3
REMARK    3  A    between atoms: C_2  and  C_4
REMARK    4  A    between atoms: C_2  and  C_5
REMARK    5  A    between atoms: C_5  and  O_7
REMARK    6  A    between atoms: O_7  and  C_8
REMARK    7  A    between atoms: C_8  and  C_9
REMARK    8  A    between atoms: C_9  and  C_11
REMARK                            x       y       z     vdW  Elec       q    Type
REMARK                         _______ _______ _______ _____ _____    ______ ____
ROOT
ATOM      1  C   UNL     1       5.214   5.308  18.996  0.00  0.00    +0.000 C 
ENDROOT
BRANCH   1   2
ATOM      2  C   UNL     1       3.754   5.736  18.882  0.00  0.00    +0.000 C 
ATOM      3  O   UNL     1       3.415   6.884  18.585  0.00  0.00    +0.000 OA
BRANCH   2   4
ATOM      4  C   UNL     1       2.702   4.724  19.160  0.00  0.00    +0.000 A 
ATOM      5  C   UNL     1       2.202   4.631  20.465  0.00  0.00    +0.000 A 
ATOM      6  C   UNL     1       1.225   3.686  20.780  0.00  0.00    +0.000 A 
ATOM      7  C   UNL     1       0.734   2.838  19.789  0.00  0.00    +0.000 A 
ATOM      8  C   UNL     1       1.213   2.937  18.484  0.00  0.00    +0.000 A 
ATOM      9  C   UNL     1       2.197   3.877  18.164  0.00  0.00    +0.000 A 
ENDBRANCH   2   4
ENDBRANCH   1   2
BRANCH   1  10
ATOM     10  O   UNL     1       6.058   6.018  18.082  0.00  0.00    +0.000 OA
BRANCH  10  11
ATOM     11  C   UNL     1       6.739   5.217  17.212  0.00  0.00    +0.000 C 
ATOM     12  O   UNL     1       7.781   4.634  17.491  0.00  0.00    +0.000 OA
BRANCH  11  14
ATOM     13  C   UNL     1       7.050   4.879  14.754  0.00  0.00    +0.000 C 
ATOM     14  C   UNL     1       6.014   5.109  15.867  0.00  0.00    +0.000 C 
ATOM     15  C   UNL     1       5.254   6.409  15.579  0.00  0.00    +0.000 C 
ATOM     16  C   UNL     1       5.041   3.922  15.887  0.00  0.00    +0.000 C 
ENDBRANCH  11  14
ENDBRANCH  10  11
ENDBRANCH   1  10
TORSDOF 5
ENDMDL
