MODEL 1
REMARK VINA RESULT:      -7.1      0.000      0.000
REMARK  Name = 
REMARK  7 active torsions:
REMARK  status: ('A' for Active; 'I' for Inactive)
REMARK    1  A    between atoms: C_1  and  C_2
REMARK    2  A    between atoms: C_2  and  N_3
REMARK    3  A    between atoms: N_10  and  C_11
REMARK    4  A    between atoms: C_11  and  C_12
REMARK    5  A    between atoms: C_20  and  C_22
REMARK    6  A    between atoms: C_22  and  C_23
REMARK    7  A    between atoms: C_22  and  C_24
REMARK                            x       y       z     vdW  Elec       q    Type
REMARK                         _______ _______ _______ _____ _____    ______ ____
ROOT
ATOM      1  N   UNL     1       2.703   2.855  19.428  0.00  0.00    +0.000 N 
ATOM      2  C   UNL     1       3.574   3.911  19.909  0.00  0.00    +0.000 C 
ATOM      3  C   UNL     1       3.744   4.910  18.732  0.00  0.00    +0.000 C 
ATOM      4  C   UNL     1       2.615   4.510  17.765  0.00  0.00    +0.000 C 
ATOM      5  C   UNL     1       2.168   3.145  18.183  0.00  0.00    +0.000 C 
ATOM      6  O   UNL     1       1.363   2.467  17.564  0.00  0.00    +0.000 OA
ATOM      7  C   UNL     1       5.141   4.735  18.076  0.00  0.00    +0.000 C 
ATOM      8  N   UNL     1       5.333   5.411  16.774  0.00  0.00    +0.000 NA
ATOM      9  C   UNL     1       5.158   6.878  16.837  0.00  0.00    +0.000 C 
ATOM     10  C   UNL     1       3.709   7.367  16.982  0.00  0.00    +0.000 C 
ATOM     11  N   UNL     1       3.161   7.373  18.342  0.00  0.00    +0.000 N 
ATOM     12  C   UNL     1       2.135   8.226  18.765  0.00  0.00    +0.000 C 
ATOM     13  O   UNL     1       1.680   8.168  19.911  0.00  0.00    +0.000 OA
ATOM     14  C   UNL     1       3.606   6.344  19.284  0.00  0.00    +0.000 C 
ENDROOT
BRANCH  12  15
ATOM     15  C   UNL     1       1.613   9.286  17.792  0.00  0.00    +0.000 C 
ATOM     16  C   UNL     1       0.101   9.466  17.946  0.00  0.00    +0.000 C 
ATOM     17  C   UNL     1       2.316  10.618  18.048  0.00  0.00    +0.000 C 
ENDBRANCH  12  15
BRANCH   1  19
ATOM     18  C   UNL     1       1.398   2.798  21.568  0.00  0.00    +0.000 C 
ATOM     19  C   UNL     1       1.894   2.059  20.342  0.00  0.00    +0.000 C 
ENDBRANCH   1  19
BRANCH   8  20
ATOM     20  C   UNL     1       6.670   5.125  16.202  0.00  0.00    +0.000 C 
BRANCH  20  21
ATOM     21  C   UNL     1       6.585   4.683  14.767  0.00  0.00    +0.000 A 
ATOM     22  C   UNL     1       5.561   3.840  14.217  0.00  0.00    +0.000 A 
ATOM     23  C   UNL     1       5.758   3.566  12.882  0.00  0.00    +0.000 A 
ATOM     24  S   UNL     1       7.144   4.352  12.265  0.00  0.00    +0.000 S 
ATOM     25  C   UNL     1       7.490   5.049  13.786  0.00  0.00    +0.000 A 
ENDBRANCH  20  21
ENDBRANCH   8  20
TORSDOF 4
ENDMDL
MODEL 2
REMARK VINA RESULT:      -6.4      5.157      8.122
REMARK  Name = 
REMARK  7 active torsions:
REMARK  status: ('A' for Active; 'I' for Inactive)
REMARK    1  A    between atoms: C_1  and  C_2
REMARK    2  A    between atoms: C_2  and  N_3
REMARK    3  A    between atoms: N_10  and  C_11
REMARK    4  A    between atoms: C_11  and  C_12
REMARK    5  A    between atoms: C_20  and  C_22
REMARK    6  A    between atoms: C_22  and  C_23
REMARK    7  A    between atoms: C_22  and  C_24
REMARK                            x       y       z     vdW  Elec       q    Type
REMARK                         _______ _______ _______ _____ _____    ______ ____
ROOT
ATOM      1  N   UNL     1       1.992   8.215  19.360  0.00  0.00    +0.000 N 
ATOM      2  C   UNL     1       0.947   8.827  20.159  0.00  0.00    +0.000 C 
ATOM      3  C   UNL     1       0.525  10.123  19.415  0.00  0.00    +0.000 C 
ATOM      4  C   UNL     1       1.134   9.936  18.013  0.00  0.00    +0.000 C 
ATOM      5  C   UNL     1       2.155   8.851  18.139  0.00  0.00    +0.000 C 
ATOM      6  O   UNL     1       2.919   8.519  17.245  0.00  0.00    +0.000 OA
ATOM      7  C   UNL     1       1.116  11.370  20.127  0.00  0.00    +0.000 C 
ATOM      8  N   UNL     1       1.040  12.642  19.374  0.00  0.00    +0.000 NA
ATOM      9  C   UNL     1      -0.342  13.051  19.042  0.00  0.00    +0.000 C 
ATOM     10  C   UNL     1      -1.021  12.243  17.926  0.00  0.00    +0.000 C 
ATOM     11  N   UNL     1      -1.633  10.972  18.329  0.00  0.00    +0.000 N 
ATOM     12  C   UNL     1      -2.703  10.374  17.653  0.00  0.00    +0.000 C 
ATOM     13  O   UNL     1      -3.160   9.283  18.008  0.00  0.00    +0.000 OA
ATOM     14  C   UNL     1      -1.015  10.207  19.413  0.00  0.00    +0.000 C 
ENDROOT
BRANCH  12  15
ATOM     15  C   UNL     1      -3.346  11.125  16.485  0.00  0.00    +0.000 C 
ATOM     16  C   UNL     1      -3.300  10.283  15.208  0.00  0.00    +0.000 C 
ATOM     17  C   UNL     1      -4.797  11.465  16.821  0.00  0.00    +0.000 C 
ENDBRANCH  12  15
BRANCH   1  19
ATOM     18  C   UNL     1       1.729   6.084  20.652  0.00  0.00    +0.000 C 
ATOM     19  C   UNL     1       2.255   6.783  19.417  0.00  0.00    +0.000 C 
ENDBRANCH   1  19
BRANCH   8  20
ATOM     20  C   UNL     1       1.691  13.752  20.110  0.00  0.00    +0.000 C 
BRANCH  20  21
ATOM     21  C   UNL     1       2.476  14.649  19.194  0.00  0.00    +0.000 A 
ATOM     22  C   UNL     1       3.595  14.242  18.390  0.00  0.00    +0.000 A 
ATOM     23  C   UNL     1       4.145  15.284  17.679  0.00  0.00    +0.000 A 
ATOM     24  S   UNL     1       3.301  16.748  17.930  0.00  0.00    +0.000 S 
ATOM     25  C   UNL     1       2.206  15.993  19.002  0.00  0.00    +0.000 A 
ENDBRANCH  20  21
ENDBRANCH   8  20
TORSDOF 4
ENDMDL
MODEL 3
REMARK VINA RESULT:      -6.4      1.030      1.221
REMARK  Name = 
REMARK  7 active torsions:
REMARK  status: ('A' for Active; 'I' for Inactive)
REMARK    1  A    between atoms: C_1  and  C_2
REMARK    2  A    between atoms: C_2  and  N_3
REMARK    3  A    between atoms: N_10  and  C_11
REMARK    4  A    between atoms: C_11  and  C_12
REMARK    5  A    between atoms: C_20  and  C_22
REMARK    6  A    between atoms: C_22  and  C_23
REMARK    7  A    between atoms: C_22  and  C_24
REMARK                            x       y       z     vdW  Elec       q    Type
REMARK                         _______ _______ _______ _____ _____    ______ ____
ROOT
ATOM      1  N   UNL     1       2.002   3.378  19.652  0.00  0.00    +0.000 N 
ATOM      2  C   UNL     1       2.831   4.419  20.229  0.00  0.00    +0.000 C 
ATOM      3  C   UNL     1       3.074   5.461  19.103  0.00  0.00    +0.000 C 
ATOM      4  C   UNL     1       2.015   5.092  18.048  0.00  0.00    +0.000 C 
ATOM      5  C   UNL     1       1.550   3.711  18.386  0.00  0.00    +0.000 C 
ATOM      6  O   UNL     1       0.793   3.053  17.689  0.00  0.00    +0.000 OA
ATOM      7  C   UNL     1       4.513   5.316  18.536  0.00  0.00    +0.000 C 
ATOM      8  N   UNL     1       4.788   6.039  17.276  0.00  0.00    +0.000 NA
ATOM      9  C   UNL     1       4.600   7.503  17.380  0.00  0.00    +0.000 C 
ATOM     10  C   UNL     1       3.142   7.980  17.444  0.00  0.00    +0.000 C 
ATOM     11  N   UNL     1       2.503   7.934  18.764  0.00  0.00    +0.000 N 
ATOM     12  C   UNL     1       1.446   8.767  19.147  0.00  0.00    +0.000 C 
ATOM     13  O   UNL     1       0.915   8.666  20.257  0.00  0.00    +0.000 OA
ATOM     14  C   UNL     1       2.890   6.874  19.696  0.00  0.00    +0.000 C 
ENDROOT
BRANCH  12  15
ATOM     15  C   UNL     1       0.984   9.860  18.180  0.00  0.00    +0.000 C 
ATOM     16  C   UNL     1      -0.544   9.901  18.097  0.00  0.00    +0.000 C 
ATOM     17  C   UNL     1       1.508  11.219  18.642  0.00  0.00    +0.000 C 
ENDBRANCH  12  15
BRANCH   1  19
ATOM     18  C   UNL     1       1.537   2.462  21.939  0.00  0.00    +0.000 C 
ATOM     19  C   UNL     1       1.138   2.546  20.481  0.00  0.00    +0.000 C 
ENDBRANCH   1  19
BRANCH   8  20
ATOM     20  C   UNL     1       6.163   5.780  16.786  0.00  0.00    +0.000 C 
BRANCH  20  21
ATOM     21  C   UNL     1       6.162   5.063  15.464  0.00  0.00    +0.000 A 
ATOM     22  C   UNL     1       7.292   4.938  14.586  0.00  0.00    +0.000 A 
ATOM     23  C   UNL     1       6.991   4.261  13.425  0.00  0.00    +0.000 A 
ATOM     24  S   UNL     1       5.368   3.730  13.396  0.00  0.00    +0.000 S 
ATOM     25  C   UNL     1       5.061   4.416  14.931  0.00  0.00    +0.000 A 
ENDBRANCH  20  21
ENDBRANCH   8  20
TORSDOF 4
ENDMDL
MODEL 4
REMARK VINA RESULT:      -5.7      6.233     10.277
REMARK  Name = 
REMARK  7 active torsions:
REMARK  status: ('A' for Active; 'I' for Inactive)
REMARK    1  A    between atoms: C_1  and  C_2
REMARK    2  A    between atoms: C_2  and  N_3
REMARK    3  A    between atoms: N_10  and  C_11
REMARK    4  A    between atoms: C_11  and  C_12
REMARK    5  A    between atoms: C_20  and  C_22
REMARK    6  A    between atoms: C_22  and  C_23
REMARK    7  A    between atoms: C_22  and  C_24
REMARK                            x       y       z     vdW  Elec       q    Type
REMARK                         _______ _______ _______ _____ _____    ______ ____
ROOT
ATOM      1  N   UNL     1       0.879   9.003  20.488  0.00  0.00    +0.000 N 
ATOM      2  C   UNL     1       0.510   9.737  19.292  0.00  0.00    +0.000 C 
ATOM      3  C   UNL     1       0.189  11.186  19.748  0.00  0.00    +0.000 C 
ATOM      4  C   UNL     1       0.782  11.248  21.167  0.00  0.00    +0.000 C 
ATOM      5  C   UNL     1       1.003   9.831  21.592  0.00  0.00    +0.000 C 
ATOM      6  O   UNL     1       1.356   9.498  22.713  0.00  0.00    +0.000 OA
ATOM      7  C   UNL     1      -1.347  11.417  19.766  0.00  0.00    +0.000 C 
ATOM      8  N   UNL     1      -1.809  12.646  20.449  0.00  0.00    +0.000 NA
ATOM      9  C   UNL     1      -1.275  13.890  19.854  0.00  0.00    +0.000 C 
ATOM     10  C   UNL     1       0.207  14.178  20.139  0.00  0.00    +0.000 C 
ATOM     11  N   UNL     1       1.176  13.500  19.271  0.00  0.00    +0.000 N 
ATOM     12  C   UNL     1       2.457  13.994  19.001  0.00  0.00    +0.000 C 
ATOM     13  O   UNL     1       3.253  13.368  18.293  0.00  0.00    +0.000 OA
ATOM     14  C   UNL     1       0.851  12.168  18.759  0.00  0.00    +0.000 C 
ENDROOT
BRANCH  12  15
ATOM     15  C   UNL     1       2.850  15.364  19.557  0.00  0.00    +0.000 C 
ATOM     16  C   UNL     1       4.024  15.239  20.530  0.00  0.00    +0.000 C 
ATOM     17  C   UNL     1       3.233  16.300  18.411  0.00  0.00    +0.000 C 
ENDBRANCH  12  15
BRANCH   1  19
ATOM     18  C   UNL     1       2.342   7.547  19.066  0.00  0.00    +0.000 C 
ATOM     19  C   UNL     1       1.737   7.827  20.425  0.00  0.00    +0.000 C 
ENDBRANCH   1  19
BRANCH   8  20
ATOM     20  C   UNL     1      -3.288  12.736  20.469  0.00  0.00    +0.000 C 
BRANCH  20  21
ATOM     21  C   UNL     1      -3.830  12.760  21.872  0.00  0.00    +0.000 A 
ATOM     22  C   UNL     1      -3.076  12.471  23.060  0.00  0.00    +0.000 A 
ATOM     23  C   UNL     1      -3.841  12.531  24.203  0.00  0.00    +0.000 A 
ATOM     24  S   UNL     1      -5.455  12.980  23.870  0.00  0.00    +0.000 S 
ATOM     25  C   UNL     1      -5.138  13.081  22.194  0.00  0.00    +0.000 A 
ENDBRANCH  20  21
ENDBRANCH   8  20
TORSDOF 4
ENDMDL
MODEL 5
REMARK VINA RESULT:      -5.7      2.257      2.605
REMARK  Name = 
REMARK  7 active torsions:
REMARK  status: ('A' for Active; 'I' for Inactive)
REMARK    1  A    between atoms: C_1  and  C_2
REMARK    2  A    between atoms: C_2  and  N_3
REMARK    3  A    between atoms: N_10  and  C_11
REMARK    4  A    between atoms: C_11  and  C_12
REMARK    5  A    between atoms: C_20  and  C_22
REMARK    6  A    between atoms: C_22  and  C_23
REMARK    7  A    between atoms: C_22  and  C_24
REMARK                            x       y       z     vdW  Elec       q    Type
REMARK                         _______ _______ _______ _____ _____    ______ ____
ROOT
ATOM      1  N   UNL     1       1.958   3.611  19.564  0.00  0.00    +0.000 N 
ATOM      2  C   UNL     1       2.793   4.672  20.094  0.00  0.00    +0.000 C 
ATOM      3  C   UNL     1       2.773   5.815  19.042  0.00  0.00    +0.000 C 
ATOM      4  C   UNL     1       1.585   5.438  18.138  0.00  0.00    +0.000 C 
ATOM      5  C   UNL     1       1.282   4.001  18.419  0.00  0.00    +0.000 C 
ATOM      6  O   UNL     1       0.470   3.336  17.794  0.00  0.00    +0.000 OA
ATOM      7  C   UNL     1       4.106   5.837  18.245  0.00  0.00    +0.000 C 
ATOM      8  N   UNL     1       4.118   6.676  17.027  0.00  0.00    +0.000 NA
ATOM      9  C   UNL     1       3.845   8.105  17.290  0.00  0.00    +0.000 C 
ATOM     10  C   UNL     1       2.385   8.449  17.625  0.00  0.00    +0.000 C 
ATOM     11  N   UNL     1       1.977   8.248  19.019  0.00  0.00    +0.000 N 
ATOM     12  C   UNL     1       0.940   8.956  19.637  0.00  0.00    +0.000 C 
ATOM     13  O   UNL     1       0.606   8.725  20.803  0.00  0.00    +0.000 OA
ATOM     14  C   UNL     1       2.587   7.156  19.780  0.00  0.00    +0.000 C 
ENDROOT
BRANCH  12  15
ATOM     15  C   UNL     1       0.248  10.076  18.857  0.00  0.00    +0.000 C 
ATOM     16  C   UNL     1      -1.258   9.819  18.758  0.00  0.00    +0.000 C 
ATOM     17  C   UNL     1       0.493  11.418  19.545  0.00  0.00    +0.000 C 
ENDBRANCH  12  15
BRANCH   1  19
ATOM     18  C   UNL     1       1.787   2.655  21.875  0.00  0.00    +0.000 C 
ATOM     19  C   UNL     1       1.304   2.647  20.440  0.00  0.00    +0.000 C 
ENDBRANCH   1  19
BRANCH   8  20
ATOM     20  C   UNL     1       5.409   6.573  16.305  0.00  0.00    +0.000 C 
BRANCH  20  21
ATOM     21  C   UNL     1       6.489   5.982  17.168  0.00  0.00    +0.000 A 
ATOM     22  C   UNL     1       7.089   4.690  16.980  0.00  0.00    +0.000 A 
ATOM     23  C   UNL     1       8.025   4.394  17.945  0.00  0.00    +0.000 A 
ATOM     24  S   UNL     1       8.229   5.676  19.056  0.00  0.00    +0.000 S 
ATOM     25  C   UNL     1       7.054   6.625  18.256  0.00  0.00    +0.000 A 
ENDBRANCH  20  21
ENDBRANCH   8  20
TORSDOF 4
ENDMDL
MODEL 6
REMARK VINA RESULT:      -5.7      5.373      8.788
REMARK  Name = 
REMARK  7 active torsions:
REMARK  status: ('A' for Active; 'I' for Inactive)
REMARK    1  A    between atoms: C_1  and  C_2
REMARK    2  A    between atoms: C_2  and  N_3
REMARK    3  A    between atoms: N_10  and  C_11
REMARK    4  A    between atoms: C_11  and  C_12
REMARK    5  A    between atoms: C_20  and  C_22
REMARK    6  A    between atoms: C_22  and  C_23
REMARK    7  A    between atoms: C_22  and  C_24
REMARK                            x       y       z     vdW  Elec       q    Type
REMARK                         _______ _______ _______ _____ _____    ______ ____
ROOT
ATOM      1  N   UNL     1      -3.689  11.519  17.951  0.00  0.00    +0.000 N 
ATOM      2  C   UNL     1      -3.353  11.982  19.284  0.00  0.00    +0.000 C 
ATOM      3  C   UNL     1      -1.807  12.128  19.322  0.00  0.00    +0.000 C 
ATOM      4  C   UNL     1      -1.415  12.086  17.833  0.00  0.00    +0.000 C 
ATOM      5  C   UNL     1      -2.594  11.526  17.104  0.00  0.00    +0.000 C 
ATOM      6  O   UNL     1      -2.594  11.241  15.915  0.00  0.00    +0.000 OA
ATOM      7  C   UNL     1      -1.174  10.948  20.108  0.00  0.00    +0.000 C 
ATOM      8  N   UNL     1       0.293  10.799  19.981  0.00  0.00    +0.000 NA
ATOM      9  C   UNL     1       1.051  11.979  20.451  0.00  0.00    +0.000 C 
ATOM     10  C   UNL     1       1.003  13.206  19.529  0.00  0.00    +0.000 C 
ATOM     11  N   UNL     1      -0.175  14.071  19.663  0.00  0.00    +0.000 N 
ATOM     12  C   UNL     1      -0.179  15.435  19.349  0.00  0.00    +0.000 C 
ATOM     13  O   UNL     1      -1.206  16.114  19.443  0.00  0.00    +0.000 OA
ATOM     14  C   UNL     1      -1.458  13.461  20.015  0.00  0.00    +0.000 C 
ENDROOT
BRANCH  12  15
ATOM     15  C   UNL     1       1.136  16.098  18.934  0.00  0.00    +0.000 C 
ATOM     16  C   UNL     1       0.877  17.259  17.972  0.00  0.00    +0.000 C 
ATOM     17  C   UNL     1       1.872  16.612  20.170  0.00  0.00    +0.000 C 
ENDBRANCH  12  15
BRANCH   1  19
ATOM     18  C   UNL     1      -6.162  11.129  18.091  0.00  0.00    +0.000 C 
ATOM     19  C   UNL     1      -4.999  11.773  17.365  0.00  0.00    +0.000 C 
ENDBRANCH   1  19
BRANCH   8  20
ATOM     20  C   UNL     1       0.786   9.607  20.711  0.00  0.00    +0.000 C 
BRANCH  20  21
ATOM     21  C   UNL     1       1.515   8.654  19.804  0.00  0.00    +0.000 A 
ATOM     22  C   UNL     1       1.834   8.899  18.425  0.00  0.00    +0.000 A 
ATOM     23  C   UNL     1       2.472   7.833  17.830  0.00  0.00    +0.000 A 
ATOM     24  S   UNL     1       2.735   6.551  18.927  0.00  0.00    +0.000 S 
ATOM     25  C   UNL     1       1.984   7.413  20.197  0.00  0.00    +0.000 A 
ENDBRANCH  20  21
ENDBRANCH   8  20
TORSDOF 4
ENDMDL
MODEL 7
REMARK VINA RESULT:      -5.5      5.490      8.929
REMARK  Name = 
REMARK  7 active torsions:
REMARK  status: ('A' for Active; 'I' for Inactive)
REMARK    1  A    between atoms: C_1  and  C_2
REMARK    2  A    between atoms: C_2  and  N_3
REMARK    3  A    between atoms: N_10  and  C_11
REMARK    4  A    between atoms: C_11  and  C_12
REMARK    5  A    between atoms: C_20  and  C_22
REMARK    6  A    between atoms: C_22  and  C_23
REMARK    7  A    between atoms: C_22  and  C_24
REMARK                            x       y       z     vdW  Elec       q    Type
REMARK                         _______ _______ _______ _____ _____    ______ ____
ROOT
ATOM      1  N   UNL     1       2.015   8.186  19.344  0.00  0.00    +0.000 N 
ATOM      2  C   UNL     1       0.980   8.806  20.149  0.00  0.00    +0.000 C 
ATOM      3  C   UNL     1       0.576  10.114  19.416  0.00  0.00    +0.000 C 
ATOM      4  C   UNL     1       1.182   9.930  18.012  0.00  0.00    +0.000 C 
ATOM      5  C   UNL     1       2.187   8.830  18.129  0.00  0.00    +0.000 C 
ATOM      6  O   UNL     1       2.946   8.495  17.231  0.00  0.00    +0.000 OA
ATOM      7  C   UNL     1       1.185  11.346  20.138  0.00  0.00    +0.000 C 
ATOM      8  N   UNL     1       1.128  12.625  19.397  0.00  0.00    +0.000 NA
ATOM      9  C   UNL     1      -0.249  13.057  19.069  0.00  0.00    +0.000 C 
ATOM     10  C   UNL     1      -0.940  12.268  17.946  0.00  0.00    +0.000 C 
ATOM     11  N   UNL     1      -1.569  11.003  18.339  0.00  0.00    +0.000 N 
ATOM     12  C   UNL     1      -2.648  10.426  17.658  0.00  0.00    +0.000 C 
ATOM     13  O   UNL     1      -3.121   9.339  18.004  0.00  0.00    +0.000 OA
ATOM     14  C   UNL     1      -0.963  10.220  19.416  0.00  0.00    +0.000 C 
ENDROOT
BRANCH  12  15
ATOM     15  C   UNL     1      -3.281  11.196  16.497  0.00  0.00    +0.000 C 
ATOM     16  C   UNL     1      -3.123  10.425  15.185  0.00  0.00    +0.000 C 
ATOM     17  C   UNL     1      -4.764  11.432  16.776  0.00  0.00    +0.000 C 
ENDBRANCH  12  15
BRANCH   1  19
ATOM     18  C   UNL     1       1.729   6.049  20.622  0.00  0.00    +0.000 C 
ATOM     19  C   UNL     1       2.258   6.750  19.388  0.00  0.00    +0.000 C 
ENDBRANCH   1  19
BRANCH   8  20
ATOM     20  C   UNL     1       1.794  13.720  20.142  0.00  0.00    +0.000 C 
BRANCH  20  21
ATOM     21  C   UNL     1       0.810  14.562  20.904  0.00  0.00    +0.000 A 
ATOM     22  C   UNL     1       0.321  15.848  20.492  0.00  0.00    +0.000 A 
ATOM     23  C   UNL     1      -0.543  16.407  21.407  0.00  0.00    +0.000 A 
ATOM     24  S   UNL     1      -0.812  15.379  22.744  0.00  0.00    +0.000 S 
ATOM     25  C   UNL     1       0.237  14.190  22.108  0.00  0.00    +0.000 A 
ENDBRANCH  20  21
ENDBRANCH   8  20
TORSDOF 4
ENDMDL
MODEL 8
REMARK VINA RESULT:      -5.4      5.348      9.650
REMARK  Name = 
REMARK  7 active torsions:
REMARK  status: ('A' for Active; 'I' for Inactive)
REMARK    1  A    between atoms: C_1  and  C_2
REMARK    2  A    between atoms: C_2  and  N_3
REMARK    3  A    between atoms: N_10  and  C_11
REMARK    4  A    between atoms: C_11  and  C_12
REMARK    5  A    between atoms: C_20  and  C_22
REMARK    6  A    between atoms: C_22  and  C_23
REMARK    7  A    between atoms: C_22  and  C_24
REMARK                            x       y       z     vdW  Elec       q    Type
REMARK                         _______ _______ _______ _____ _____    ______ ____
ROOT
ATOM      1  N   UNL     1      -2.518  11.195  17.576  0.00  0.00    +0.000 N 
ATOM      2  C   UNL     1      -1.234  11.738  17.979  0.00  0.00    +0.000 C 
ATOM      3  C   UNL     1      -0.636  10.737  19.004  0.00  0.00    +0.000 C 
ATOM      4  C   UNL     1      -1.500   9.477  18.810  0.00  0.00    +0.000 C 
ATOM      5  C   UNL     1      -2.722   9.916  18.069  0.00  0.00    +0.000 C 
ATOM      6  O   UNL     1      -3.684   9.197  17.845  0.00  0.00    +0.000 OA
ATOM      7  C   UNL     1      -0.769  11.299  20.446  0.00  0.00    +0.000 C 
ATOM      8  N   UNL     1      -0.508  10.339  21.541  0.00  0.00    +0.000 NA
ATOM      9  C   UNL     1       0.856   9.766  21.514  0.00  0.00    +0.000 C 
ATOM     10  C   UNL     1       1.114   8.725  20.415  0.00  0.00    +0.000 C 
ATOM     11  N   UNL     1       1.450   9.254  19.088  0.00  0.00    +0.000 N 
ATOM     12  C   UNL     1       2.207   8.556  18.141  0.00  0.00    +0.000 C 
ATOM     13  O   UNL     1       2.432   9.027  17.022  0.00  0.00    +0.000 OA
ATOM     14  C   UNL     1       0.854  10.522  18.666  0.00  0.00    +0.000 C 
ENDROOT
BRANCH  12  15
ATOM     15  C   UNL     1       2.810   7.205  18.531  0.00  0.00    +0.000 C 
ATOM     16  C   UNL     1       1.852   6.063  18.184  0.00  0.00    +0.000 C 
ATOM     17  C   UNL     1       4.137   6.997  17.804  0.00  0.00    +0.000 C 
ENDBRANCH  12  15
BRANCH   1  19
ATOM     18  C   UNL     1      -2.795  10.561  15.167  0.00  0.00    +0.000 C 
ATOM     19  C   UNL     1      -3.115  11.527  16.288  0.00  0.00    +0.000 C 
ENDBRANCH   1  19
BRANCH   8  20
ATOM     20  C   UNL     1      -0.728  10.955  22.871  0.00  0.00    +0.000 C 
BRANCH  20  21
ATOM     21  C   UNL     1      -1.521  12.229  22.776  0.00  0.00    +0.000 A 
ATOM     22  C   UNL     1      -2.947  12.311  22.620  0.00  0.00    +0.000 A 
ATOM     23  C   UNL     1      -3.396  13.609  22.522  0.00  0.00    +0.000 A 
ATOM     24  S   UNL     1      -2.124  14.740  22.663  0.00  0.00    +0.000 S 
ATOM     25  C   UNL     1      -0.967  13.496  22.841  0.00  0.00    +0.000 A 
ENDBRANCH  20  21
ENDBRANCH   8  20
TORSDOF 4
ENDMDL
MODEL 9
REMARK VINA RESULT:      -5.4      7.188     10.792
REMARK  Name = 
REMARK  7 active torsions:
REMARK  status: ('A' for Active; 'I' for Inactive)
REMARK    1  A    between atoms: C_1  and  C_2
REMARK    2  A    between atoms: C_2  and  N_3
REMARK    3  A    between atoms: N_10  and  C_11
REMARK    4  A    between atoms: C_11  and  C_12
REMARK    5  A    between atoms: C_20  and  C_22
REMARK    6  A    between atoms: C_22  and  C_23
REMARK    7  A    between atoms: C_22  and  C_24
REMARK                            x       y       z     vdW  Elec       q    Type
REMARK                         _______ _______ _______ _____ _____    ______ ____
ROOT
ATOM      1  N   UNL     1      -0.352   9.417  21.258  0.00  0.00    +0.000 N 
ATOM      2  C   UNL     1      -0.647  10.073  19.999  0.00  0.00    +0.000 C 
ATOM      3  C   UNL     1      -0.605  11.600  20.277  0.00  0.00    +0.000 C 
ATOM      4  C   UNL     1       0.101  11.688  21.643  0.00  0.00    +0.000 C 
ATOM      5  C   UNL     1       0.040  10.316  22.236  0.00  0.00    +0.000 C 
ATOM      6  O   UNL     1       0.401  10.043  23.371  0.00  0.00    +0.000 OA
ATOM      7  C   UNL     1      -2.047  12.174  20.347  0.00  0.00    +0.000 C 
ATOM      8  N   UNL     1      -2.172  13.545  20.888  0.00  0.00    +0.000 NA
ATOM      9  C   UNL     1      -1.429  14.559  20.108  0.00  0.00    +0.000 C 
ATOM     10  C   UNL     1       0.098  14.533  20.273  0.00  0.00    +0.000 C 
ATOM     11  N   UNL     1       0.821  13.558  19.450  0.00  0.00    +0.000 N 
ATOM     12  C   UNL     1       2.154  13.713  19.050  0.00  0.00    +0.000 C 
ATOM     13  O   UNL     1       2.733  12.846  18.388  0.00  0.00    +0.000 OA
ATOM     14  C   UNL     1       0.172  12.285  19.135  0.00  0.00    +0.000 C 
ENDROOT
BRANCH  12  15
ATOM     15  C   UNL     1       2.880  15.013  19.400  0.00  0.00    +0.000 C 
ATOM     16  C   UNL     1       4.057  14.741  20.340  0.00  0.00    +0.000 C 
ATOM     17  C   UNL     1       3.388  15.685  18.126  0.00  0.00    +0.000 C 
ENDBRANCH  12  15
BRANCH   1  19
ATOM     18  C   UNL     1       1.588   7.943  20.669  0.00  0.00    +0.000 C 
ATOM     19  C   UNL     1       0.220   8.077  21.304  0.00  0.00    +0.000 C 
ENDBRANCH   1  19
BRANCH   8  20
ATOM     20  C   UNL     1      -3.589  13.971  20.975  0.00  0.00    +0.000 C 
BRANCH  20  21
ATOM     21  C   UNL     1      -4.238  13.506  22.249  0.00  0.00    +0.000 A 
ATOM     22  C   UNL     1      -3.539  13.076  23.429  0.00  0.00    +0.000 A 
ATOM     23  C   UNL     1      -4.391  12.667  24.431  0.00  0.00    +0.000 A 
ATOM     24  S   UNL     1      -6.031  12.836  23.987  0.00  0.00    +0.000 S 
ATOM     25  C   UNL     1      -5.606  13.444  22.447  0.00  0.00    +0.000 A 
ENDBRANCH  20  21
ENDBRANCH   8  20
TORSDOF 4
ENDMDL
