MODEL 1
REMARK VINA RESULT:      -8.5      0.000      0.000
REMARK  Name = 
REMARK  8 active torsions:
REMARK  status: ('A' for Active; 'I' for Inactive)
REMARK    1  A    between atoms: C_1  and  O_2
REMARK    2  A    between atoms: O_2  and  C_3
REMARK    3  A    between atoms: C_6  and  C_7
REMARK    4  A    between atoms: C_7  and  N_8
REMARK    5  A    between atoms: C_9  and  C_11
REMARK    6  A    between atoms: C_17  and  C_18
REMARK    7  A    between atoms: C_19  and  C_20
REMARK    8  A    between atoms: C_23  and  C_24
REMARK                            x       y       z     vdW  Elec       q    Type
REMARK                         _______ _______ _______ _____ _____    ______ ____
ROOT
ATOM      1  C   UNL     1       2.143   7.212  19.509  0.00  0.00    +0.000 A 
ATOM      2  C   UNL     1       1.503   6.497  20.511  0.00  0.00    +0.000 A 
ATOM      3  N   UNL     1       2.071   5.283  20.731  0.00  0.00    +0.000 NA
ATOM      4  C   UNL     1       3.061   5.210  19.871  0.00  0.00    +0.000 A 
ATOM      5  C   UNL     1       4.022   4.183  19.668  0.00  0.00    +0.000 A 
ATOM      6  C   UNL     1       4.962   4.324  18.721  0.00  0.00    +0.000 A 
ATOM      7  C   UNL     1       5.031   5.510  17.861  0.00  0.00    +0.000 A 
ATOM      8  C   UNL     1       4.117   6.487  18.070  0.00  0.00    +0.000 A 
ATOM      9  N   UNL     1       3.150   6.353  19.074  0.00  0.00    +0.000 N 
ENDROOT
BRANCH   7  10
ATOM     10  C   UNL     1       6.043   5.602  16.863  0.00  0.00    +0.000 A 
ATOM     11  C   UNL     1       6.136   4.938  15.612  0.00  0.00    +0.000 A 
ATOM     12  C   UNL     1       5.208   3.975  14.979  0.00  0.00    +0.000 C 
ATOM     13  N   UNL     1       7.258   5.289  14.965  0.00  0.00    +0.000 NA
ATOM     14  O   UNL     1       7.901   6.195  15.787  0.00  0.00    +0.000 OA
ATOM     15  C   UNL     1       7.176   6.383  16.922  0.00  0.00    +0.000 A 
ATOM     16  C   UNL     1       7.734   7.330  17.903  0.00  0.00    +0.000 C 
ENDBRANCH   7  10
BRANCH   1  18
ATOM     17  N   UNL     1       0.969   9.270  19.795  0.00  0.00    +0.000 N 
ATOM     18  C   UNL     1       1.850   8.538  19.010  0.00  0.00    +0.000 C 
ATOM     19  O   UNL     1       2.331   8.998  17.980  0.00  0.00    +0.000 OA
ATOM     20  H   UNL     1       0.835   8.994  20.752  0.00  0.00    +0.000 HD
BRANCH  17  21
ATOM     21  C   UNL     1       0.630  10.640  19.473  0.00  0.00    +0.000 C 
BRANCH  21  25
ATOM     22  C   UNL     1      -3.336  11.132  17.769  0.00  0.00    +0.000 A 
ATOM     23  C   UNL     1      -2.943  11.868  18.887  0.00  0.00    +0.000 A 
ATOM     24  C   UNL     1      -1.664  11.705  19.432  0.00  0.00    +0.000 A 
ATOM     25  C   UNL     1      -0.760  10.782  18.889  0.00  0.00    +0.000 A 
ATOM     26  C   UNL     1      -1.167  10.048  17.763  0.00  0.00    +0.000 A 
ATOM     27  C   UNL     1      -2.448  10.217  17.211  0.00  0.00    +0.000 A 
BRANCH  22  29
ATOM     28  C   UNL     1      -5.655  10.946  18.201  0.00  0.00    +0.000 C 
ATOM     29  O   UNL     1      -4.611  11.370  17.330  0.00  0.00    +0.000 OA
ENDBRANCH  22  29
ENDBRANCH  21  25
ENDBRANCH  17  21
ENDBRANCH   1  18
TORSDOF 5
ENDMDL
MODEL 2
REMARK VINA RESULT:      -8.3      2.214      2.559
REMARK  Name = 
REMARK  8 active torsions:
REMARK  status: ('A' for Active; 'I' for Inactive)
REMARK    1  A    between atoms: C_1  and  O_2
REMARK    2  A    between atoms: O_2  and  C_3
REMARK    3  A    between atoms: C_6  and  C_7
REMARK    4  A    between atoms: C_7  and  N_8
REMARK    5  A    between atoms: C_9  and  C_11
REMARK    6  A    between atoms: C_17  and  C_18
REMARK    7  A    between atoms: C_19  and  C_20
REMARK    8  A    between atoms: C_23  and  C_24
REMARK                            x       y       z     vdW  Elec       q    Type
REMARK                         _______ _______ _______ _____ _____    ______ ____
ROOT
ATOM      1  C   UNL     1       2.170   6.709  19.693  0.00  0.00    +0.000 A 
ATOM      2  C   UNL     1       1.579   5.894  20.648  0.00  0.00    +0.000 A 
ATOM      3  N   UNL     1       2.209   4.698  20.777  0.00  0.00    +0.000 NA
ATOM      4  C   UNL     1       3.190   4.735  19.905  0.00  0.00    +0.000 A 
ATOM      5  C   UNL     1       4.199   3.775  19.620  0.00  0.00    +0.000 A 
ATOM      6  C   UNL     1       5.119   4.029  18.677  0.00  0.00    +0.000 A 
ATOM      7  C   UNL     1       5.117   5.274  17.902  0.00  0.00    +0.000 A 
ATOM      8  C   UNL     1       4.158   6.187  18.189  0.00  0.00    +0.000 A 
ATOM      9  N   UNL     1       3.212   5.934  19.189  0.00  0.00    +0.000 N 
ENDROOT
BRANCH   7  10
ATOM     10  C   UNL     1       6.110   5.487  16.904  0.00  0.00    +0.000 A 
ATOM     11  C   UNL     1       6.209   4.934  15.600  0.00  0.00    +0.000 A 
ATOM     12  C   UNL     1       5.307   3.993  14.900  0.00  0.00    +0.000 C 
ATOM     13  N   UNL     1       7.308   5.379  14.973  0.00  0.00    +0.000 NA
ATOM     14  O   UNL     1       7.930   6.236  15.860  0.00  0.00    +0.000 OA
ATOM     15  C   UNL     1       7.215   6.301  17.016  0.00  0.00    +0.000 A 
ATOM     16  C   UNL     1       7.754   7.184  18.066  0.00  0.00    +0.000 C 
ENDBRANCH   7  10
BRANCH   1  18
ATOM     17  N   UNL     1       1.328   8.853  20.320  0.00  0.00    +0.000 N 
ATOM     18  C   UNL     1       1.804   8.050  19.292  0.00  0.00    +0.000 C 
ATOM     19  O   UNL     1       1.902   8.464  18.141  0.00  0.00    +0.000 OA
ATOM     20  H   UNL     1       1.539   8.594  21.268  0.00  0.00    +0.000 HD
BRANCH  17  21
ATOM     21  C   UNL     1       0.990  10.242  20.098  0.00  0.00    +0.000 C 
BRANCH  21  25
ATOM     22  C   UNL     1      -1.975  11.729  22.905  0.00  0.00    +0.000 A 
ATOM     23  C   UNL     1      -1.774  12.360  21.677  0.00  0.00    +0.000 A 
ATOM     24  C   UNL     1      -0.817  11.877  20.777  0.00  0.00    +0.000 A 
ATOM     25  C   UNL     1      -0.020  10.769  21.096  0.00  0.00    +0.000 A 
ATOM     26  C   UNL     1      -0.233  10.141  22.334  0.00  0.00    +0.000 A 
ATOM     27  C   UNL     1      -1.199  10.622  23.234  0.00  0.00    +0.000 A 
BRANCH  22  29
ATOM     28  C   UNL     1      -4.094  12.774  23.036  0.00  0.00    +0.000 C 
ATOM     29  O   UNL     1      -2.931  12.295  23.705  0.00  0.00    +0.000 OA
ENDBRANCH  22  29
ENDBRANCH  21  25
ENDBRANCH  17  21
ENDBRANCH   1  18
TORSDOF 5
ENDMDL
MODEL 3
REMARK VINA RESULT:      -8.3      1.059      1.452
REMARK  Name = 
REMARK  8 active torsions:
REMARK  status: ('A' for Active; 'I' for Inactive)
REMARK    1  A    between atoms: C_1  and  O_2
REMARK    2  A    between atoms: O_2  and  C_3
REMARK    3  A    between atoms: C_6  and  C_7
REMARK    4  A    between atoms: C_7  and  N_8
REMARK    5  A    between atoms: C_9  and  C_11
REMARK    6  A    between atoms: C_17  and  C_18
REMARK    7  A    between atoms: C_19  and  C_20
REMARK    8  A    between atoms: C_23  and  C_24
REMARK                            x       y       z     vdW  Elec       q    Type
REMARK                         _______ _______ _______ _____ _____    ______ ____
ROOT
ATOM      1  C   UNL     1       2.161   6.397  19.832  0.00  0.00    +0.000 A 
ATOM      2  C   UNL     1       1.442   5.446  20.542  0.00  0.00    +0.000 A 
ATOM      3  N   UNL     1       1.900   4.184  20.338  0.00  0.00    +0.000 NA
ATOM      4  C   UNL     1       2.899   4.317  19.496  0.00  0.00    +0.000 A 
ATOM      5  C   UNL     1       3.775   3.339  18.952  0.00  0.00    +0.000 A 
ATOM      6  C   UNL     1       4.744   3.706  18.100  0.00  0.00    +0.000 A 
ATOM      7  C   UNL     1       4.930   5.101  17.686  0.00  0.00    +0.000 A 
ATOM      8  C   UNL     1       4.097   6.027  18.218  0.00  0.00    +0.000 A 
ATOM      9  N   UNL     1       3.101   5.649  19.126  0.00  0.00    +0.000 N 
ENDROOT
BRANCH   7  10
ATOM     10  C   UNL     1       5.968   5.434  16.769  0.00  0.00    +0.000 A 
ATOM     11  C   UNL     1       6.100   5.093  15.398  0.00  0.00    +0.000 A 
ATOM     12  C   UNL     1       5.198   4.309  14.525  0.00  0.00    +0.000 C 
ATOM     13  N   UNL     1       7.236   5.591  14.887  0.00  0.00    +0.000 NA
ATOM     14  O   UNL     1       7.849   6.272  15.921  0.00  0.00    +0.000 OA
ATOM     15  C   UNL     1       7.092   6.178  17.047  0.00  0.00    +0.000 A 
ATOM     16  C   UNL     1       7.616   6.861  18.244  0.00  0.00    +0.000 C 
ENDBRANCH   7  10
BRANCH   1  18
ATOM     17  N   UNL     1       1.941   8.389  18.536  0.00  0.00    +0.000 N 
ATOM     18  C   UNL     1       1.991   7.833  19.808  0.00  0.00    +0.000 C 
ATOM     19  O   UNL     1       1.893   8.522  20.818  0.00  0.00    +0.000 OA
ATOM     20  H   UNL     1       1.726   7.791  17.758  0.00  0.00    +0.000 HD
BRANCH  17  21
ATOM     21  C   UNL     1       1.701   9.803  18.339  0.00  0.00    +0.000 C 
BRANCH  21  25
ATOM     22  C   UNL     1      -2.546  10.720  18.275  0.00  0.00    +0.000 A 
ATOM     23  C   UNL     1      -1.983   9.877  17.318  0.00  0.00    +0.000 A 
ATOM     24  C   UNL     1      -0.614   9.585  17.342  0.00  0.00    +0.000 A 
ATOM     25  C   UNL     1       0.228  10.152  18.308  0.00  0.00    +0.000 A 
ATOM     26  C   UNL     1      -0.350  10.999  19.268  0.00  0.00    +0.000 A 
ATOM     27  C   UNL     1      -1.726  11.286  19.247  0.00  0.00    +0.000 A 
BRANCH  22  29
ATOM     28  C   UNL     1      -4.350  11.208  16.824  0.00  0.00    +0.000 C 
ATOM     29  O   UNL     1      -3.890  10.939  18.146  0.00  0.00    +0.000 OA
ENDBRANCH  22  29
ENDBRANCH  21  25
ENDBRANCH  17  21
ENDBRANCH   1  18
TORSDOF 5
ENDMDL
MODEL 4
REMARK VINA RESULT:      -8.1      1.121      1.894
REMARK  Name = 
REMARK  8 active torsions:
REMARK  status: ('A' for Active; 'I' for Inactive)
REMARK    1  A    between atoms: C_1  and  O_2
REMARK    2  A    between atoms: O_2  and  C_3
REMARK    3  A    between atoms: C_6  and  C_7
REMARK    4  A    between atoms: C_7  and  N_8
REMARK    5  A    between atoms: C_9  and  C_11
REMARK    6  A    between atoms: C_17  and  C_18
REMARK    7  A    between atoms: C_19  and  C_20
REMARK    8  A    between atoms: C_23  and  C_24
REMARK                            x       y       z     vdW  Elec       q    Type
REMARK                         _______ _______ _______ _____ _____    ______ ____
ROOT
ATOM      1  C   UNL     1       2.108   6.379  19.970  0.00  0.00    +0.000 A 
ATOM      2  C   UNL     1       1.389   5.420  20.669  0.00  0.00    +0.000 A 
ATOM      3  N   UNL     1       1.860   4.162  20.467  0.00  0.00    +0.000 NA
ATOM      4  C   UNL     1       2.866   4.307  19.636  0.00  0.00    +0.000 A 
ATOM      5  C   UNL     1       3.756   3.337  19.099  0.00  0.00    +0.000 A 
ATOM      6  C   UNL     1       4.732   3.715  18.259  0.00  0.00    +0.000 A 
ATOM      7  C   UNL     1       4.911   5.112  17.851  0.00  0.00    +0.000 A 
ATOM      8  C   UNL     1       4.064   6.030  18.377  0.00  0.00    +0.000 A 
ATOM      9  N   UNL     1       3.061   5.641  19.272  0.00  0.00    +0.000 N 
ENDROOT
BRANCH   7  10
ATOM     10  C   UNL     1       5.955   5.457  16.946  0.00  0.00    +0.000 A 
ATOM     11  C   UNL     1       7.161   6.165  17.191  0.00  0.00    +0.000 A 
ATOM     12  C   UNL     1       7.686   6.734  18.452  0.00  0.00    +0.000 C 
ATOM     13  N   UNL     1       7.877   6.295  16.064  0.00  0.00    +0.000 NA
ATOM     14  O   UNL     1       7.148   5.662  15.076  0.00  0.00    +0.000 OA
ATOM     15  C   UNL     1       5.998   5.161  15.602  0.00  0.00    +0.000 A 
ATOM     16  C   UNL     1       5.109   4.450  14.666  0.00  0.00    +0.000 C 
ENDBRANCH   7  10
BRANCH   1  18
ATOM     17  N   UNL     1       1.877   8.372  18.678  0.00  0.00    +0.000 N 
ATOM     18  C   UNL     1       1.925   7.814  19.948  0.00  0.00    +0.000 C 
ATOM     19  O   UNL     1       1.817   8.500  20.959  0.00  0.00    +0.000 OA
ATOM     20  H   UNL     1       1.671   7.774  17.897  0.00  0.00    +0.000 HD
BRANCH  17  21
ATOM     21  C   UNL     1       1.626   9.784  18.482  0.00  0.00    +0.000 C 
BRANCH  21  25
ATOM     22  C   UNL     1      -2.585  10.816  18.201  0.00  0.00    +0.000 A 
ATOM     23  C   UNL     1      -1.770  11.397  19.172  0.00  0.00    +0.000 A 
ATOM     24  C   UNL     1      -0.414  11.061  19.259  0.00  0.00    +0.000 A 
ATOM     25  C   UNL     1       0.151  10.114  18.394  0.00  0.00    +0.000 A 
ATOM     26  C   UNL     1      -0.678   9.536  17.419  0.00  0.00    +0.000 A 
ATOM     27  C   UNL     1      -2.038   9.880  17.328  0.00  0.00    +0.000 A 
BRANCH  22  29
ATOM     28  C   UNL     1      -4.447  11.577  16.956  0.00  0.00    +0.000 C 
ATOM     29  O   UNL     1      -3.894  11.215  18.218  0.00  0.00    +0.000 OA
ENDBRANCH  22  29
ENDBRANCH  21  25
ENDBRANCH  17  21
ENDBRANCH   1  18
TORSDOF 5
ENDMDL
MODEL 5
REMARK VINA RESULT:      -8.1      0.496      1.813
REMARK  Name = 
REMARK  8 active torsions:
REMARK  status: ('A' for Active; 'I' for Inactive)
REMARK    1  A    between atoms: C_1  and  O_2
REMARK    2  A    between atoms: O_2  and  C_3
REMARK    3  A    between atoms: C_6  and  C_7
REMARK    4  A    between atoms: C_7  and  N_8
REMARK    5  A    between atoms: C_9  and  C_11
REMARK    6  A    between atoms: C_17  and  C_18
REMARK    7  A    between atoms: C_19  and  C_20
REMARK    8  A    between atoms: C_23  and  C_24
REMARK                            x       y       z     vdW  Elec       q    Type
REMARK                         _______ _______ _______ _____ _____    ______ ____
ROOT
ATOM      1  C   UNL     1       2.144   7.126  19.602  0.00  0.00    +0.000 A 
ATOM      2  C   UNL     1       1.484   6.379  20.568  0.00  0.00    +0.000 A 
ATOM      3  N   UNL     1       2.035   5.151  20.747  0.00  0.00    +0.000 NA
ATOM      4  C   UNL     1       3.034   5.100  19.897  0.00  0.00    +0.000 A 
ATOM      5  C   UNL     1       3.986   4.071  19.664  0.00  0.00    +0.000 A 
ATOM      6  C   UNL     1       4.940   4.238  18.735  0.00  0.00    +0.000 A 
ATOM      7  C   UNL     1       5.032   5.456  17.923  0.00  0.00    +0.000 A 
ATOM      8  C   UNL     1       4.126   6.435  18.160  0.00  0.00    +0.000 A 
ATOM      9  N   UNL     1       3.146   6.272  19.145  0.00  0.00    +0.000 N 
ENDROOT
BRANCH   7  10
ATOM     10  C   UNL     1       6.057   5.575  16.941  0.00  0.00    +0.000 A 
ATOM     11  C   UNL     1       7.230   6.375  16.957  0.00  0.00    +0.000 A 
ATOM     12  C   UNL     1       7.732   7.299  17.998  0.00  0.00    +0.000 C 
ATOM     13  N   UNL     1       7.936   6.213  15.828  0.00  0.00    +0.000 NA
ATOM     14  O   UNL     1       7.233   5.296  15.070  0.00  0.00    +0.000 OA
ATOM     15  C   UNL     1       6.109   4.914  15.734  0.00  0.00    +0.000 A 
ATOM     16  C   UNL     1       5.250   3.931  15.050  0.00  0.00    +0.000 C 
ENDBRANCH   7  10
BRANCH   1  18
ATOM     17  N   UNL     1       0.945   9.164  19.922  0.00  0.00    +0.000 N 
ATOM     18  C   UNL     1       1.871   8.473  19.152  0.00  0.00    +0.000 C 
ATOM     19  O   UNL     1       2.406   8.983  18.173  0.00  0.00    +0.000 OA
ATOM     20  H   UNL     1       0.760   8.842  20.855  0.00  0.00    +0.000 HD
BRANCH  17  21
ATOM     21  C   UNL     1       0.617  10.547  19.648  0.00  0.00    +0.000 C 
BRANCH  21  25
ATOM     22  C   UNL     1      -3.174  10.924  17.558  0.00  0.00    +0.000 A 
ATOM     23  C   UNL     1      -2.200  10.028  17.116  0.00  0.00    +0.000 A 
ATOM     24  C   UNL     1      -0.980   9.911  17.793  0.00  0.00    +0.000 A 
ATOM     25  C   UNL     1      -0.696  10.707  18.910  0.00  0.00    +0.000 A 
ATOM     26  C   UNL     1      -1.684  11.604  19.347  0.00  0.00    +0.000 A 
ATOM     27  C   UNL     1      -2.911  11.717  18.672  0.00  0.00    +0.000 A 
BRANCH  22  29
ATOM     28  C   UNL     1      -5.322  11.870  17.256  0.00  0.00    +0.000 C 
ATOM     29  O   UNL     1      -4.321  10.957  16.813  0.00  0.00    +0.000 OA
ENDBRANCH  22  29
ENDBRANCH  21  25
ENDBRANCH  17  21
ENDBRANCH   1  18
TORSDOF 5
ENDMDL
MODEL 6
REMARK VINA RESULT:      -7.9      5.088      8.379
REMARK  Name = 
REMARK  8 active torsions:
REMARK  status: ('A' for Active; 'I' for Inactive)
REMARK    1  A    between atoms: C_1  and  O_2
REMARK    2  A    between atoms: O_2  and  C_3
REMARK    3  A    between atoms: C_6  and  C_7
REMARK    4  A    between atoms: C_7  and  N_8
REMARK    5  A    between atoms: C_9  and  C_11
REMARK    6  A    between atoms: C_17  and  C_18
REMARK    7  A    between atoms: C_19  and  C_20
REMARK    8  A    between atoms: C_23  and  C_24
REMARK                            x       y       z     vdW  Elec       q    Type
REMARK                         _______ _______ _______ _____ _____    ______ ____
ROOT
ATOM      1  C   UNL     1       6.911   6.207  17.414  0.00  0.00    +0.000 A 
ATOM      2  C   UNL     1       6.956   6.285  16.030  0.00  0.00    +0.000 A 
ATOM      3  N   UNL     1       5.935   5.615  15.434  0.00  0.00    +0.000 NA
ATOM      4  C   UNL     1       5.244   5.100  16.425  0.00  0.00    +0.000 A 
ATOM      5  C   UNL     1       4.052   4.327  16.404  0.00  0.00    +0.000 A 
ATOM      6  C   UNL     1       3.507   3.903  17.555  0.00  0.00    +0.000 A 
ATOM      7  C   UNL     1       4.113   4.196  18.858  0.00  0.00    +0.000 A 
ATOM      8  C   UNL     1       5.244   4.942  18.867  0.00  0.00    +0.000 A 
ATOM      9  N   UNL     1       5.800   5.406  17.669  0.00  0.00    +0.000 N 
ENDROOT
BRANCH   7  10
ATOM     10  C   UNL     1       3.500   3.711  20.048  0.00  0.00    +0.000 A 
ATOM     11  C   UNL     1       2.447   4.276  20.813  0.00  0.00    +0.000 A 
ATOM     12  C   UNL     1       1.675   5.519  20.590  0.00  0.00    +0.000 C 
ATOM     13  N   UNL     1       2.165   3.513  21.879  0.00  0.00    +0.000 NA
ATOM     14  O   UNL     1       3.028   2.435  21.812  0.00  0.00    +0.000 OA
ATOM     15  C   UNL     1       3.827   2.553  20.717  0.00  0.00    +0.000 A 
ATOM     16  C   UNL     1       4.806   1.471  20.506  0.00  0.00    +0.000 C 
ENDBRANCH   7  10
BRANCH   1  18
ATOM     17  N   UNL     1       8.111   8.134  18.149  0.00  0.00    +0.000 N 
ATOM     18  C   UNL     1       7.801   6.802  18.387  0.00  0.00    +0.000 C 
ATOM     19  O   UNL     1       8.254   6.197  19.353  0.00  0.00    +0.000 OA
ATOM     20  H   UNL     1       7.508   8.668  17.547  0.00  0.00    +0.000 HD
BRANCH  17  21
ATOM     21  C   UNL     1       8.929   8.896  19.068  0.00  0.00    +0.000 C 
BRANCH  21  25
ATOM     22  C   UNL     1       9.403  13.046  17.874  0.00  0.00    +0.000 A 
ATOM     23  C   UNL     1      10.318  12.442  18.735  0.00  0.00    +0.000 A 
ATOM     24  C   UNL     1      10.160  11.104  19.117  0.00  0.00    +0.000 A 
ATOM     25  C   UNL     1       9.068  10.350  18.669  0.00  0.00    +0.000 A 
ATOM     26  C   UNL     1       8.154  10.969  17.801  0.00  0.00    +0.000 A 
ATOM     27  C   UNL     1       8.316  12.309  17.412  0.00  0.00    +0.000 A 
BRANCH  22  29
ATOM     28  C   UNL     1       9.100  15.315  18.477  0.00  0.00    +0.000 C 
ATOM     29  O   UNL     1       9.655  14.359  17.578  0.00  0.00    +0.000 OA
ENDBRANCH  22  29
ENDBRANCH  21  25
ENDBRANCH  17  21
ENDBRANCH   1  18
TORSDOF 5
ENDMDL
MODEL 7
REMARK VINA RESULT:      -7.9      2.215      2.997
REMARK  Name = 
REMARK  8 active torsions:
REMARK  status: ('A' for Active; 'I' for Inactive)
REMARK    1  A    between atoms: C_1  and  O_2
REMARK    2  A    between atoms: O_2  and  C_3
REMARK    3  A    between atoms: C_6  and  C_7
REMARK    4  A    between atoms: C_7  and  N_8
REMARK    5  A    between atoms: C_9  and  C_11
REMARK    6  A    between atoms: C_17  and  C_18
REMARK    7  A    between atoms: C_19  and  C_20
REMARK    8  A    between atoms: C_23  and  C_24
REMARK                            x       y       z     vdW  Elec       q    Type
REMARK                         _______ _______ _______ _____ _____    ______ ____
ROOT
ATOM      1  C   UNL     1       2.151   6.673  19.731  0.00  0.00    +0.000 A 
ATOM      2  C   UNL     1       1.571   5.845  20.682  0.00  0.00    +0.000 A 
ATOM      3  N   UNL     1       2.220   4.659  20.808  0.00  0.00    +0.000 NA
ATOM      4  C   UNL     1       3.203   4.716  19.939  0.00  0.00    +0.000 A 
ATOM      5  C   UNL     1       4.228   3.774  19.654  0.00  0.00    +0.000 A 
ATOM      6  C   UNL     1       5.146   4.046  18.714  0.00  0.00    +0.000 A 
ATOM      7  C   UNL     1       5.126   5.294  17.944  0.00  0.00    +0.000 A 
ATOM      8  C   UNL     1       4.152   6.190  18.231  0.00  0.00    +0.000 A 
ATOM      9  N   UNL     1       3.207   5.917  19.227  0.00  0.00    +0.000 N 
ENDROOT
BRANCH   7  10
ATOM     10  C   UNL     1       6.118   5.527  16.949  0.00  0.00    +0.000 A 
ATOM     11  C   UNL     1       7.254   6.378  16.992  0.00  0.00    +0.000 A 
ATOM     12  C   UNL     1       7.740   7.254  18.081  0.00  0.00    +0.000 C 
ATOM     13  N   UNL     1       7.937   6.326  15.839  0.00  0.00    +0.000 NA
ATOM     14  O   UNL     1       7.257   5.429  15.036  0.00  0.00    +0.000 OA
ATOM     15  C   UNL     1       6.169   4.951  15.699  0.00  0.00    +0.000 A 
ATOM     16  C   UNL     1       5.338   3.976  14.970  0.00  0.00    +0.000 C 
ENDBRANCH   7  10
BRANCH   1  18
ATOM     17  N   UNL     1       1.375   8.835  20.380  0.00  0.00    +0.000 N 
ATOM     18  C   UNL     1       1.764   8.009  19.334  0.00  0.00    +0.000 C 
ATOM     19  O   UNL     1       1.775   8.401  18.172  0.00  0.00    +0.000 OA
ATOM     20  H   UNL     1       1.657   8.592  21.314  0.00  0.00    +0.000 HD
BRANCH  17  21
ATOM     21  C   UNL     1       1.030  10.222  20.159  0.00  0.00    +0.000 C 
BRANCH  21  25
ATOM     22  C   UNL     1      -2.030  11.652  22.893  0.00  0.00    +0.000 A 
ATOM     23  C   UNL     1      -1.879  12.221  21.628  0.00  0.00    +0.000 A 
ATOM     24  C   UNL     1      -0.892  11.758  20.752  0.00  0.00    +0.000 A 
ATOM     25  C   UNL     1      -0.014  10.733  21.130  0.00  0.00    +0.000 A 
ATOM     26  C   UNL     1      -0.176  10.166  22.405  0.00  0.00    +0.000 A 
ATOM     27  C   UNL     1      -1.173  10.628  23.282  0.00  0.00    +0.000 A 
BRANCH  22  29
ATOM     28  C   UNL     1      -3.861  13.146  23.016  0.00  0.00    +0.000 C 
ATOM     29  O   UNL     1      -3.023  12.193  23.664  0.00  0.00    +0.000 OA
ENDBRANCH  22  29
ENDBRANCH  21  25
ENDBRANCH  17  21
ENDBRANCH   1  18
TORSDOF 5
ENDMDL
MODEL 8
REMARK VINA RESULT:      -7.7      4.891      8.165
REMARK  Name = 
REMARK  8 active torsions:
REMARK  status: ('A' for Active; 'I' for Inactive)
REMARK    1  A    between atoms: C_1  and  O_2
REMARK    2  A    between atoms: O_2  and  C_3
REMARK    3  A    between atoms: C_6  and  C_7
REMARK    4  A    between atoms: C_7  and  N_8
REMARK    5  A    between atoms: C_9  and  C_11
REMARK    6  A    between atoms: C_17  and  C_18
REMARK    7  A    between atoms: C_19  and  C_20
REMARK    8  A    between atoms: C_23  and  C_24
REMARK                            x       y       z     vdW  Elec       q    Type
REMARK                         _______ _______ _______ _____ _____    ______ ____
ROOT
ATOM      1  C   UNL     1       6.949   6.223  17.398  0.00  0.00    +0.000 A 
ATOM      2  C   UNL     1       7.019   6.284  16.014  0.00  0.00    +0.000 A 
ATOM      3  N   UNL     1       5.994   5.631  15.409  0.00  0.00    +0.000 NA
ATOM      4  C   UNL     1       5.275   5.142  16.393  0.00  0.00    +0.000 A 
ATOM      5  C   UNL     1       4.066   4.396  16.360  0.00  0.00    +0.000 A 
ATOM      6  C   UNL     1       3.493   3.998  17.507  0.00  0.00    +0.000 A 
ATOM      7  C   UNL     1       4.083   4.292  18.816  0.00  0.00    +0.000 A 
ATOM      8  C   UNL     1       5.230   5.012  18.837  0.00  0.00    +0.000 A 
ATOM      9  N   UNL     1       5.816   5.450  17.643  0.00  0.00    +0.000 N 
ENDROOT
BRANCH   7  10
ATOM     10  C   UNL     1       3.440   3.834  20.001  0.00  0.00    +0.000 A 
ATOM     11  C   UNL     1       3.667   2.648  20.748  0.00  0.00    +0.000 A 
ATOM     12  C   UNL     1       4.641   1.558  20.521  0.00  0.00    +0.000 C 
ATOM     13  N   UNL     1       2.838   2.578  21.800  0.00  0.00    +0.000 NA
ATOM     14  O   UNL     1       2.069   3.725  21.754  0.00  0.00    +0.000 OA
ATOM     15  C   UNL     1       2.428   4.477  20.678  0.00  0.00    +0.000 A 
ATOM     16  C   UNL     1       1.695   5.743  20.494  0.00  0.00    +0.000 C 
ENDBRANCH   7  10
BRANCH   1  18
ATOM     17  N   UNL     1       8.157   8.140  18.147  0.00  0.00    +0.000 N 
ATOM     18  C   UNL     1       7.836   6.809  18.379  0.00  0.00    +0.000 C 
ATOM     19  O   UNL     1       8.277   6.198  19.347  0.00  0.00    +0.000 OA
ATOM     20  H   UNL     1       7.563   8.679  17.542  0.00  0.00    +0.000 HD
BRANCH  17  21
ATOM     21  C   UNL     1       8.974   8.893  19.075  0.00  0.00    +0.000 C 
BRANCH  21  25
ATOM     22  C   UNL     1       9.007  13.148  18.195  0.00  0.00    +0.000 A 
ATOM     23  C   UNL     1       8.210  12.272  17.458  0.00  0.00    +0.000 A 
ATOM     24  C   UNL     1       8.203  10.902  17.745  0.00  0.00    +0.000 A 
ATOM     25  C   UNL     1       9.015  10.373  18.757  0.00  0.00    +0.000 A 
ATOM     26  C   UNL     1       9.813  11.264  19.493  0.00  0.00    +0.000 A 
ATOM     27  C   UNL     1       9.813  12.641  19.210  0.00  0.00    +0.000 A 
BRANCH  22  29
ATOM     28  C   UNL     1       7.642  15.054  17.872  0.00  0.00    +0.000 C 
ATOM     29  O   UNL     1       8.937  14.462  17.818  0.00  0.00    +0.000 OA
ENDBRANCH  22  29
ENDBRANCH  21  25
ENDBRANCH  17  21
ENDBRANCH   1  18
TORSDOF 5
ENDMDL
MODEL 9
REMARK VINA RESULT:      -7.7      1.491      2.046
REMARK  Name = 
REMARK  8 active torsions:
REMARK  status: ('A' for Active; 'I' for Inactive)
REMARK    1  A    between atoms: C_1  and  O_2
REMARK    2  A    between atoms: O_2  and  C_3
REMARK    3  A    between atoms: C_6  and  C_7
REMARK    4  A    between atoms: C_7  and  N_8
REMARK    5  A    between atoms: C_9  and  C_11
REMARK    6  A    between atoms: C_17  and  C_18
REMARK    7  A    between atoms: C_19  and  C_20
REMARK    8  A    between atoms: C_23  and  C_24
REMARK                            x       y       z     vdW  Elec       q    Type
REMARK                         _______ _______ _______ _____ _____    ______ ____
ROOT
ATOM      1  C   UNL     1       2.148   5.770  19.472  0.00  0.00    +0.000 A 
ATOM      2  C   UNL     1       1.287   4.786  19.936  0.00  0.00    +0.000 A 
ATOM      3  N   UNL     1       1.567   3.561  19.423  0.00  0.00    +0.000 NA
ATOM      4  C   UNL     1       2.593   3.754  18.625  0.00  0.00    +0.000 A 
ATOM      5  C   UNL     1       3.334   2.824  17.847  0.00  0.00    +0.000 A 
ATOM      6  C   UNL     1       4.364   3.248  17.098  0.00  0.00    +0.000 A 
ATOM      7  C   UNL     1       4.754   4.660  17.037  0.00  0.00    +0.000 A 
ATOM      8  C   UNL     1       4.048   5.536  17.791  0.00  0.00    +0.000 A 
ATOM      9  N   UNL     1       2.989   5.093  18.592  0.00  0.00    +0.000 N 
ENDROOT
BRANCH   7  10
ATOM     10  C   UNL     1       5.848   5.057  16.216  0.00  0.00    +0.000 A 
ATOM     11  C   UNL     1       6.105   4.759  14.852  0.00  0.00    +0.000 A 
ATOM     12  C   UNL     1       5.308   3.965  13.890  0.00  0.00    +0.000 C 
ATOM     13  N   UNL     1       7.257   5.314  14.448  0.00  0.00    +0.000 NA
ATOM     14  O   UNL     1       7.757   5.990  15.545  0.00  0.00    +0.000 OA
ATOM     15  C   UNL     1       6.915   5.836  16.603  0.00  0.00    +0.000 A 
ATOM     16  C   UNL     1       7.313   6.506  17.854  0.00  0.00    +0.000 C 
ENDBRANCH   7  10
BRANCH   1  18
ATOM     17  N   UNL     1       1.428   7.529  20.916  0.00  0.00    +0.000 N 
ATOM     18  C   UNL     1       2.182   7.178  19.804  0.00  0.00    +0.000 C 
ATOM     19  O   UNL     1       2.821   8.010  19.169  0.00  0.00    +0.000 OA
ATOM     20  H   UNL     1       1.172   6.810  21.569  0.00  0.00    +0.000 HD
BRANCH  17  21
ATOM     21  C   UNL     1       1.415   8.884  21.422  0.00  0.00    +0.000 C 
BRANCH  21  25
ATOM     22  C   UNL     1      -1.504  11.355  19.359  0.00  0.00    +0.000 A 
ATOM     23  C   UNL     1      -0.674  10.487  18.650  0.00  0.00    +0.000 A 
ATOM     24  C   UNL     1       0.266   9.694  19.320  0.00  0.00    +0.000 A 
ATOM     25  C   UNL     1       0.415   9.771  20.711  0.00  0.00    +0.000 A 
ATOM     26  C   UNL     1      -0.427  10.647  21.414  0.00  0.00    +0.000 A 
ATOM     27  C   UNL     1      -1.375  11.438  20.743  0.00  0.00    +0.000 A 
BRANCH  22  29
ATOM     28  C   UNL     1      -3.617  11.451  18.298  0.00  0.00    +0.000 C 
ATOM     29  O   UNL     1      -2.376  12.085  18.598  0.00  0.00    +0.000 OA
ENDBRANCH  22  29
ENDBRANCH  21  25
ENDBRANCH  17  21
ENDBRANCH   1  18
TORSDOF 5
ENDMDL
