MODEL 1
REMARK VINA RESULT:      -6.8      0.000      0.000
REMARK  Name = 
REMARK  4 active torsions:
REMARK  status: ('A' for Active; 'I' for Inactive)
REMARK    1  A    between atoms: C_1  and  C_2
REMARK    2  A    between atoms: C_2  and  C_4
REMARK    3  A    between atoms: C_8  and  N_9
REMARK    4  A    between atoms: C_14  and  C_15
REMARK                            x       y       z     vdW  Elec       q    Type
REMARK                         _______ _______ _______ _____ _____    ______ ____
ROOT
ATOM      1  C   UNL     1       6.883   5.594  17.208  0.00  0.00    +0.000 A 
ATOM      2  C   UNL     1       7.124   5.570  15.830  0.00  0.00    +0.000 A 
ATOM      3  C   UNL     1       6.414   4.695  15.018  0.00  0.00    +0.000 A 
ATOM      4  C   UNL     1       5.454   3.846  15.568  0.00  0.00    +0.000 A 
ATOM      5  C   UNL     1       5.192   3.852  16.941  0.00  0.00    +0.000 A 
ATOM      6  C   UNL     1       5.925   4.724  17.759  0.00  0.00    +0.000 A 
ENDROOT
BRANCH   5   7
ATOM      7  N   UNL     1       4.228   3.019  17.542  0.00  0.00    +0.000 N 
ATOM      8  C   UNL     1       2.931   3.362  17.893  0.00  0.00    +0.000 C 
ATOM      9  O   UNL     1       2.402   4.458  17.755  0.00  0.00    +0.000 OA
ATOM     10  N   UNL     1       2.266   2.265  18.457  0.00  0.00    +0.000 N 
ATOM     11  C   UNL     1       0.851   2.341  18.697  0.00  0.00    +0.000 C 
ATOM     12  C   UNL     1       1.826   2.238  19.820  0.00  0.00    +0.000 C 
ATOM     13  H   UNL     1       4.523   2.100  17.845  0.00  0.00    +0.000 HD
BRANCH  12  14
ATOM     14  C   UNL     1       2.045   3.351  20.702  0.00  0.00    +0.000 C 
ATOM     15  N   UNL     1       2.166   4.252  21.419  0.00  0.00    +0.000 NA
ENDBRANCH  12  14
ENDBRANCH   5   7
BRANCH   1  17
ATOM     16  C   UNL     1       7.816   7.961  17.657  0.00  0.00    +0.000 C 
ATOM     17  C   UNL     1       7.618   6.534  18.107  0.00  0.00    +0.000 C 
ATOM     18  O   UNL     1       8.034   6.141  19.193  0.00  0.00    +0.000 OA
ENDBRANCH   1  17
TORSDOF 3
ENDMDL
MODEL 2
REMARK VINA RESULT:      -6.8      1.576      2.662
REMARK  Name = 
REMARK  4 active torsions:
REMARK  status: ('A' for Active; 'I' for Inactive)
REMARK    1  A    between atoms: C_1  and  C_2
REMARK    2  A    between atoms: C_2  and  C_4
REMARK    3  A    between atoms: C_8  and  N_9
REMARK    4  A    between atoms: C_14  and  C_15
REMARK                            x       y       z     vdW  Elec       q    Type
REMARK                         _______ _______ _______ _____ _____    ______ ____
ROOT
ATOM      1  C   UNL     1       6.603   4.810  15.390  0.00  0.00    +0.000 A 
ATOM      2  C   UNL     1       7.294   5.656  16.263  0.00  0.00    +0.000 A 
ATOM      3  C   UNL     1       6.978   5.665  17.615  0.00  0.00    +0.000 A 
ATOM      4  C   UNL     1       5.979   4.827  18.110  0.00  0.00    +0.000 A 
ATOM      5  C   UNL     1       5.274   3.970  17.259  0.00  0.00    +0.000 A 
ATOM      6  C   UNL     1       5.585   3.978  15.892  0.00  0.00    +0.000 A 
ENDROOT
BRANCH   5   7
ATOM      7  N   UNL     1       4.263   3.100  17.713  0.00  0.00    +0.000 N 
ATOM      8  C   UNL     1       2.975   3.444  18.094  0.00  0.00    +0.000 C 
ATOM      9  O   UNL     1       2.496   4.571  18.118  0.00  0.00    +0.000 OA
ATOM     10  N   UNL     1       2.252   2.305  18.474  0.00  0.00    +0.000 N 
ATOM     11  C   UNL     1       0.837   2.407  18.704  0.00  0.00    +0.000 C 
ATOM     12  C   UNL     1       1.784   2.091  19.811  0.00  0.00    +0.000 C 
ATOM     13  H   UNL     1       4.512   2.133  17.875  0.00  0.00    +0.000 HD
BRANCH  12  14
ATOM     14  C   UNL     1       2.032   3.045  20.856  0.00  0.00    +0.000 C 
ATOM     15  N   UNL     1       2.199   3.850  21.672  0.00  0.00    +0.000 NA
ENDBRANCH  12  14
ENDBRANCH   5   7
BRANCH   1  17
ATOM     16  C   UNL     1       6.230   3.748  13.064  0.00  0.00    +0.000 C 
ATOM     17  C   UNL     1       6.930   4.763  13.933  0.00  0.00    +0.000 C 
ATOM     18  O   UNL     1       7.747   5.552  13.465  0.00  0.00    +0.000 OA
ENDBRANCH   1  17
TORSDOF 3
ENDMDL
MODEL 3
REMARK VINA RESULT:      -6.7      2.101      3.225
REMARK  Name = 
REMARK  4 active torsions:
REMARK  status: ('A' for Active; 'I' for Inactive)
REMARK    1  A    between atoms: C_1  and  C_2
REMARK    2  A    between atoms: C_2  and  C_4
REMARK    3  A    between atoms: C_8  and  N_9
REMARK    4  A    between atoms: C_14  and  C_15
REMARK                            x       y       z     vdW  Elec       q    Type
REMARK                         _______ _______ _______ _____ _____    ______ ____
ROOT
ATOM      1  C   UNL     1       5.987   5.521  16.668  0.00  0.00    +0.000 A 
ATOM      2  C   UNL     1       7.279   5.650  17.188  0.00  0.00    +0.000 A 
ATOM      3  C   UNL     1       7.486   5.569  18.560  0.00  0.00    +0.000 A 
ATOM      4  C   UNL     1       6.411   5.351  19.421  0.00  0.00    +0.000 A 
ATOM      5  C   UNL     1       5.110   5.215  18.927  0.00  0.00    +0.000 A 
ATOM      6  C   UNL     1       4.905   5.316  17.543  0.00  0.00    +0.000 A 
ENDROOT
BRANCH   5   7
ATOM      7  N   UNL     1       3.995   4.986  19.756  0.00  0.00    +0.000 N 
ATOM      8  C   UNL     1       3.512   3.760  20.186  0.00  0.00    +0.000 C 
ATOM      9  O   UNL     1       3.965   2.656  19.905  0.00  0.00    +0.000 OA
ATOM     10  N   UNL     1       2.392   3.931  21.009  0.00  0.00    +0.000 N 
ATOM     11  C   UNL     1       1.862   2.806  21.731  0.00  0.00    +0.000 C 
ATOM     12  C   UNL     1       1.083   3.472  20.648  0.00  0.00    +0.000 C 
ATOM     13  H   UNL     1       3.415   5.780  19.995  0.00  0.00    +0.000 HD
BRANCH  12  14
ATOM     14  C   UNL     1       0.841   2.799  19.403  0.00  0.00    +0.000 C 
ATOM     15  N   UNL     1       0.601   2.289  18.391  0.00  0.00    +0.000 NA
ENDBRANCH  12  14
ENDBRANCH   5   7
BRANCH   1  17
ATOM     16  C   UNL     1       6.063   4.382  14.351  0.00  0.00    +0.000 C 
ATOM     17  C   UNL     1       5.734   5.586  15.198  0.00  0.00    +0.000 C 
ATOM     18  O   UNL     1       5.254   6.604  14.705  0.00  0.00    +0.000 OA
ENDBRANCH   1  17
TORSDOF 3
ENDMDL
MODEL 4
REMARK VINA RESULT:      -6.6      1.981      2.963
REMARK  Name = 
REMARK  4 active torsions:
REMARK  status: ('A' for Active; 'I' for Inactive)
REMARK    1  A    between atoms: C_1  and  C_2
REMARK    2  A    between atoms: C_2  and  C_4
REMARK    3  A    between atoms: C_8  and  N_9
REMARK    4  A    between atoms: C_14  and  C_15
REMARK                            x       y       z     vdW  Elec       q    Type
REMARK                         _______ _______ _______ _____ _____    ______ ____
ROOT
ATOM      1  C   UNL     1       6.435   4.577  15.634  0.00  0.00    +0.000 A 
ATOM      2  C   UNL     1       7.490   4.748  16.535  0.00  0.00    +0.000 A 
ATOM      3  C   UNL     1       7.248   4.706  17.902  0.00  0.00    +0.000 A 
ATOM      4  C   UNL     1       5.958   4.484  18.382  0.00  0.00    +0.000 A 
ATOM      5  C   UNL     1       4.885   4.307  17.502  0.00  0.00    +0.000 A 
ATOM      6  C   UNL     1       5.132   4.369  16.123  0.00  0.00    +0.000 A 
ENDROOT
BRANCH   5   7
ATOM      7  N   UNL     1       3.566   4.073  17.938  0.00  0.00    +0.000 N 
ATOM      8  C   UNL     1       2.971   4.553  19.094  0.00  0.00    +0.000 C 
ATOM      9  O   UNL     1       3.497   5.255  19.950  0.00  0.00    +0.000 OA
ATOM     10  N   UNL     1       1.642   4.118  19.183  0.00  0.00    +0.000 N 
ATOM     11  C   UNL     1       0.781   4.670  20.192  0.00  0.00    +0.000 C 
ATOM     12  C   UNL     1       1.179   3.234  20.210  0.00  0.00    +0.000 C 
ATOM     13  H   UNL     1       3.009   3.409  17.415  0.00  0.00    +0.000 HD
BRANCH  12  14
ATOM     14  C   UNL     1       2.063   2.735  21.226  0.00  0.00    +0.000 C 
ATOM     15  N   UNL     1       2.739   2.345  22.083  0.00  0.00    +0.000 NA
ENDBRANCH  12  14
ENDBRANCH   5   7
BRANCH   1  17
ATOM     16  C   UNL     1       5.834   3.696  13.281  0.00  0.00    +0.000 C 
ATOM     17  C   UNL     1       6.664   4.600  14.158  0.00  0.00    +0.000 C 
ATOM     18  O   UNL     1       7.508   5.356  13.683  0.00  0.00    +0.000 OA
ENDBRANCH   1  17
TORSDOF 3
ENDMDL
MODEL 5
REMARK VINA RESULT:      -6.5      4.275      5.460
REMARK  Name = 
REMARK  4 active torsions:
REMARK  status: ('A' for Active; 'I' for Inactive)
REMARK    1  A    between atoms: C_1  and  C_2
REMARK    2  A    between atoms: C_2  and  C_4
REMARK    3  A    between atoms: C_8  and  N_9
REMARK    4  A    between atoms: C_14  and  C_15
REMARK                            x       y       z     vdW  Elec       q    Type
REMARK                         _______ _______ _______ _____ _____    ______ ____
ROOT
ATOM      1  C   UNL     1       1.346   8.684  20.443  0.00  0.00    +0.000 A 
ATOM      2  C   UNL     1       1.106   9.505  19.336  0.00  0.00    +0.000 A 
ATOM      3  C   UNL     1       1.556   9.123  18.079  0.00  0.00    +0.000 A 
ATOM      4  C   UNL     1       2.241   7.919  17.912  0.00  0.00    +0.000 A 
ATOM      5  C   UNL     1       2.492   7.079  19.001  0.00  0.00    +0.000 A 
ATOM      6  C   UNL     1       2.050   7.478  20.271  0.00  0.00    +0.000 A 
ENDROOT
BRANCH   5   7
ATOM      7  N   UNL     1       3.171   5.851  18.882  0.00  0.00    +0.000 N 
ATOM      8  C   UNL     1       2.608   4.584  18.863  0.00  0.00    +0.000 C 
ATOM      9  O   UNL     1       1.418   4.311  18.963  0.00  0.00    +0.000 OA
ATOM     10  N   UNL     1       3.600   3.605  18.718  0.00  0.00    +0.000 N 
ATOM     11  C   UNL     1       3.220   2.242  18.466  0.00  0.00    +0.000 C 
ATOM     12  C   UNL     1       3.894   2.639  19.734  0.00  0.00    +0.000 C 
ATOM     13  H   UNL     1       4.182   5.868  18.908  0.00  0.00    +0.000 HD
BRANCH  12  14
ATOM     14  C   UNL     1       3.179   2.617  20.979  0.00  0.00    +0.000 C 
ATOM     15  N   UNL     1       2.555   2.605  21.955  0.00  0.00    +0.000 NA
ENDBRANCH  12  14
ENDBRANCH   5   7
BRANCH   1  17
ATOM     16  C   UNL     1      -0.576   8.769  22.167  0.00  0.00    +0.000 C 
ATOM     17  C   UNL     1       0.860   9.058  21.805  0.00  0.00    +0.000 C 
ATOM     18  O   UNL     1       1.631   9.577  22.608  0.00  0.00    +0.000 OA
ENDBRANCH   1  17
TORSDOF 3
ENDMDL
MODEL 6
REMARK VINA RESULT:      -6.3      1.862      2.646
REMARK  Name = 
REMARK  4 active torsions:
REMARK  status: ('A' for Active; 'I' for Inactive)
REMARK    1  A    between atoms: C_1  and  C_2
REMARK    2  A    between atoms: C_2  and  C_4
REMARK    3  A    between atoms: C_8  and  N_9
REMARK    4  A    between atoms: C_14  and  C_15
REMARK                            x       y       z     vdW  Elec       q    Type
REMARK                         _______ _______ _______ _____ _____    ______ ____
ROOT
ATOM      1  C   UNL     1       5.880   5.224  15.390  0.00  0.00    +0.000 A 
ATOM      2  C   UNL     1       5.802   6.527  15.893  0.00  0.00    +0.000 A 
ATOM      3  C   UNL     1       4.944   6.812  16.948  0.00  0.00    +0.000 A 
ATOM      4  C   UNL     1       4.166   5.803  17.514  0.00  0.00    +0.000 A 
ATOM      5  C   UNL     1       4.227   4.492  17.032  0.00  0.00    +0.000 A 
ATOM      6  C   UNL     1       5.082   4.214  15.955  0.00  0.00    +0.000 A 
ENDROOT
BRANCH   5   7
ATOM      7  N   UNL     1       3.467   3.438  17.576  0.00  0.00    +0.000 N 
ATOM      8  C   UNL     1       2.248   3.538  18.229  0.00  0.00    +0.000 C 
ATOM      9  O   UNL     1       1.625   4.567  18.460  0.00  0.00    +0.000 OA
ATOM     10  N   UNL     1       1.791   2.272  18.619  0.00  0.00    +0.000 N 
ATOM     11  C   UNL     1       0.454   2.124  19.122  0.00  0.00    +0.000 C 
ATOM     12  C   UNL     1       1.642   1.887  19.990  0.00  0.00    +0.000 C 
ATOM     13  H   UNL     1       3.883   2.515  17.587  0.00  0.00    +0.000 HD
BRANCH  12  14
ATOM     14  C   UNL     1       1.955   2.790  21.062  0.00  0.00    +0.000 C 
ATOM     15  N   UNL     1       2.219   3.558  21.889  0.00  0.00    +0.000 NA
ENDBRANCH  12  14
ENDBRANCH   5   7
BRANCH   1  17
ATOM     16  C   UNL     1       6.374   3.839  13.266  0.00  0.00    +0.000 C 
ATOM     17  C   UNL     1       6.805   4.881  14.268  0.00  0.00    +0.000 C 
ATOM     18  O   UNL     1       7.887   5.454  14.171  0.00  0.00    +0.000 OA
ENDBRANCH   1  17
TORSDOF 3
ENDMDL
MODEL 7
REMARK VINA RESULT:      -6.3      2.516      6.184
REMARK  Name = 
REMARK  4 active torsions:
REMARK  status: ('A' for Active; 'I' for Inactive)
REMARK    1  A    between atoms: C_1  and  C_2
REMARK    2  A    between atoms: C_2  and  C_4
REMARK    3  A    between atoms: C_8  and  N_9
REMARK    4  A    between atoms: C_14  and  C_15
REMARK                            x       y       z     vdW  Elec       q    Type
REMARK                         _______ _______ _______ _____ _____    ______ ____
ROOT
ATOM      1  C   UNL     1       1.687   4.469  19.912  0.00  0.00    +0.000 A 
ATOM      2  C   UNL     1       1.354   5.612  20.646  0.00  0.00    +0.000 A 
ATOM      3  C   UNL     1       1.897   6.842  20.295  0.00  0.00    +0.000 A 
ATOM      4  C   UNL     1       2.765   6.944  19.209  0.00  0.00    +0.000 A 
ATOM      5  C   UNL     1       3.111   5.818  18.457  0.00  0.00    +0.000 A 
ATOM      6  C   UNL     1       2.575   4.575  18.826  0.00  0.00    +0.000 A 
ENDROOT
BRANCH   5   7
ATOM      7  N   UNL     1       3.977   5.872  17.347  0.00  0.00    +0.000 N 
ATOM      8  C   UNL     1       4.626   4.807  16.742  0.00  0.00    +0.000 C 
ATOM      9  O   UNL     1       4.571   3.630  17.079  0.00  0.00    +0.000 OA
ATOM     10  N   UNL     1       5.394   5.249  15.657  0.00  0.00    +0.000 N 
ATOM     11  C   UNL     1       5.980   4.288  14.763  0.00  0.00    +0.000 C 
ATOM     12  C   UNL     1       6.823   5.161  15.627  0.00  0.00    +0.000 C 
ATOM     13  H   UNL     1       4.242   6.785  17.001  0.00  0.00    +0.000 HD
BRANCH  12  14
ATOM     14  C   UNL     1       7.564   4.606  16.725  0.00  0.00    +0.000 C 
ATOM     15  N   UNL     1       8.177   4.209  17.625  0.00  0.00    +0.000 NA
ENDBRANCH  12  14
ENDBRANCH   5   7
BRANCH   1  17
ATOM     16  C   UNL     1       0.615   2.251  19.132  0.00  0.00    +0.000 C 
ATOM     17  C   UNL     1       1.107   3.135  20.252  0.00  0.00    +0.000 C 
ATOM     18  O   UNL     1       1.051   2.774  21.424  0.00  0.00    +0.000 OA
ENDBRANCH   1  17
TORSDOF 3
ENDMDL
MODEL 8
REMARK VINA RESULT:      -6.3      3.129      5.020
REMARK  Name = 
REMARK  4 active torsions:
REMARK  status: ('A' for Active; 'I' for Inactive)
REMARK    1  A    between atoms: C_1  and  C_2
REMARK    2  A    between atoms: C_2  and  C_4
REMARK    3  A    between atoms: C_8  and  N_9
REMARK    4  A    between atoms: C_14  and  C_15
REMARK                            x       y       z     vdW  Elec       q    Type
REMARK                         _______ _______ _______ _____ _____    ______ ____
ROOT
ATOM      1  C   UNL     1       5.874   3.578  12.494  0.00  0.00    +0.000 A 
ATOM      2  C   UNL     1       7.149   4.059  12.179  0.00  0.00    +0.000 A 
ATOM      3  C   UNL     1       7.795   4.928  13.049  0.00  0.00    +0.000 A 
ATOM      4  C   UNL     1       7.184   5.316  14.240  0.00  0.00    +0.000 A 
ATOM      5  C   UNL     1       5.911   4.848  14.580  0.00  0.00    +0.000 A 
ATOM      6  C   UNL     1       5.255   3.985  13.689  0.00  0.00    +0.000 A 
ENDROOT
BRANCH   5   7
ATOM      7  N   UNL     1       5.255   5.206  15.775  0.00  0.00    +0.000 N 
ATOM      8  C   UNL     1       5.588   4.809  17.060  0.00  0.00    +0.000 C 
ATOM      9  O   UNL     1       6.505   4.062  17.381  0.00  0.00    +0.000 OA
ATOM     10  N   UNL     1       4.712   5.378  17.994  0.00  0.00    +0.000 N 
ATOM     11  C   UNL     1       5.003   5.267  19.398  0.00  0.00    +0.000 C 
ATOM     12  C   UNL     1       3.815   4.599  18.795  0.00  0.00    +0.000 C 
ATOM     13  H   UNL     1       4.392   5.728  15.699  0.00  0.00    +0.000 HD
BRANCH  12  14
ATOM     14  C   UNL     1       3.759   3.168  18.684  0.00  0.00    +0.000 C 
ATOM     15  N   UNL     1       3.770   2.012  18.601  0.00  0.00    +0.000 NA
ENDBRANCH  12  14
ENDBRANCH   5   7
BRANCH   1  17
ATOM     16  C   UNL     1       3.841   3.054  10.988  0.00  0.00    +0.000 C 
ATOM     17  C   UNL     1       5.158   2.629  11.589  0.00  0.00    +0.000 C 
ATOM     18  O   UNL     1       5.652   1.533  11.339  0.00  0.00    +0.000 OA
ENDBRANCH   1  17
TORSDOF 3
ENDMDL
MODEL 9
REMARK VINA RESULT:      -6.2      1.332      1.436
REMARK  Name = 
REMARK  4 active torsions:
REMARK  status: ('A' for Active; 'I' for Inactive)
REMARK    1  A    between atoms: C_1  and  C_2
REMARK    2  A    between atoms: C_2  and  C_4
REMARK    3  A    between atoms: C_8  and  N_9
REMARK    4  A    between atoms: C_14  and  C_15
REMARK                            x       y       z     vdW  Elec       q    Type
REMARK                         _______ _______ _______ _____ _____    ______ ____
ROOT
ATOM      1  C   UNL     1       6.694   5.708  17.332  0.00  0.00    +0.000 A 
ATOM      2  C   UNL     1       7.089   5.128  16.122  0.00  0.00    +0.000 A 
ATOM      3  C   UNL     1       6.238   4.249  15.465  0.00  0.00    +0.000 A 
ATOM      4  C   UNL     1       4.987   3.947  16.001  0.00  0.00    +0.000 A 
ATOM      5  C   UNL     1       4.566   4.514  17.208  0.00  0.00    +0.000 A 
ATOM      6  C   UNL     1       5.437   5.388  17.876  0.00  0.00    +0.000 A 
ENDROOT
BRANCH   5   7
ATOM      7  N   UNL     1       3.309   4.246  17.785  0.00  0.00    +0.000 N 
ATOM      8  C   UNL     1       2.851   4.675  19.021  0.00  0.00    +0.000 C 
ATOM      9  O   UNL     1       3.467   5.351  19.836  0.00  0.00    +0.000 OA
ATOM     10  N   UNL     1       1.545   4.220  19.247  0.00  0.00    +0.000 N 
ATOM     11  C   UNL     1       0.803   4.722  20.371  0.00  0.00    +0.000 C 
ATOM     12  C   UNL     1       1.213   3.292  20.287  0.00  0.00    +0.000 C 
ATOM     13  H   UNL     1       2.701   3.596  17.306  0.00  0.00    +0.000 HD
BRANCH  12  14
ATOM     14  C   UNL     1       2.214   2.765  21.171  0.00  0.00    +0.000 C 
ATOM     15  N   UNL     1       3.037   2.305  21.844  0.00  0.00    +0.000 NA
ENDBRANCH  12  14
ENDBRANCH   5   7
BRANCH   1  17
ATOM     16  C   UNL     1       7.715   8.074  17.518  0.00  0.00    +0.000 C 
ATOM     17  C   UNL     1       7.578   6.670  18.055  0.00  0.00    +0.000 C 
ATOM     18  O   UNL     1       8.165   6.314  19.073  0.00  0.00    +0.000 OA
ENDBRANCH   1  17
TORSDOF 3
ENDMDL
