MODEL 1
REMARK VINA RESULT:      -5.9      0.000      0.000
REMARK  Name = 
REMARK  11 active torsions:
REMARK  status: ('A' for Active; 'I' for Inactive)
REMARK    1  A    between atoms: C_1  and  C_2
REMARK    2  A    between atoms: C_2  and  C_3
REMARK    3  A    between atoms: C_4  and  C_5
REMARK    4  A    between atoms: C_5  and  N_6
REMARK    5  A    between atoms: N_9  and  C_10
REMARK    6  A    between atoms: C_10  and  C_11
REMARK    7  A    between atoms: C_11  and  C_12
REMARK    8  A    between atoms: C_12  and  C_13
REMARK    9  A    between atoms: C_13  and  C_14
REMARK   10  A    between atoms: C_14  and  C_15
REMARK   11  A    between atoms: C_15  and  N_16
REMARK                            x       y       z     vdW  Elec       q    Type
REMARK                         _______ _______ _______ _____ _____    ______ ____
ROOT
ATOM      1  N   UNL     1       5.587   3.720  17.504  0.00  0.00    +0.000 N 
ATOM      2  C   UNL     1       4.970   3.759  18.710  0.00  0.00    +0.000 C 
ATOM      3  N   UNL     1       5.230   2.877  19.624  0.00  0.00    +0.000 NA
ATOM      4  N   UNL     1       4.079   4.721  19.021  0.00  0.00    +0.000 N 
ATOM      5  H   UNL     1       6.098   2.885  17.266  0.00  0.00    +0.000 HD
ATOM      6  H   UNL     1       5.954   2.249  19.278  0.00  0.00    +0.000 HD
ATOM      7  H   UNL     1       3.641   4.512  19.915  0.00  0.00    +0.000 HD
ENDROOT
BRANCH   1   8
ATOM      8  C   UNL     1       5.618   4.776  16.536  0.00  0.00    +0.000 C 
BRANCH   8  12
ATOM      9  C   UNL     1       5.680   3.512  12.888  0.00  0.00    +0.000 C 
ATOM     10  C   UNL     1       6.051   4.311  14.105  0.00  0.00    +0.000 C 
ATOM     11  C   UNL     1       7.364   5.044  14.083  0.00  0.00    +0.000 C 
ATOM     12  C   UNL     1       5.236   4.294  15.179  0.00  0.00    +0.000 C 
ENDBRANCH   8  12
ENDBRANCH   1   8
BRANCH   4  13
ATOM     13  C   UNL     1       3.260   5.486  18.105  0.00  0.00    +0.000 C 
BRANCH  13  14
ATOM     14  C   UNL     1       1.826   5.002  18.013  0.00  0.00    +0.000 C 
BRANCH  14  15
ATOM     15  C   UNL     1       1.748   3.501  17.749  0.00  0.00    +0.000 C 
BRANCH  15  16
ATOM     16  C   UNL     1       0.880   2.826  18.804  0.00  0.00    +0.000 C 
BRANCH  16  17
ATOM     17  C   UNL     1       0.850   3.644  20.089  0.00  0.00    +0.000 C 
BRANCH  17  18
ATOM     18  C   UNL     1       1.307   2.794  21.268  0.00  0.00    +0.000 C 
BRANCH  18  19
ATOM     19  N   UNL     1       2.747   2.918  21.446  0.00  0.00    +0.000 NA
ATOM     20  H   UNL     1       3.225   2.472  20.664  0.00  0.00    +0.000 HD
ATOM     21  H   UNL     1       3.027   2.406  22.280  0.00  0.00    +0.000 HD
ENDBRANCH  18  19
ENDBRANCH  17  18
ENDBRANCH  16  17
ENDBRANCH  15  16
ENDBRANCH  14  15
ENDBRANCH  13  14
ENDBRANCH   4  13
TORSDOF 9
ENDMDL
MODEL 2
REMARK VINA RESULT:      -5.8      1.260      1.845
REMARK  Name = 
REMARK  11 active torsions:
REMARK  status: ('A' for Active; 'I' for Inactive)
REMARK    1  A    between atoms: C_1  and  C_2
REMARK    2  A    between atoms: C_2  and  C_3
REMARK    3  A    between atoms: C_4  and  C_5
REMARK    4  A    between atoms: C_5  and  N_6
REMARK    5  A    between atoms: N_9  and  C_10
REMARK    6  A    between atoms: C_10  and  C_11
REMARK    7  A    between atoms: C_11  and  C_12
REMARK    8  A    between atoms: C_12  and  C_13
REMARK    9  A    between atoms: C_13  and  C_14
REMARK   10  A    between atoms: C_14  and  C_15
REMARK   11  A    between atoms: C_15  and  N_16
REMARK                            x       y       z     vdW  Elec       q    Type
REMARK                         _______ _______ _______ _____ _____    ______ ____
ROOT
ATOM      1  N   UNL     1       4.642   3.306  17.480  0.00  0.00    +0.000 N 
ATOM      2  C   UNL     1       4.789   3.554  18.805  0.00  0.00    +0.000 C 
ATOM      3  N   UNL     1       5.105   2.607  19.632  0.00  0.00    +0.000 NA
ATOM      4  N   UNL     1       4.634   4.790  19.318  0.00  0.00    +0.000 N 
ATOM      5  H   UNL     1       4.591   2.345  17.186  0.00  0.00    +0.000 HD
ATOM      6  H   UNL     1       5.244   1.745  19.106  0.00  0.00    +0.000 HD
ATOM      7  H   UNL     1       4.665   4.751  20.334  0.00  0.00    +0.000 HD
ENDROOT
BRANCH   1   8
ATOM      8  C   UNL     1       4.591   4.288  16.438  0.00  0.00    +0.000 C 
BRANCH   8  12
ATOM      9  C   UNL     1       7.508   5.034  14.020  0.00  0.00    +0.000 C 
ATOM     10  C   UNL     1       6.223   4.448  14.534  0.00  0.00    +0.000 C 
ATOM     11  C   UNL     1       5.283   3.843  13.529  0.00  0.00    +0.000 C 
ATOM     12  C   UNL     1       5.936   4.540  15.848  0.00  0.00    +0.000 C 
ENDBRANCH   8  12
ENDBRANCH   1   8
BRANCH   4  13
ATOM     13  C   UNL     1       3.840   5.871  18.774  0.00  0.00    +0.000 C 
BRANCH  13  14
ATOM     14  C   UNL     1       2.354   5.739  19.045  0.00  0.00    +0.000 C 
BRANCH  14  15
ATOM     15  C   UNL     1       2.077   5.234  20.459  0.00  0.00    +0.000 C 
BRANCH  15  16
ATOM     16  C   UNL     1       0.935   4.225  20.442  0.00  0.00    +0.000 C 
BRANCH  16  17
ATOM     17  C   UNL     1       1.462   2.809  20.246  0.00  0.00    +0.000 C 
BRANCH  17  18
ATOM     18  C   UNL     1       1.083   2.290  18.865  0.00  0.00    +0.000 C 
BRANCH  18  19
ATOM     19  N   UNL     1       2.198   1.554  18.284  0.00  0.00    +0.000 NA
ATOM     20  H   UNL     1       2.970   2.195  18.101  0.00  0.00    +0.000 HD
ATOM     21  H   UNL     1       1.918   1.180  17.380  0.00  0.00    +0.000 HD
ENDBRANCH  18  19
ENDBRANCH  17  18
ENDBRANCH  16  17
ENDBRANCH  15  16
ENDBRANCH  14  15
ENDBRANCH  13  14
ENDBRANCH   4  13
TORSDOF 9
ENDMDL
MODEL 3
REMARK VINA RESULT:      -5.7      1.790      3.954
REMARK  Name = 
REMARK  11 active torsions:
REMARK  status: ('A' for Active; 'I' for Inactive)
REMARK    1  A    between atoms: C_1  and  C_2
REMARK    2  A    between atoms: C_2  and  C_3
REMARK    3  A    between atoms: C_4  and  C_5
REMARK    4  A    between atoms: C_5  and  N_6
REMARK    5  A    between atoms: N_9  and  C_10
REMARK    6  A    between atoms: C_10  and  C_11
REMARK    7  A    between atoms: C_11  and  C_12
REMARK    8  A    between atoms: C_12  and  C_13
REMARK    9  A    between atoms: C_13  and  C_14
REMARK   10  A    between atoms: C_14  and  C_15
REMARK   11  A    between atoms: C_15  and  N_16
REMARK                            x       y       z     vdW  Elec       q    Type
REMARK                         _______ _______ _______ _____ _____    ______ ____
ROOT
ATOM      1  N   UNL     1       5.066   5.847  16.343  0.00  0.00    +0.000 N 
ATOM      2  C   UNL     1       5.488   4.573  16.146  0.00  0.00    +0.000 C 
ATOM      3  N   UNL     1       6.168   4.250  15.090  0.00  0.00    +0.000 NA
ATOM      4  N   UNL     1       5.241   3.596  17.040  0.00  0.00    +0.000 N 
ATOM      5  H   UNL     1       5.121   6.484  15.566  0.00  0.00    +0.000 HD
ATOM      6  H   UNL     1       6.329   5.088  14.534  0.00  0.00    +0.000 HD
ATOM      7  H   UNL     1       5.529   2.698  16.660  0.00  0.00    +0.000 HD
ENDROOT
BRANCH   1   8
ATOM      8  C   UNL     1       4.579   6.393  17.574  0.00  0.00    +0.000 C 
BRANCH   8  12
ATOM      9  C   UNL     1       1.759   8.990  18.042  0.00  0.00    +0.000 C 
ATOM     10  C   UNL     1       2.580   7.751  18.265  0.00  0.00    +0.000 C 
ATOM     11  C   UNL     1       2.373   7.000  19.551  0.00  0.00    +0.000 C 
ATOM     12  C   UNL     1       3.501   7.397  17.346  0.00  0.00    +0.000 C 
ENDBRANCH   8  12
ENDBRANCH   1   8
BRANCH   4  13
ATOM     13  C   UNL     1       4.152   3.535  17.991  0.00  0.00    +0.000 C 
BRANCH  13  14
ATOM     14  C   UNL     1       2.845   3.045  17.399  0.00  0.00    +0.000 C 
BRANCH  14  15
ATOM     15  C   UNL     1       1.650   3.834  17.927  0.00  0.00    +0.000 C 
BRANCH  15  16
ATOM     16  C   UNL     1       0.891   3.011  18.960  0.00  0.00    +0.000 C 
BRANCH  16  17
ATOM     17  C   UNL     1       0.818   3.743  20.294  0.00  0.00    +0.000 C 
BRANCH  17  18
ATOM     18  C   UNL     1       2.108   3.540  21.080  0.00  0.00    +0.000 C 
BRANCH  18  19
ATOM     19  N   UNL     1       1.887   2.599  22.169  0.00  0.00    +0.000 NA
ATOM     20  H   UNL     1       2.506   2.827  22.946  0.00  0.00    +0.000 HD
ATOM     21  H   UNL     1       2.147   1.664  21.862  0.00  0.00    +0.000 HD
ENDBRANCH  18  19
ENDBRANCH  17  18
ENDBRANCH  16  17
ENDBRANCH  15  16
ENDBRANCH  14  15
ENDBRANCH  13  14
ENDBRANCH   4  13
TORSDOF 9
ENDMDL
MODEL 4
REMARK VINA RESULT:      -5.7      1.724      2.301
REMARK  Name = 
REMARK  11 active torsions:
REMARK  status: ('A' for Active; 'I' for Inactive)
REMARK    1  A    between atoms: C_1  and  C_2
REMARK    2  A    between atoms: C_2  and  C_3
REMARK    3  A    between atoms: C_4  and  C_5
REMARK    4  A    between atoms: C_5  and  N_6
REMARK    5  A    between atoms: N_9  and  C_10
REMARK    6  A    between atoms: C_10  and  C_11
REMARK    7  A    between atoms: C_11  and  C_12
REMARK    8  A    between atoms: C_12  and  C_13
REMARK    9  A    between atoms: C_13  and  C_14
REMARK   10  A    between atoms: C_14  and  C_15
REMARK   11  A    between atoms: C_15  and  N_16
REMARK                            x       y       z     vdW  Elec       q    Type
REMARK                         _______ _______ _______ _____ _____    ______ ____
ROOT
ATOM      1  N   UNL     1       6.990   4.280  15.530  0.00  0.00    +0.000 N 
ATOM      2  C   UNL     1       7.051   4.448  16.874  0.00  0.00    +0.000 C 
ATOM      3  N   UNL     1       8.121   4.138  17.538  0.00  0.00    +0.000 NA
ATOM      4  N   UNL     1       6.020   4.959  17.574  0.00  0.00    +0.000 N 
ATOM      5  H   UNL     1       7.712   3.732  15.092  0.00  0.00    +0.000 HD
ATOM      6  H   UNL     1       8.833   3.819  16.884  0.00  0.00    +0.000 HD
ATOM      7  H   UNL     1       6.211   4.894  18.571  0.00  0.00    +0.000 HD
ENDROOT
BRANCH   1   8
ATOM      8  C   UNL     1       6.007   4.844  14.653  0.00  0.00    +0.000 C 
BRANCH   8  12
ATOM      9  C   UNL     1       5.807   2.354  11.708  0.00  0.00    +0.000 C 
ATOM     10  C   UNL     1       6.188   3.581  12.488  0.00  0.00    +0.000 C 
ATOM     11  C   UNL     1       7.334   4.406  11.972  0.00  0.00    +0.000 C 
ATOM     12  C   UNL     1       5.540   3.859  13.638  0.00  0.00    +0.000 C 
ENDBRANCH   8  12
ENDBRANCH   1   8
BRANCH   4  13
ATOM     13  C   UNL     1       4.618   4.924  17.219  0.00  0.00    +0.000 C 
BRANCH  13  14
ATOM     14  C   UNL     1       3.967   3.569  17.419  0.00  0.00    +0.000 C 
BRANCH  14  15
ATOM     15  C   UNL     1       2.453   3.632  17.234  0.00  0.00    +0.000 C 
BRANCH  15  16
ATOM     16  C   UNL     1       1.841   4.602  18.237  0.00  0.00    +0.000 C 
BRANCH  16  17
ATOM     17  C   UNL     1       1.669   3.942  19.599  0.00  0.00    +0.000 C 
BRANCH  17  18
ATOM     18  C   UNL     1       1.979   4.935  20.712  0.00  0.00    +0.000 C 
BRANCH  18  19
ATOM     19  N   UNL     1       2.718   6.071  20.177  0.00  0.00    +0.000 NA
ATOM     20  H   UNL     1       2.886   5.928  19.182  0.00  0.00    +0.000 HD
ATOM     21  H   UNL     1       3.634   6.111  20.618  0.00  0.00    +0.000 HD
ENDBRANCH  18  19
ENDBRANCH  17  18
ENDBRANCH  16  17
ENDBRANCH  15  16
ENDBRANCH  14  15
ENDBRANCH  13  14
ENDBRANCH   4  13
TORSDOF 9
ENDMDL
MODEL 5
REMARK VINA RESULT:      -5.6      1.416      1.850
REMARK  Name = 
REMARK  11 active torsions:
REMARK  status: ('A' for Active; 'I' for Inactive)
REMARK    1  A    between atoms: C_1  and  C_2
REMARK    2  A    between atoms: C_2  and  C_3
REMARK    3  A    between atoms: C_4  and  C_5
REMARK    4  A    between atoms: C_5  and  N_6
REMARK    5  A    between atoms: N_9  and  C_10
REMARK    6  A    between atoms: C_10  and  C_11
REMARK    7  A    between atoms: C_11  and  C_12
REMARK    8  A    between atoms: C_12  and  C_13
REMARK    9  A    between atoms: C_13  and  C_14
REMARK   10  A    between atoms: C_14  and  C_15
REMARK   11  A    between atoms: C_15  and  N_16
REMARK                            x       y       z     vdW  Elec       q    Type
REMARK                         _______ _______ _______ _____ _____    ______ ____
ROOT
ATOM      1  N   UNL     1       5.867   3.840  17.183  0.00  0.00    +0.000 N 
ATOM      2  C   UNL     1       5.465   4.251  18.412  0.00  0.00    +0.000 C 
ATOM      3  N   UNL     1       5.456   3.436  19.420  0.00  0.00    +0.000 NA
ATOM      4  N   UNL     1       5.078   5.520  18.645  0.00  0.00    +0.000 N 
ATOM      5  H   UNL     1       5.968   2.850  17.030  0.00  0.00    +0.000 HD
ATOM      6  H   UNL     1       5.821   2.534  19.116  0.00  0.00    +0.000 HD
ATOM      7  H   UNL     1       4.703   5.601  19.587  0.00  0.00    +0.000 HD
ENDROOT
BRANCH   1   8
ATOM      8  C   UNL     1       6.202   4.687  16.078  0.00  0.00    +0.000 C 
BRANCH   8  12
ATOM      9  C   UNL     1       5.888   3.347  12.470  0.00  0.00    +0.000 C 
ATOM     10  C   UNL     1       6.350   4.201  13.617  0.00  0.00    +0.000 C 
ATOM     11  C   UNL     1       7.588   5.030  13.412  0.00  0.00    +0.000 C 
ATOM     12  C   UNL     1       5.686   4.146  14.789  0.00  0.00    +0.000 C 
ENDBRANCH   8  12
ENDBRANCH   1   8
BRANCH   4  13
ATOM     13  C   UNL     1       4.532   6.459  17.689  0.00  0.00    +0.000 C 
BRANCH  13  14
ATOM     14  C   UNL     1       3.016   6.498  17.662  0.00  0.00    +0.000 C 
BRANCH  14  15
ATOM     15  C   UNL     1       2.405   5.499  18.640  0.00  0.00    +0.000 C 
BRANCH  15  16
ATOM     16  C   UNL     1       1.628   4.429  17.883  0.00  0.00    +0.000 C 
BRANCH  16  17
ATOM     17  C   UNL     1       1.870   3.051  18.485  0.00  0.00    +0.000 C 
BRANCH  17  18
ATOM     18  C   UNL     1       2.610   2.163  17.493  0.00  0.00    +0.000 C 
BRANCH  18  19
ATOM     19  N   UNL     1       3.614   1.366  18.186  0.00  0.00    +0.000 NA
ATOM     20  H   UNL     1       4.119   0.793  17.511  0.00  0.00    +0.000 HD
ATOM     21  H   UNL     1       3.149   0.718  18.818  0.00  0.00    +0.000 HD
ENDBRANCH  18  19
ENDBRANCH  17  18
ENDBRANCH  16  17
ENDBRANCH  15  16
ENDBRANCH  14  15
ENDBRANCH  13  14
ENDBRANCH   4  13
TORSDOF 9
ENDMDL
MODEL 6
REMARK VINA RESULT:      -5.6      1.591      2.235
REMARK  Name = 
REMARK  11 active torsions:
REMARK  status: ('A' for Active; 'I' for Inactive)
REMARK    1  A    between atoms: C_1  and  C_2
REMARK    2  A    between atoms: C_2  and  C_3
REMARK    3  A    between atoms: C_4  and  C_5
REMARK    4  A    between atoms: C_5  and  N_6
REMARK    5  A    between atoms: N_9  and  C_10
REMARK    6  A    between atoms: C_10  and  C_11
REMARK    7  A    between atoms: C_11  and  C_12
REMARK    8  A    between atoms: C_12  and  C_13
REMARK    9  A    between atoms: C_13  and  C_14
REMARK   10  A    between atoms: C_14  and  C_15
REMARK   11  A    between atoms: C_15  and  N_16
REMARK                            x       y       z     vdW  Elec       q    Type
REMARK                         _______ _______ _______ _____ _____    ______ ____
ROOT
ATOM      1  N   UNL     1       7.220   4.500  15.683  0.00  0.00    +0.000 N 
ATOM      2  C   UNL     1       7.163   4.365  17.031  0.00  0.00    +0.000 C 
ATOM      3  N   UNL     1       8.237   4.171  17.731  0.00  0.00    +0.000 NA
ATOM      4  N   UNL     1       5.998   4.446  17.704  0.00  0.00    +0.000 N 
ATOM      5  H   UNL     1       8.081   4.251  15.224  0.00  0.00    +0.000 HD
ATOM      6  H   UNL     1       9.042   4.187  17.107  0.00  0.00    +0.000 HD
ATOM      7  H   UNL     1       6.144   4.201  18.680  0.00  0.00    +0.000 HD
ENDROOT
BRANCH   1   8
ATOM      8  C   UNL     1       6.178   5.003  14.840  0.00  0.00    +0.000 C 
BRANCH   8  12
ATOM      9  C   UNL     1       6.013   2.537  11.873  0.00  0.00    +0.000 C 
ATOM     10  C   UNL     1       6.332   3.785  12.647  0.00  0.00    +0.000 C 
ATOM     11  C   UNL     1       7.363   4.717  12.073  0.00  0.00    +0.000 C 
ATOM     12  C   UNL     1       5.737   3.990  13.840  0.00  0.00    +0.000 C 
ENDBRANCH   8  12
ENDBRANCH   1   8
BRANCH   4  13
ATOM     13  C   UNL     1       4.672   4.165  17.196  0.00  0.00    +0.000 C 
BRANCH  13  14
ATOM     14  C   UNL     1       3.652   5.242  17.512  0.00  0.00    +0.000 C 
BRANCH  14  15
ATOM     15  C   UNL     1       3.598   5.554  19.005  0.00  0.00    +0.000 C 
BRANCH  15  16
ATOM     16  C   UNL     1       3.276   4.291  19.794  0.00  0.00    +0.000 C 
BRANCH  16  17
ATOM     17  C   UNL     1       2.160   4.547  20.800  0.00  0.00    +0.000 C 
BRANCH  17  18
ATOM     18  C   UNL     1       1.269   3.317  20.926  0.00  0.00    +0.000 C 
BRANCH  18  19
ATOM     19  N   UNL     1       1.651   2.541  22.098  0.00  0.00    +0.000 NA
ATOM     20  H   UNL     1       0.881   1.928  22.365  0.00  0.00    +0.000 HD
ATOM     21  H   UNL     1       1.799   3.171  22.883  0.00  0.00    +0.000 HD
ENDBRANCH  18  19
ENDBRANCH  17  18
ENDBRANCH  16  17
ENDBRANCH  15  16
ENDBRANCH  14  15
ENDBRANCH  13  14
ENDBRANCH   4  13
TORSDOF 9
ENDMDL
MODEL 7
REMARK VINA RESULT:      -5.6      1.302      1.746
REMARK  Name = 
REMARK  11 active torsions:
REMARK  status: ('A' for Active; 'I' for Inactive)
REMARK    1  A    between atoms: C_1  and  C_2
REMARK    2  A    between atoms: C_2  and  C_3
REMARK    3  A    between atoms: C_4  and  C_5
REMARK    4  A    between atoms: C_5  and  N_6
REMARK    5  A    between atoms: N_9  and  C_10
REMARK    6  A    between atoms: C_10  and  C_11
REMARK    7  A    between atoms: C_11  and  C_12
REMARK    8  A    between atoms: C_12  and  C_13
REMARK    9  A    between atoms: C_13  and  C_14
REMARK   10  A    between atoms: C_14  and  C_15
REMARK   11  A    between atoms: C_15  and  N_16
REMARK                            x       y       z     vdW  Elec       q    Type
REMARK                         _______ _______ _______ _____ _____    ______ ____
ROOT
ATOM      1  N   UNL     1       4.341   2.892  17.796  0.00  0.00    +0.000 N 
ATOM      2  C   UNL     1       4.585   3.257  19.079  0.00  0.00    +0.000 C 
ATOM      3  N   UNL     1       5.120   2.428  19.920  0.00  0.00    +0.000 NA
ATOM      4  N   UNL     1       4.304   4.494  19.531  0.00  0.00    +0.000 N 
ATOM      5  H   UNL     1       4.401   1.913  17.568  0.00  0.00    +0.000 HD
ATOM      6  H   UNL     1       5.329   1.557  19.435  0.00  0.00    +0.000 HD
ATOM      7  H   UNL     1       4.445   4.537  20.538  0.00  0.00    +0.000 HD
ENDROOT
BRANCH   1   8
ATOM      8  C   UNL     1       4.038   3.776  16.710  0.00  0.00    +0.000 C 
BRANCH   8  12
ATOM      9  C   UNL     1       7.117   5.031  14.746  0.00  0.00    +0.000 C 
ATOM     10  C   UNL     1       5.787   5.063  15.444  0.00  0.00    +0.000 C 
ATOM     11  C   UNL     1       5.227   6.408  15.815  0.00  0.00    +0.000 C 
ATOM     12  C   UNL     1       5.183   3.901  15.763  0.00  0.00    +0.000 C 
ENDBRANCH   8  12
ENDBRANCH   1   8
BRANCH   4  13
ATOM     13  C   UNL     1       3.308   5.410  19.017  0.00  0.00    +0.000 C 
BRANCH  13  14
ATOM     14  C   UNL     1       2.469   6.074  20.091  0.00  0.00    +0.000 C 
BRANCH  14  15
ATOM     15  C   UNL     1       1.373   5.148  20.610  0.00  0.00    +0.000 C 
BRANCH  15  16
ATOM     16  C   UNL     1       1.044   4.086  19.568  0.00  0.00    +0.000 C 
BRANCH  16  17
ATOM     17  C   UNL     1       1.121   2.689  20.171  0.00  0.00    +0.000 C 
BRANCH  17  18
ATOM     18  C   UNL     1       1.442   2.771  21.658  0.00  0.00    +0.000 C 
BRANCH  18  19
ATOM     19  N   UNL     1       2.841   2.436  21.887  0.00  0.00    +0.000 NA
ATOM     20  H   UNL     1       3.228   3.059  22.596  0.00  0.00    +0.000 HD
ATOM     21  H   UNL     1       3.371   2.610  21.036  0.00  0.00    +0.000 HD
ENDBRANCH  18  19
ENDBRANCH  17  18
ENDBRANCH  16  17
ENDBRANCH  15  16
ENDBRANCH  14  15
ENDBRANCH  13  14
ENDBRANCH   4  13
TORSDOF 9
ENDMDL
MODEL 8
REMARK VINA RESULT:      -5.6      1.035      1.355
REMARK  Name = 
REMARK  11 active torsions:
REMARK  status: ('A' for Active; 'I' for Inactive)
REMARK    1  A    between atoms: C_1  and  C_2
REMARK    2  A    between atoms: C_2  and  C_3
REMARK    3  A    between atoms: C_4  and  C_5
REMARK    4  A    between atoms: C_5  and  N_6
REMARK    5  A    between atoms: N_9  and  C_10
REMARK    6  A    between atoms: C_10  and  C_11
REMARK    7  A    between atoms: C_11  and  C_12
REMARK    8  A    between atoms: C_12  and  C_13
REMARK    9  A    between atoms: C_13  and  C_14
REMARK   10  A    between atoms: C_14  and  C_15
REMARK   11  A    between atoms: C_15  and  N_16
REMARK                            x       y       z     vdW  Elec       q    Type
REMARK                         _______ _______ _______ _____ _____    ______ ____
ROOT
ATOM      1  N   UNL     1       5.869   3.618  18.587  0.00  0.00    +0.000 N 
ATOM      2  C   UNL     1       4.865   3.538  19.495  0.00  0.00    +0.000 C 
ATOM      3  N   UNL     1       4.738   2.501  20.263  0.00  0.00    +0.000 NA
ATOM      4  N   UNL     1       3.972   4.534  19.656  0.00  0.00    +0.000 N 
ATOM      5  H   UNL     1       6.387   2.778  18.387  0.00  0.00    +0.000 HD
ATOM      6  H   UNL     1       5.505   1.857  20.074  0.00  0.00    +0.000 HD
ATOM      7  H   UNL     1       3.235   4.240  20.292  0.00  0.00    +0.000 HD
ENDROOT
BRANCH   1   8
ATOM      8  C   UNL     1       6.295   4.801  17.902  0.00  0.00    +0.000 C 
BRANCH   8  12
ATOM      9  C   UNL     1       7.042   5.043  14.121  0.00  0.00    +0.000 C 
ATOM     10  C   UNL     1       6.315   5.219  15.423  0.00  0.00    +0.000 C 
ATOM     11  C   UNL     1       5.213   6.241  15.473  0.00  0.00    +0.000 C 
ATOM     12  C   UNL     1       6.710   4.510  16.500  0.00  0.00    +0.000 C 
ENDBRANCH   8  12
ENDBRANCH   1   8
BRANCH   4  13
ATOM     13  C   UNL     1       3.573   5.519  18.674  0.00  0.00    +0.000 C 
BRANCH  13  14
ATOM     14  C   UNL     1       2.302   5.163  17.928  0.00  0.00    +0.000 C 
BRANCH  14  15
ATOM     15  C   UNL     1       2.085   3.654  17.862  0.00  0.00    +0.000 C 
BRANCH  15  16
ATOM     16  C   UNL     1       0.895   3.256  18.726  0.00  0.00    +0.000 C 
BRANCH  16  17
ATOM     17  C   UNL     1       1.323   2.310  19.841  0.00  0.00    +0.000 C 
BRANCH  17  18
ATOM     18  C   UNL     1       1.150   2.980  21.198  0.00  0.00    +0.000 C 
BRANCH  18  19
ATOM     19  N   UNL     1       2.378   2.866  21.973  0.00  0.00    +0.000 NA
ATOM     20  H   UNL     1       2.935   2.091  21.614  0.00  0.00    +0.000 HD
ATOM     21  H   UNL     1       2.147   2.629  22.935  0.00  0.00    +0.000 HD
ENDBRANCH  18  19
ENDBRANCH  17  18
ENDBRANCH  16  17
ENDBRANCH  15  16
ENDBRANCH  14  15
ENDBRANCH  13  14
ENDBRANCH   4  13
TORSDOF 9
ENDMDL
MODEL 9
REMARK VINA RESULT:      -5.6      1.756      2.658
REMARK  Name = 
REMARK  11 active torsions:
REMARK  status: ('A' for Active; 'I' for Inactive)
REMARK    1  A    between atoms: C_1  and  C_2
REMARK    2  A    between atoms: C_2  and  C_3
REMARK    3  A    between atoms: C_4  and  C_5
REMARK    4  A    between atoms: C_5  and  N_6
REMARK    5  A    between atoms: N_9  and  C_10
REMARK    6  A    between atoms: C_10  and  C_11
REMARK    7  A    between atoms: C_11  and  C_12
REMARK    8  A    between atoms: C_12  and  C_13
REMARK    9  A    between atoms: C_13  and  C_14
REMARK   10  A    between atoms: C_14  and  C_15
REMARK   11  A    between atoms: C_15  and  N_16
REMARK                            x       y       z     vdW  Elec       q    Type
REMARK                         _______ _______ _______ _____ _____    ______ ____
ROOT
ATOM      1  N   UNL     1       5.598   3.502  19.101  0.00  0.00    +0.000 N 
ATOM      2  C   UNL     1       4.784   2.477  19.454  0.00  0.00    +0.000 C 
ATOM      3  N   UNL     1       5.175   1.571  20.294  0.00  0.00    +0.000 NA
ATOM      4  N   UNL     1       3.532   2.365  18.968  0.00  0.00    +0.000 N 
ATOM      5  H   UNL     1       6.572   3.434  19.350  0.00  0.00    +0.000 HD
ATOM      6  H   UNL     1       6.111   1.807  20.620  0.00  0.00    +0.000 HD
ATOM      7  H   UNL     1       3.128   1.476  19.253  0.00  0.00    +0.000 HD
ENDROOT
BRANCH   1   8
ATOM      8  C   UNL     1       5.200   4.705  18.433  0.00  0.00    +0.000 C 
BRANCH   8  12
ATOM      9  C   UNL     1       7.725   7.518  17.642  0.00  0.00    +0.000 C 
ATOM     10  C   UNL     1       6.946   6.244  17.482  0.00  0.00    +0.000 C 
ATOM     11  C   UNL     1       6.935   5.599  16.123  0.00  0.00    +0.000 C 
ATOM     12  C   UNL     1       6.245   5.764  18.530  0.00  0.00    +0.000 C 
ENDBRANCH   8  12
ENDBRANCH   1   8
BRANCH   4  13
ATOM     13  C   UNL     1       3.028   2.891  17.718  0.00  0.00    +0.000 C 
BRANCH  13  14
ATOM     14  C   UNL     1       1.723   3.653  17.853  0.00  0.00    +0.000 C 
BRANCH  14  15
ATOM     15  C   UNL     1       1.914   4.984  18.576  0.00  0.00    +0.000 C 
BRANCH  15  16
ATOM     16  C   UNL     1       1.828   4.781  20.083  0.00  0.00    +0.000 C 
BRANCH  16  17
ATOM     17  C   UNL     1       0.728   3.788  20.437  0.00  0.00    +0.000 C 
BRANCH  17  18
ATOM     18  C   UNL     1       1.243   2.764  21.441  0.00  0.00    +0.000 C 
BRANCH  18  19
ATOM     19  N   UNL     1       2.549   3.168  21.943  0.00  0.00    +0.000 NA
ATOM     20  H   UNL     1       3.133   3.471  21.164  0.00  0.00    +0.000 HD
ATOM     21  H   UNL     1       3.015   2.361  22.352  0.00  0.00    +0.000 HD
ENDBRANCH  18  19
ENDBRANCH  17  18
ENDBRANCH  16  17
ENDBRANCH  15  16
ENDBRANCH  14  15
ENDBRANCH  13  14
ENDBRANCH   4  13
TORSDOF 9
ENDMDL
