MODEL 1
REMARK VINA RESULT:      -6.7      0.000      0.000
REMARK  Name = 
REMARK  11 active torsions:
REMARK  status: ('A' for Active; 'I' for Inactive)
REMARK    1  A    between atoms: C_1  and  C_2
REMARK    2  A    between atoms: C_2  and  C_3
REMARK    3  A    between atoms: C_2  and  C_5
REMARK    4  A    between atoms: C_2  and  N_7
REMARK    5  A    between atoms: C_3  and  O_4
REMARK    6  A    between atoms: C_5  and  O_6
REMARK    7  A    between atoms: N_7  and  C_8
REMARK    8  A    between atoms: C_8  and  C_9
REMARK    9  A    between atoms: C_9  and  O_10
REMARK   10  A    between atoms: C_9  and  C_11
REMARK   11  A    between atoms: C_11  and  N_12
REMARK                            x       y       z     vdW  Elec       q    Type
REMARK                         _______ _______ _______ _____ _____    ______ ____
ROOT
ATOM      1  C   UNL     1       2.938   8.198  18.721  0.00  0.00    +0.000 C 
ENDROOT
BRANCH   1   2
ATOM      2  N   UNL     1       3.112   6.777  18.471  0.00  0.00    +0.000 N 
ATOM      3  C   UNL     1       2.640   5.777  19.301  0.00  0.00    +0.000 A 
ATOM      4  C   UNL     1       1.785   5.829  20.415  0.00  0.00    +0.000 A 
ATOM      5  C   UNL     1       1.539   4.642  21.111  0.00  0.00    +0.000 A 
ATOM      6  C   UNL     1       2.124   3.447  20.702  0.00  0.00    +0.000 A 
ATOM      7 CL   UNL     1       1.837   2.011  21.607  0.00  0.00    +0.000 Cl
ATOM      8  C   UNL     1       2.946   3.396  19.574  0.00  0.00    +0.000 A 
ATOM      9  C   UNL     1       3.205   4.582  18.854  0.00  0.00    +0.000 A 
ATOM     10  C   UNL     1       3.972   4.876  17.683  0.00  0.00    +0.000 A 
ATOM     11  C   UNL     1       4.735   4.086  16.795  0.00  0.00    +0.000 A 
ATOM     12  C   UNL     1       5.381   4.701  15.716  0.00  0.00    +0.000 A 
ATOM     13 CL   UNL     1       6.304   3.738  14.627  0.00  0.00    +0.000 Cl
ATOM     14  C   UNL     1       5.293   6.072  15.515  0.00  0.00    +0.000 A 
ATOM     15  C   UNL     1       4.553   6.873  16.385  0.00  0.00    +0.000 A 
ATOM     16  C   UNL     1       3.895   6.253  17.462  0.00  0.00    +0.000 A 
ENDBRANCH   1   2
BRANCH   1  17
ATOM     17  C   UNL     1       1.667   8.794  18.106  0.00  0.00    +0.000 C 
BRANCH  17  18
ATOM     18  O   UNL     1       1.967   9.738  17.066  0.00  0.00    +0.000 OA
ATOM     19  H   UNL     1       2.403   9.271  16.335  0.00  0.00    +0.000 HD
ENDBRANCH  17  18
BRANCH  17  20
ATOM     20  C   UNL     1       0.893   9.529  19.219  0.00  0.00    +0.000 C 
BRANCH  20  21
ATOM     21  N   UNL     1      -0.023  10.523  18.664  0.00  0.00    +0.000 NA
ATOM     22  H   UNL     1      -0.060  10.462  17.646  0.00  0.00    +0.000 HD
BRANCH  21  24
ATOM     23  C   UNL     1      -0.402  11.898  20.604  0.00  0.00    +0.000 C 
ATOM     24  C   UNL     1       0.152  11.906  19.166  0.00  0.00    +0.000 C 
BRANCH  24  25
ATOM     25  C   UNL     1      -0.634  12.961  18.333  0.00  0.00    +0.000 C 
BRANCH  25  26
ATOM     26  O   UNL     1      -1.527  12.359  17.398  0.00  0.00    +0.000 OA
ATOM     27  H   UNL     1      -1.620  12.974  16.652  0.00  0.00    +0.000 HD
ENDBRANCH  25  26
ENDBRANCH  24  25
BRANCH  24  28
ATOM     28  C   UNL     1       1.654  12.335  19.183  0.00  0.00    +0.000 C 
BRANCH  28  29
ATOM     29  O   UNL     1       2.217  12.511  17.884  0.00  0.00    +0.000 OA
ATOM     30  H   UNL     1       1.861  13.336  17.512  0.00  0.00    +0.000 HD
ENDBRANCH  28  29
ENDBRANCH  24  28
ENDBRANCH  21  24
ENDBRANCH  20  21
ENDBRANCH  17  20
ENDBRANCH   1  17
TORSDOF 10
ENDMDL
MODEL 2
REMARK VINA RESULT:      -6.6      0.853      1.140
REMARK  Name = 
REMARK  11 active torsions:
REMARK  status: ('A' for Active; 'I' for Inactive)
REMARK    1  A    between atoms: C_1  and  C_2
REMARK    2  A    between atoms: C_2  and  C_3
REMARK    3  A    between atoms: C_2  and  C_5
REMARK    4  A    between atoms: C_2  and  N_7
REMARK    5  A    between atoms: C_3  and  O_4
REMARK    6  A    between atoms: C_5  and  O_6
REMARK    7  A    between atoms: N_7  and  C_8
REMARK    8  A    between atoms: C_8  and  C_9
REMARK    9  A    between atoms: C_9  and  O_10
REMARK   10  A    between atoms: C_9  and  C_11
REMARK   11  A    between atoms: C_11  and  N_12
REMARK                            x       y       z     vdW  Elec       q    Type
REMARK                         _______ _______ _______ _____ _____    ______ ____
ROOT
ATOM      1  C   UNL     1       3.109   8.334  18.513  0.00  0.00    +0.000 C 
ENDROOT
BRANCH   1   2
ATOM      2  N   UNL     1       3.219   6.902  18.291  0.00  0.00    +0.000 N 
ATOM      3  C   UNL     1       2.702   5.941  19.138  0.00  0.00    +0.000 A 
ATOM      4  C   UNL     1       1.849   6.052  20.249  0.00  0.00    +0.000 A 
ATOM      5  C   UNL     1       1.549   4.890  20.967  0.00  0.00    +0.000 A 
ATOM      6  C   UNL     1       2.081   3.663  20.583  0.00  0.00    +0.000 A 
ATOM      7 CL   UNL     1       1.728   2.258  21.514  0.00  0.00    +0.000 Cl
ATOM      8  C   UNL     1       2.901   3.554  19.457  0.00  0.00    +0.000 A 
ATOM      9  C   UNL     1       3.214   4.713  18.716  0.00  0.00    +0.000 A 
ATOM     10  C   UNL     1       3.996   4.950  17.542  0.00  0.00    +0.000 A 
ATOM     11  C   UNL     1       4.724   4.110  16.671  0.00  0.00    +0.000 A 
ATOM     12  C   UNL     1       5.400   4.675  15.582  0.00  0.00    +0.000 A 
ATOM     13 CL   UNL     1       6.280   3.651  14.514  0.00  0.00    +0.000 Cl
ATOM     14  C   UNL     1       5.372   6.045  15.354  0.00  0.00    +0.000 A 
ATOM     15  C   UNL     1       4.667   6.894  16.207  0.00  0.00    +0.000 A 
ATOM     16  C   UNL     1       3.980   6.324  17.294  0.00  0.00    +0.000 A 
ENDBRANCH   1   2
BRANCH   1  17
ATOM     17  C   UNL     1       1.776   8.940  18.059  0.00  0.00    +0.000 C 
BRANCH  17  18
ATOM     18  O   UNL     1       1.964   9.996  17.104  0.00  0.00    +0.000 OA
ATOM     19  H   UNL     1       2.776  10.479  17.327  0.00  0.00    +0.000 HD
ENDBRANCH  17  18
BRANCH  17  20
ATOM     20  C   UNL     1       1.067   9.526  19.297  0.00  0.00    +0.000 C 
BRANCH  20  21
ATOM     21  N   UNL     1       0.718  10.931  19.096  0.00  0.00    +0.000 NA
ATOM     22  H   UNL     1       1.367  11.545  19.588  0.00  0.00    +0.000 HD
BRANCH  21  24
ATOM     23  C   UNL     1      -0.933  11.118  20.839  0.00  0.00    +0.000 C 
ATOM     24  C   UNL     1      -0.705  11.274  19.323  0.00  0.00    +0.000 C 
BRANCH  24  25
ATOM     25  C   UNL     1      -1.688  10.329  18.570  0.00  0.00    +0.000 C 
BRANCH  25  26
ATOM     26  O   UNL     1      -2.854  11.010  18.114  0.00  0.00    +0.000 OA
ATOM     27  H   UNL     1      -2.812  11.034  17.144  0.00  0.00    +0.000 HD
ENDBRANCH  25  26
ENDBRANCH  24  25
BRANCH  24  28
ATOM     28  C   UNL     1      -1.029  12.740  18.890  0.00  0.00    +0.000 C 
BRANCH  28  29
ATOM     29  O   UNL     1      -0.925  12.961  17.486  0.00  0.00    +0.000 OA
ATOM     30  H   UNL     1      -1.023  12.104  17.038  0.00  0.00    +0.000 HD
ENDBRANCH  28  29
ENDBRANCH  24  28
ENDBRANCH  21  24
ENDBRANCH  20  21
ENDBRANCH  17  20
ENDBRANCH   1  17
TORSDOF 10
ENDMDL
MODEL 3
REMARK VINA RESULT:      -6.6      1.084      1.341
REMARK  Name = 
REMARK  11 active torsions:
REMARK  status: ('A' for Active; 'I' for Inactive)
REMARK    1  A    between atoms: C_1  and  C_2
REMARK    2  A    between atoms: C_2  and  C_3
REMARK    3  A    between atoms: C_2  and  C_5
REMARK    4  A    between atoms: C_2  and  N_7
REMARK    5  A    between atoms: C_3  and  O_4
REMARK    6  A    between atoms: C_5  and  O_6
REMARK    7  A    between atoms: N_7  and  C_8
REMARK    8  A    between atoms: C_8  and  C_9
REMARK    9  A    between atoms: C_9  and  O_10
REMARK   10  A    between atoms: C_9  and  C_11
REMARK   11  A    between atoms: C_11  and  N_12
REMARK                            x       y       z     vdW  Elec       q    Type
REMARK                         _______ _______ _______ _____ _____    ______ ____
ROOT
ATOM      1  C   UNL     1       3.082   8.281  18.547  0.00  0.00    +0.000 C 
ENDROOT
BRANCH   1   2
ATOM      2  N   UNL     1       3.213   6.853  18.316  0.00  0.00    +0.000 N 
ATOM      3  C   UNL     1       2.717   5.878  19.162  0.00  0.00    +0.000 A 
ATOM      4  C   UNL     1       1.869   5.970  20.279  0.00  0.00    +0.000 A 
ATOM      5  C   UNL     1       1.592   4.800  20.992  0.00  0.00    +0.000 A 
ATOM      6  C   UNL     1       2.141   3.583  20.597  0.00  0.00    +0.000 A 
ATOM      7 CL   UNL     1       1.817   2.168  21.522  0.00  0.00    +0.000 Cl
ATOM      8  C   UNL     1       2.956   3.493  19.466  0.00  0.00    +0.000 A 
ATOM      9  C   UNL     1       3.246   4.661  18.729  0.00  0.00    +0.000 A 
ATOM     10  C   UNL     1       4.016   4.917  17.551  0.00  0.00    +0.000 A 
ATOM     11  C   UNL     1       4.752   4.094  16.671  0.00  0.00    +0.000 A 
ATOM     12  C   UNL     1       5.411   4.675  15.581  0.00  0.00    +0.000 A 
ATOM     13 CL   UNL     1       6.301   3.671  14.502  0.00  0.00    +0.000 Cl
ATOM     14  C   UNL     1       5.361   6.045  15.361  0.00  0.00    +0.000 A 
ATOM     15  C   UNL     1       4.647   6.879  16.223  0.00  0.00    +0.000 A 
ATOM     16  C   UNL     1       3.977   6.292  17.311  0.00  0.00    +0.000 A 
ENDBRANCH   1   2
BRANCH   1  17
ATOM     17  C   UNL     1       1.772   8.884  18.027  0.00  0.00    +0.000 C 
BRANCH  17  18
ATOM     18  O   UNL     1       2.001  10.061  17.237  0.00  0.00    +0.000 OA
ATOM     19  H   UNL     1       2.045  10.831  17.827  0.00  0.00    +0.000 HD
ENDBRANCH  17  18
BRANCH  17  20
ATOM     20  C   UNL     1       0.906   9.276  19.242  0.00  0.00    +0.000 C 
BRANCH  20  21
ATOM     21  N   UNL     1       1.012  10.704  19.534  0.00  0.00    +0.000 NA
ATOM     22  H   UNL     1       1.569  10.867  20.373  0.00  0.00    +0.000 HD
BRANCH  21  24
ATOM     23  C   UNL     1      -1.254  10.576  18.729  0.00  0.00    +0.000 C 
ATOM     24  C   UNL     1      -0.264  11.456  19.517  0.00  0.00    +0.000 C 
BRANCH  24  25
ATOM     25  C   UNL     1      -0.148  12.837  18.807  0.00  0.00    +0.000 C 
BRANCH  25  26
ATOM     26  O   UNL     1       0.944  12.887  17.891  0.00  0.00    +0.000 OA
ATOM     27  H   UNL     1       0.588  12.700  17.008  0.00  0.00    +0.000 HD
ENDBRANCH  25  26
ENDBRANCH  24  25
BRANCH  24  28
ATOM     28  C   UNL     1      -0.814  11.706  20.957  0.00  0.00    +0.000 C 
BRANCH  28  29
ATOM     29  O   UNL     1       0.204  11.861  21.944  0.00  0.00    +0.000 OA
ATOM     30  H   UNL     1       0.499  12.787  21.928  0.00  0.00    +0.000 HD
ENDBRANCH  28  29
ENDBRANCH  24  28
ENDBRANCH  21  24
ENDBRANCH  20  21
ENDBRANCH  17  20
ENDBRANCH   1  17
TORSDOF 10
ENDMDL
MODEL 4
REMARK VINA RESULT:      -6.5      0.375      3.938
REMARK  Name = 
REMARK  11 active torsions:
REMARK  status: ('A' for Active; 'I' for Inactive)
REMARK    1  A    between atoms: C_1  and  C_2
REMARK    2  A    between atoms: C_2  and  C_3
REMARK    3  A    between atoms: C_2  and  C_5
REMARK    4  A    between atoms: C_2  and  N_7
REMARK    5  A    between atoms: C_3  and  O_4
REMARK    6  A    between atoms: C_5  and  O_6
REMARK    7  A    between atoms: N_7  and  C_8
REMARK    8  A    between atoms: C_8  and  C_9
REMARK    9  A    between atoms: C_9  and  O_10
REMARK   10  A    between atoms: C_9  and  C_11
REMARK   11  A    between atoms: C_11  and  N_12
REMARK                            x       y       z     vdW  Elec       q    Type
REMARK                         _______ _______ _______ _____ _____    ______ ____
ROOT
ATOM      1  C   UNL     1       2.952   8.285  18.788  0.00  0.00    +0.000 C 
ENDROOT
BRANCH   1   2
ATOM      2  N   UNL     1       3.284   6.881  18.619  0.00  0.00    +0.000 N 
ATOM      3  C   UNL     1       4.027   6.377  17.568  0.00  0.00    +0.000 A 
ATOM      4  C   UNL     1       4.760   7.027  16.561  0.00  0.00    +0.000 A 
ATOM      5  C   UNL     1       5.362   6.241  15.573  0.00  0.00    +0.000 A 
ATOM      6  C   UNL     1       5.237   4.856  15.598  0.00  0.00    +0.000 A 
ATOM      7 CL   UNL     1       5.952   3.918  14.343  0.00  0.00    +0.000 Cl
ATOM      8  C   UNL     1       4.535   4.213  16.621  0.00  0.00    +0.000 A 
ATOM      9  C   UNL     1       3.923   4.986  17.630  0.00  0.00    +0.000 A 
ATOM     10  C   UNL     1       3.157   4.660  18.793  0.00  0.00    +0.000 A 
ATOM     11  C   UNL     1       2.750   3.443  19.382  0.00  0.00    +0.000 A 
ATOM     12  C   UNL     1       1.985   3.471  20.554  0.00  0.00    +0.000 A 
ATOM     13 CL   UNL     1       1.496   1.987  21.276  0.00  0.00    +0.000 Cl
ATOM     14  C   UNL     1       1.612   4.675  21.137  0.00  0.00    +0.000 A 
ATOM     15  C   UNL     1       1.995   5.890  20.568  0.00  0.00    +0.000 A 
ATOM     16  C   UNL     1       2.773   5.860  19.397  0.00  0.00    +0.000 A 
ENDBRANCH   1   2
BRANCH   1  17
ATOM     17  C   UNL     1       1.686   8.727  18.045  0.00  0.00    +0.000 C 
BRANCH  17  18
ATOM     18  O   UNL     1       1.985   9.610  16.953  0.00  0.00    +0.000 OA
ATOM     19  H   UNL     1       1.405  10.386  17.009  0.00  0.00    +0.000 HD
ENDBRANCH  17  18
BRANCH  17  20
ATOM     20  C   UNL     1       0.781   9.478  19.042  0.00  0.00    +0.000 C 
BRANCH  20  21
ATOM     21  N   UNL     1       0.214  10.685  18.444  0.00  0.00    +0.000 NA
ATOM     22  H   UNL     1       0.404  10.722  17.442  0.00  0.00    +0.000 HD
BRANCH  21  24
ATOM     23  C   UNL     1       0.399  11.628  20.651  0.00  0.00    +0.000 C 
ATOM     24  C   UNL     1       0.517  11.951  19.149  0.00  0.00    +0.000 C 
BRANCH  24  25
ATOM     25  C   UNL     1      -0.483  13.095  18.804  0.00  0.00    +0.000 C 
BRANCH  25  26
ATOM     26  O   UNL     1      -0.950  13.021  17.459  0.00  0.00    +0.000 OA
ATOM     27  H   UNL     1      -1.810  12.570  17.477  0.00  0.00    +0.000 HD
ENDBRANCH  25  26
ENDBRANCH  24  25
BRANCH  24  28
ATOM     28  C   UNL     1       1.957  12.467  18.832  0.00  0.00    +0.000 C 
BRANCH  28  29
ATOM     29  O   UNL     1       2.268  12.489  17.441  0.00  0.00    +0.000 OA
ATOM     30  H   UNL     1       1.832  13.265  17.048  0.00  0.00    +0.000 HD
ENDBRANCH  28  29
ENDBRANCH  24  28
ENDBRANCH  21  24
ENDBRANCH  20  21
ENDBRANCH  17  20
ENDBRANCH   1  17
TORSDOF 10
ENDMDL
MODEL 5
REMARK VINA RESULT:      -6.5      1.534      1.814
REMARK  Name = 
REMARK  11 active torsions:
REMARK  status: ('A' for Active; 'I' for Inactive)
REMARK    1  A    between atoms: C_1  and  C_2
REMARK    2  A    between atoms: C_2  and  C_3
REMARK    3  A    between atoms: C_2  and  C_5
REMARK    4  A    between atoms: C_2  and  N_7
REMARK    5  A    between atoms: C_3  and  O_4
REMARK    6  A    between atoms: C_5  and  O_6
REMARK    7  A    between atoms: N_7  and  C_8
REMARK    8  A    between atoms: C_8  and  C_9
REMARK    9  A    between atoms: C_9  and  O_10
REMARK   10  A    between atoms: C_9  and  C_11
REMARK   11  A    between atoms: C_11  and  N_12
REMARK                            x       y       z     vdW  Elec       q    Type
REMARK                         _______ _______ _______ _____ _____    ______ ____
ROOT
ATOM      1  C   UNL     1       3.148   8.291  18.439  0.00  0.00    +0.000 C 
ENDROOT
BRANCH   1   2
ATOM      2  N   UNL     1       3.273   6.859  18.230  0.00  0.00    +0.000 N 
ATOM      3  C   UNL     1       2.778   5.900  19.094  0.00  0.00    +0.000 A 
ATOM      4  C   UNL     1       1.939   6.012  20.215  0.00  0.00    +0.000 A 
ATOM      5  C   UNL     1       1.662   4.855  20.949  0.00  0.00    +0.000 A 
ATOM      6  C   UNL     1       2.204   3.631  20.570  0.00  0.00    +0.000 A 
ATOM      7 CL   UNL     1       1.880   2.231  21.519  0.00  0.00    +0.000 Cl
ATOM      8  C   UNL     1       3.010   3.519  19.435  0.00  0.00    +0.000 A 
ATOM      9  C   UNL     1       3.299   4.674  18.677  0.00  0.00    +0.000 A 
ATOM     10  C   UNL     1       4.063   4.908  17.490  0.00  0.00    +0.000 A 
ATOM     11  C   UNL     1       4.789   4.068  16.618  0.00  0.00    +0.000 A 
ATOM     12  C   UNL     1       5.442   4.630  15.514  0.00  0.00    +0.000 A 
ATOM     13 CL   UNL     1       6.321   3.605  14.445  0.00  0.00    +0.000 Cl
ATOM     14  C   UNL     1       5.396   5.996  15.273  0.00  0.00    +0.000 A 
ATOM     15  C   UNL     1       4.692   6.846  16.126  0.00  0.00    +0.000 A 
ATOM     16  C   UNL     1       4.027   6.280  17.229  0.00  0.00    +0.000 A 
ENDBRANCH   1   2
BRANCH   1  17
ATOM     17  C   UNL     1       1.769   8.861  18.089  0.00  0.00    +0.000 C 
BRANCH  17  18
ATOM     18  O   UNL     1       1.865  10.012  17.236  0.00  0.00    +0.000 OA
ATOM     19  H   UNL     1       2.408  10.685  17.677  0.00  0.00    +0.000 HD
ENDBRANCH  17  18
BRANCH  17  20
ATOM     20  C   UNL     1       1.076   9.285  19.400  0.00  0.00    +0.000 C 
BRANCH  20  21
ATOM     21  N   UNL     1       0.382  10.562  19.248  0.00  0.00    +0.000 NA
ATOM     22  H   UNL     1       0.785  11.111  18.487  0.00  0.00    +0.000 HD
BRANCH  21  24
ATOM     23  C   UNL     1      -1.246  11.898  20.414  0.00  0.00    +0.000 C 
ATOM     24  C   UNL     1       0.187  11.336  20.495  0.00  0.00    +0.000 C 
BRANCH  24  25
ATOM     25  C   UNL     1       1.183  12.526  20.636  0.00  0.00    +0.000 C 
BRANCH  25  26
ATOM     26  O   UNL     1       0.907  13.332  21.780  0.00  0.00    +0.000 OA
ATOM     27  H   UNL     1       1.594  14.017  21.821  0.00  0.00    +0.000 HD
ENDBRANCH  25  26
ENDBRANCH  24  25
BRANCH  24  28
ATOM     28  C   UNL     1       0.330  10.442  21.767  0.00  0.00    +0.000 C 
BRANCH  28  29
ATOM     29  O   UNL     1      -0.269  11.001  22.934  0.00  0.00    +0.000 OA
ATOM     30  H   UNL     1      -0.027  11.942  22.975  0.00  0.00    +0.000 HD
ENDBRANCH  28  29
ENDBRANCH  24  28
ENDBRANCH  21  24
ENDBRANCH  20  21
ENDBRANCH  17  20
ENDBRANCH   1  17
TORSDOF 10
ENDMDL
MODEL 6
REMARK VINA RESULT:      -6.4      1.089      4.105
REMARK  Name = 
REMARK  11 active torsions:
REMARK  status: ('A' for Active; 'I' for Inactive)
REMARK    1  A    between atoms: C_1  and  C_2
REMARK    2  A    between atoms: C_2  and  C_3
REMARK    3  A    between atoms: C_2  and  C_5
REMARK    4  A    between atoms: C_2  and  N_7
REMARK    5  A    between atoms: C_3  and  O_4
REMARK    6  A    between atoms: C_5  and  O_6
REMARK    7  A    between atoms: N_7  and  C_8
REMARK    8  A    between atoms: C_8  and  C_9
REMARK    9  A    between atoms: C_9  and  O_10
REMARK   10  A    between atoms: C_9  and  C_11
REMARK   11  A    between atoms: C_11  and  N_12
REMARK                            x       y       z     vdW  Elec       q    Type
REMARK                         _______ _______ _______ _____ _____    ______ ____
ROOT
ATOM      1  C   UNL     1       3.115   8.426  18.480  0.00  0.00    +0.000 C 
ENDROOT
BRANCH   1   2
ATOM      2  N   UNL     1       3.380   7.001  18.379  0.00  0.00    +0.000 N 
ATOM      3  C   UNL     1       4.113   6.415  17.364  0.00  0.00    +0.000 A 
ATOM      4  C   UNL     1       4.889   6.983  16.340  0.00  0.00    +0.000 A 
ATOM      5  C   UNL     1       5.465   6.124  15.398  0.00  0.00    +0.000 A 
ATOM      6  C   UNL     1       5.273   4.749  15.484  0.00  0.00    +0.000 A 
ATOM      7 CL   UNL     1       5.959   3.722  14.284  0.00  0.00    +0.000 Cl
ATOM      8  C   UNL     1       4.528   4.188  16.524  0.00  0.00    +0.000 A 
ATOM      9  C   UNL     1       3.941   5.035  17.487  0.00  0.00    +0.000 A 
ATOM     10  C   UNL     1       3.144   4.800  18.652  0.00  0.00    +0.000 A 
ATOM     11  C   UNL     1       2.671   3.631  19.288  0.00  0.00    +0.000 A 
ATOM     12  C   UNL     1       1.893   3.750  20.446  0.00  0.00    +0.000 A 
ATOM     13 CL   UNL     1       1.323   2.326  21.227  0.00  0.00    +0.000 Cl
ATOM     14  C   UNL     1       1.571   4.996  20.968  0.00  0.00    +0.000 A 
ATOM     15  C   UNL     1       2.020   6.164  20.351  0.00  0.00    +0.000 A 
ATOM     16  C   UNL     1       2.811   6.043  19.194  0.00  0.00    +0.000 A 
ENDBRANCH   1   2
BRANCH   1  17
ATOM     17  C   UNL     1       1.719   8.842  18.003  0.00  0.00    +0.000 C 
BRANCH  17  18
ATOM     18  O   UNL     1       1.776   9.905  17.039  0.00  0.00    +0.000 OA
ATOM     19  H   UNL     1       0.883  10.267  16.919  0.00  0.00    +0.000 HD
ENDBRANCH  17  18
BRANCH  17  20
ATOM     20  C   UNL     1       0.920   9.337  19.225  0.00  0.00    +0.000 C 
BRANCH  20  21
ATOM     21  N   UNL     1       1.103  10.772  19.436  0.00  0.00    +0.000 NA
ATOM     22  H   UNL     1       1.745  10.951  20.208  0.00  0.00    +0.000 HD
BRANCH  21  24
ATOM     23  C   UNL     1      -1.277  10.608  19.105  0.00  0.00    +0.000 C 
ATOM     24  C   UNL     1      -0.142  11.572  19.506  0.00  0.00    +0.000 C 
BRANCH  24  25
ATOM     25  C   UNL     1      -0.144  12.782  18.525  0.00  0.00    +0.000 C 
BRANCH  25  26
ATOM     26  O   UNL     1      -1.145  12.660  17.516  0.00  0.00    +0.000 OA
ATOM     27  H   UNL     1      -1.706  13.450  17.571  0.00  0.00    +0.000 HD
ENDBRANCH  25  26
ENDBRANCH  24  25
BRANCH  24  28
ATOM     28  C   UNL     1      -0.403  12.124  20.943  0.00  0.00    +0.000 C 
BRANCH  28  29
ATOM     29  O   UNL     1       0.297  11.418  21.966  0.00  0.00    +0.000 OA
ATOM     30  H   UNL     1       1.196  11.784  22.023  0.00  0.00    +0.000 HD
ENDBRANCH  28  29
ENDBRANCH  24  28
ENDBRANCH  21  24
ENDBRANCH  20  21
ENDBRANCH  17  20
ENDBRANCH   1  17
TORSDOF 10
ENDMDL
MODEL 7
REMARK VINA RESULT:      -6.4      0.821      4.069
REMARK  Name = 
REMARK  11 active torsions:
REMARK  status: ('A' for Active; 'I' for Inactive)
REMARK    1  A    between atoms: C_1  and  C_2
REMARK    2  A    between atoms: C_2  and  C_3
REMARK    3  A    between atoms: C_2  and  C_5
REMARK    4  A    between atoms: C_2  and  N_7
REMARK    5  A    between atoms: C_3  and  O_4
REMARK    6  A    between atoms: C_5  and  O_6
REMARK    7  A    between atoms: N_7  and  C_8
REMARK    8  A    between atoms: C_8  and  C_9
REMARK    9  A    between atoms: C_9  and  O_10
REMARK   10  A    between atoms: C_9  and  C_11
REMARK   11  A    between atoms: C_11  and  N_12
REMARK                            x       y       z     vdW  Elec       q    Type
REMARK                         _______ _______ _______ _____ _____    ______ ____
ROOT
ATOM      1  C   UNL     1       3.200   8.362  18.428  0.00  0.00    +0.000 C 
ENDROOT
BRANCH   1   2
ATOM      2  N   UNL     1       3.451   6.935  18.330  0.00  0.00    +0.000 N 
ATOM      3  C   UNL     1       4.177   6.340  17.316  0.00  0.00    +0.000 A 
ATOM      4  C   UNL     1       4.958   6.897  16.289  0.00  0.00    +0.000 A 
ATOM      5  C   UNL     1       5.525   6.032  15.349  0.00  0.00    +0.000 A 
ATOM      6  C   UNL     1       5.320   4.658  15.438  0.00  0.00    +0.000 A 
ATOM      7 CL   UNL     1       5.995   3.622  14.240  0.00  0.00    +0.000 Cl
ATOM      8  C   UNL     1       4.571   4.107  16.481  0.00  0.00    +0.000 A 
ATOM      9  C   UNL     1       3.993   4.962  17.442  0.00  0.00    +0.000 A 
ATOM     10  C   UNL     1       3.195   4.736  18.609  0.00  0.00    +0.000 A 
ATOM     11  C   UNL     1       2.713   3.574  19.249  0.00  0.00    +0.000 A 
ATOM     12  C   UNL     1       1.937   3.703  20.407  0.00  0.00    +0.000 A 
ATOM     13 CL   UNL     1       1.355   2.286  21.193  0.00  0.00    +0.000 Cl
ATOM     14  C   UNL     1       1.627   4.953  20.926  0.00  0.00    +0.000 A 
ATOM     15  C   UNL     1       2.085   6.115  20.306  0.00  0.00    +0.000 A 
ATOM     16  C   UNL     1       2.874   5.984  19.149  0.00  0.00    +0.000 A 
ENDBRANCH   1   2
BRANCH   1  17
ATOM     17  C   UNL     1       1.827   8.796  17.901  0.00  0.00    +0.000 C 
BRANCH  17  18
ATOM     18  O   UNL     1       1.917   9.959  17.063  0.00  0.00    +0.000 OA
ATOM     19  H   UNL     1       1.495   9.765  16.211  0.00  0.00    +0.000 HD
ENDBRANCH  17  18
BRANCH  17  20
ATOM     20  C   UNL     1       0.933   9.139  19.111  0.00  0.00    +0.000 C 
BRANCH  20  21
ATOM     21  N   UNL     1       0.954  10.570  19.401  0.00  0.00    +0.000 NA
ATOM     22  H   UNL     1       1.386  10.755  20.307  0.00  0.00    +0.000 HD
BRANCH  21  24
ATOM     23  C   UNL     1      -0.944  11.428  20.609  0.00  0.00    +0.000 C 
ATOM     24  C   UNL     1      -0.329  11.282  19.203  0.00  0.00    +0.000 C 
BRANCH  24  25
ATOM     25  C   UNL     1      -1.328  10.499  18.300  0.00  0.00    +0.000 C 
BRANCH  25  26
ATOM     26  O   UNL     1      -2.684  10.858  18.553  0.00  0.00    +0.000 OA
ATOM     27  H   UNL     1      -2.975  11.419  17.816  0.00  0.00    +0.000 HD
ENDBRANCH  25  26
ENDBRANCH  24  25
BRANCH  24  28
ATOM     28  C   UNL     1      -0.122  12.695  18.570  0.00  0.00    +0.000 C 
BRANCH  28  29
ATOM     29  O   UNL     1      -1.023  12.986  17.504  0.00  0.00    +0.000 OA
ATOM     30  H   UNL     1      -1.488  12.164  17.271  0.00  0.00    +0.000 HD
ENDBRANCH  28  29
ENDBRANCH  24  28
ENDBRANCH  21  24
ENDBRANCH  20  21
ENDBRANCH  17  20
ENDBRANCH   1  17
TORSDOF 10
ENDMDL
MODEL 8
REMARK VINA RESULT:      -6.3      0.970      1.523
REMARK  Name = 
REMARK  11 active torsions:
REMARK  status: ('A' for Active; 'I' for Inactive)
REMARK    1  A    between atoms: C_1  and  C_2
REMARK    2  A    between atoms: C_2  and  C_3
REMARK    3  A    between atoms: C_2  and  C_5
REMARK    4  A    between atoms: C_2  and  N_7
REMARK    5  A    between atoms: C_3  and  O_4
REMARK    6  A    between atoms: C_5  and  O_6
REMARK    7  A    between atoms: N_7  and  C_8
REMARK    8  A    between atoms: C_8  and  C_9
REMARK    9  A    between atoms: C_9  and  O_10
REMARK   10  A    between atoms: C_9  and  C_11
REMARK   11  A    between atoms: C_11  and  N_12
REMARK                            x       y       z     vdW  Elec       q    Type
REMARK                         _______ _______ _______ _____ _____    ______ ____
ROOT
ATOM      1  C   UNL     1       2.819   8.406  18.713  0.00  0.00    +0.000 C 
ENDROOT
BRANCH   1   2
ATOM      2  N   UNL     1       3.028   6.988  18.476  0.00  0.00    +0.000 N 
ATOM      3  C   UNL     1       2.559   5.983  19.301  0.00  0.00    +0.000 A 
ATOM      4  C   UNL     1       1.678   6.023  20.395  0.00  0.00    +0.000 A 
ATOM      5  C   UNL     1       1.442   4.834  21.092  0.00  0.00    +0.000 A 
ATOM      6  C   UNL     1       2.061   3.650  20.704  0.00  0.00    +0.000 A 
ATOM      7 CL   UNL     1       1.784   2.213  21.610  0.00  0.00    +0.000 Cl
ATOM      8  C   UNL     1       2.909   3.611  19.594  0.00  0.00    +0.000 A 
ATOM      9  C   UNL     1       3.159   4.797  18.874  0.00  0.00    +0.000 A 
ATOM     10  C   UNL     1       3.947   5.102  17.719  0.00  0.00    +0.000 A 
ATOM     11  C   UNL     1       4.746   4.324  16.853  0.00  0.00    +0.000 A 
ATOM     12  C   UNL     1       5.403   4.947  15.785  0.00  0.00    +0.000 A 
ATOM     13 CL   UNL     1       6.371   3.998  14.723  0.00  0.00    +0.000 Cl
ATOM     14  C   UNL     1       5.290   6.315  15.573  0.00  0.00    +0.000 A 
ATOM     15  C   UNL     1       4.514   7.104  16.422  0.00  0.00    +0.000 A 
ATOM     16  C   UNL     1       3.845   6.476  17.488  0.00  0.00    +0.000 A 
ENDBRANCH   1   2
BRANCH   1  17
ATOM     17  C   UNL     1       1.629   9.003  17.952  0.00  0.00    +0.000 C 
BRANCH  17  18
ATOM     18  O   UNL     1       2.022  10.112  17.129  0.00  0.00    +0.000 OA
ATOM     19  H   UNL     1       1.547  10.906  17.424  0.00  0.00    +0.000 HD
ENDBRANCH  17  18
BRANCH  17  20
ATOM     20  C   UNL     1       0.600   9.505  18.984  0.00  0.00    +0.000 C 
BRANCH  20  21
ATOM     21  N   UNL     1       1.067  10.714  19.659  0.00  0.00    +0.000 NA
ATOM     22  H   UNL     1       1.332  10.517  20.625  0.00  0.00    +0.000 HD
BRANCH  21  24
ATOM     23  C   UNL     1       1.099  13.013  18.943  0.00  0.00    +0.000 C 
ATOM     24  C   UNL     1       0.196  11.903  19.518  0.00  0.00    +0.000 C 
BRANCH  24  25
ATOM     25  C   UNL     1      -0.394  12.392  20.874  0.00  0.00    +0.000 C 
BRANCH  25  26
ATOM     26  O   UNL     1       0.613  12.879  21.759  0.00  0.00    +0.000 OA
ATOM     27  H   UNL     1       0.194  13.539  22.335  0.00  0.00    +0.000 HD
ENDBRANCH  25  26
ENDBRANCH  24  25
BRANCH  24  28
ATOM     28  C   UNL     1      -0.998  11.641  18.546  0.00  0.00    +0.000 C 
BRANCH  28  29
ATOM     29  O   UNL     1      -1.210  12.686  17.599  0.00  0.00    +0.000 OA
ATOM     30  H   UNL     1      -0.469  12.674  16.969  0.00  0.00    +0.000 HD
ENDBRANCH  28  29
ENDBRANCH  24  28
ENDBRANCH  21  24
ENDBRANCH  20  21
ENDBRANCH  17  20
ENDBRANCH   1  17
TORSDOF 10
ENDMDL
MODEL 9
REMARK VINA RESULT:      -6.3      1.335      4.087
REMARK  Name = 
REMARK  11 active torsions:
REMARK  status: ('A' for Active; 'I' for Inactive)
REMARK    1  A    between atoms: C_1  and  C_2
REMARK    2  A    between atoms: C_2  and  C_3
REMARK    3  A    between atoms: C_2  and  C_5
REMARK    4  A    between atoms: C_2  and  N_7
REMARK    5  A    between atoms: C_3  and  O_4
REMARK    6  A    between atoms: C_5  and  O_6
REMARK    7  A    between atoms: N_7  and  C_8
REMARK    8  A    between atoms: C_8  and  C_9
REMARK    9  A    between atoms: C_9  and  O_10
REMARK   10  A    between atoms: C_9  and  C_11
REMARK   11  A    between atoms: C_11  and  N_12
REMARK                            x       y       z     vdW  Elec       q    Type
REMARK                         _______ _______ _______ _____ _____    ______ ____
ROOT
ATOM      1  C   UNL     1       2.860   7.605  19.081  0.00  0.00    +0.000 C 
ENDROOT
BRANCH   1   2
ATOM      2  N   UNL     1       3.188   6.295  18.545  0.00  0.00    +0.000 N 
ATOM      3  C   UNL     1       4.148   6.067  17.577  0.00  0.00    +0.000 A 
ATOM      4  C   UNL     1       5.114   6.919  17.017  0.00  0.00    +0.000 A 
ATOM      5  C   UNL     1       5.914   6.419  15.985  0.00  0.00    +0.000 A 
ATOM      6  C   UNL     1       5.753   5.112  15.535  0.00  0.00    +0.000 A 
ATOM      7 CL   UNL     1       6.723   4.540  14.233  0.00  0.00    +0.000 Cl
ATOM      8  C   UNL     1       4.813   4.260  16.119  0.00  0.00    +0.000 A 
ATOM      9  C   UNL     1       3.998   4.742  17.164  0.00  0.00    +0.000 A 
ATOM     10  C   UNL     1       2.970   4.152  17.965  0.00  0.00    +0.000 A 
ATOM     11  C   UNL     1       2.405   2.859  18.027  0.00  0.00    +0.000 A 
ATOM     12  C   UNL     1       1.384   2.602  18.950  0.00  0.00    +0.000 A 
ATOM     13 CL   UNL     1       0.702   1.024  19.032  0.00  0.00    +0.000 Cl
ATOM     14  C   UNL     1       0.913   3.600  19.793  0.00  0.00    +0.000 A 
ATOM     15  C   UNL     1       1.450   4.886  19.743  0.00  0.00    +0.000 A 
ATOM     16  C   UNL     1       2.483   5.141  18.823  0.00  0.00    +0.000 A 
ENDBRANCH   1   2
BRANCH   1  17
ATOM     17  C   UNL     1       1.806   8.370  18.273  0.00  0.00    +0.000 C 
BRANCH  17  18
ATOM     18  O   UNL     1       2.386   9.070  17.162  0.00  0.00    +0.000 OA
ATOM     19  H   UNL     1       2.885   9.832  17.497  0.00  0.00    +0.000 HD
ENDBRANCH  17  18
BRANCH  17  20
ATOM     20  C   UNL     1       1.141   9.403  19.204  0.00  0.00    +0.000 C 
BRANCH  20  21
ATOM     21  N   UNL     1       0.669  10.567  18.458  0.00  0.00    +0.000 NA
ATOM     22  H   UNL     1       1.394  11.282  18.394  0.00  0.00    +0.000 HD
BRANCH  21  24
ATOM     23  C   UNL     1      -0.722  10.890  20.398  0.00  0.00    +0.000 C 
ATOM     24  C   UNL     1      -0.650  11.101  18.873  0.00  0.00    +0.000 C 
BRANCH  24  25
ATOM     25  C   UNL     1      -1.845  10.355  18.208  0.00  0.00    +0.000 C 
BRANCH  25  26
ATOM     26  O   UNL     1      -1.572   9.988  16.857  0.00  0.00    +0.000 OA
ATOM     27  H   UNL     1      -1.897   9.082  16.734  0.00  0.00    +0.000 HD
ENDBRANCH  25  26
ENDBRANCH  24  25
BRANCH  24  28
ATOM     28  C   UNL     1      -0.795  12.621  18.544  0.00  0.00    +0.000 C 
BRANCH  28  29
ATOM     29  O   UNL     1      -1.107  12.887  17.179  0.00  0.00    +0.000 OA
ATOM     30  H   UNL     1      -0.973  13.838  17.020  0.00  0.00    +0.000 HD
ENDBRANCH  28  29
ENDBRANCH  24  28
ENDBRANCH  21  24
ENDBRANCH  20  21
ENDBRANCH  17  20
ENDBRANCH   1  17
TORSDOF 10
ENDMDL
