MODEL 1
REMARK VINA RESULT:      -7.7      0.000      0.000
REMARK  Name = 
REMARK  8 active torsions:
REMARK  status: ('A' for Active; 'I' for Inactive)
REMARK    1  A    between atoms: C_1  and  C_2
REMARK    2  A    between atoms: C_7  and  C_8
REMARK    3  A    between atoms: N_10  and  C_11
REMARK    4  A    between atoms: C_11  and  C_12
REMARK    5  A    between atoms: C_11  and  C_13
REMARK    6  A    between atoms: N_16  and  C_17
REMARK    7  A    between atoms: C_22  and  C_23
REMARK    8  A    between atoms: C_24  and  C_25
REMARK                            x       y       z     vdW  Elec       q    Type
REMARK                         _______ _______ _______ _____ _____    ______ ____
ROOT
ATOM      1  C   UNL     1       0.868   9.450  20.722  0.00  0.00    +0.000 C 
ATOM      2  C   UNL     1       0.561   9.507  22.222  0.00  0.00    +0.000 C 
ENDROOT
BRANCH   1   3
ATOM      3  C   UNL     1       1.486   8.129  20.360  0.00  0.00    +0.000 A 
ATOM      4  C   UNL     1       1.421   6.966  21.158  0.00  0.00    +0.000 A 
ATOM      5  N   UNL     1       1.956   5.899  20.574  0.00  0.00    +0.000 NA
ATOM      6  N   UNL     1       2.508   6.369  19.429  0.00  0.00    +0.000 N 
ATOM      7  C   UNL     1       2.117   7.690  19.199  0.00  0.00    +0.000 A 
ATOM      8  C   UNL     1       2.295   8.396  17.903  0.00  0.00    +0.000 C 
BRANCH   6   9
ATOM      9  C   UNL     1       3.388   5.546  18.658  0.00  0.00    +0.000 A 
ATOM     10  C   UNL     1       4.777   5.730  18.803  0.00  0.00    +0.000 A 
ATOM     11  C   UNL     1       5.684   4.946  18.090  0.00  0.00    +0.000 A 
ATOM     12  C   UNL     1       5.220   3.951  17.242  0.00  0.00    +0.000 A 
ATOM     13  C   UNL     1       3.849   3.742  17.100  0.00  0.00    +0.000 A 
ATOM     14  C   UNL     1       2.912   4.534  17.792  0.00  0.00    +0.000 A 
ATOM     15  C   UNL     1       1.451   4.276  17.528  0.00  0.00    +0.000 C 
ENDBRANCH   6   9
ENDBRANCH   1   3
BRANCH   1  18
ATOM     16  C   UNL     1      -0.468  10.636  18.977  0.00  0.00    +0.000 C 
ATOM     17  O   UNL     1       0.488  11.341  18.668  0.00  0.00    +0.000 OA
ATOM     18  N   UNL     1      -0.356   9.687  19.968  0.00  0.00    +0.000 N 
ATOM     19  H   UNL     1      -1.138   9.127  20.241  0.00  0.00    +0.000 HD
BRANCH  16  26
ATOM     20  C   UNL     1      -2.990  12.461  19.904  0.00  0.00    +0.000 C 
ATOM     21  C   UNL     1      -2.900  11.620  18.666  0.00  0.00    +0.000 A 
ATOM     22  C   UNL     1      -4.036  11.648  17.825  0.00  0.00    +0.000 A 
ATOM     23  C   UNL     1      -4.050  10.909  16.652  0.00  0.00    +0.000 A 
ATOM     24  N   UNL     1      -3.019  10.150  16.257  0.00  0.00    +0.000 NA
ATOM     25  C   UNL     1      -1.928  10.133  17.070  0.00  0.00    +0.000 A 
ATOM     26  C   UNL     1      -1.794  10.835  18.278  0.00  0.00    +0.000 A 
ENDBRANCH  16  26
ENDBRANCH   1  18
TORSDOF 4
ENDMDL
MODEL 2
REMARK VINA RESULT:      -7.6      5.755      8.617
REMARK  Name = 
REMARK  8 active torsions:
REMARK  status: ('A' for Active; 'I' for Inactive)
REMARK    1  A    between atoms: C_1  and  C_2
REMARK    2  A    between atoms: C_7  and  C_8
REMARK    3  A    between atoms: N_10  and  C_11
REMARK    4  A    between atoms: C_11  and  C_12
REMARK    5  A    between atoms: C_11  and  C_13
REMARK    6  A    between atoms: N_16  and  C_17
REMARK    7  A    between atoms: C_22  and  C_23
REMARK    8  A    between atoms: C_24  and  C_25
REMARK                            x       y       z     vdW  Elec       q    Type
REMARK                         _______ _______ _______ _____ _____    ______ ____
ROOT
ATOM      1  C   UNL     1       7.357   6.544  17.292  0.00  0.00    +0.000 C 
ATOM      2  C   UNL     1       7.240   8.065  17.426  0.00  0.00    +0.000 C 
ENDROOT
BRANCH   1   3
ATOM      3  C   UNL     1       6.380   5.858  18.207  0.00  0.00    +0.000 A 
ATOM      4  C   UNL     1       6.727   5.219  19.418  0.00  0.00    +0.000 A 
ATOM      5  N   UNL     1       5.674   4.777  20.096  0.00  0.00    +0.000 NA
ATOM      6  N   UNL     1       4.615   4.997  19.279  0.00  0.00    +0.000 N 
ATOM      7  C   UNL     1       4.991   5.782  18.187  0.00  0.00    +0.000 A 
ATOM      8  C   UNL     1       4.027   6.449  17.272  0.00  0.00    +0.000 C 
BRANCH   6   9
ATOM      9  C   UNL     1       3.338   4.423  19.576  0.00  0.00    +0.000 A 
ATOM     10  C   UNL     1       2.467   5.131  20.425  0.00  0.00    +0.000 A 
ATOM     11  C   UNL     1       1.203   4.631  20.737  0.00  0.00    +0.000 A 
ATOM     12  C   UNL     1       0.780   3.429  20.186  0.00  0.00    +0.000 A 
ATOM     13  C   UNL     1       1.622   2.723  19.328  0.00  0.00    +0.000 A 
ATOM     14  C   UNL     1       2.912   3.197  19.014  0.00  0.00    +0.000 A 
ATOM     15  C   UNL     1       3.774   2.336  18.128  0.00  0.00    +0.000 C 
ENDBRANCH   6   9
ENDBRANCH   1   3
BRANCH   1  18
ATOM     16  C   UNL     1       7.311   4.879  15.432  0.00  0.00    +0.000 C 
ATOM     17  O   UNL     1       7.655   3.971  16.183  0.00  0.00    +0.000 OA
ATOM     18  N   UNL     1       7.140   6.161  15.904  0.00  0.00    +0.000 N 
ATOM     19  H   UNL     1       6.884   6.909  15.291  0.00  0.00    +0.000 HD
BRANCH  16  26
ATOM     20  C   UNL     1       8.955   6.042  12.884  0.00  0.00    +0.000 C 
ATOM     21  C   UNL     1       7.802   5.084  12.844  0.00  0.00    +0.000 A 
ATOM     22  C   UNL     1       7.414   4.647  11.557  0.00  0.00    +0.000 A 
ATOM     23  C   UNL     1       6.361   3.757  11.413  0.00  0.00    +0.000 A 
ATOM     24  N   UNL     1       5.672   3.270  12.454  0.00  0.00    +0.000 NA
ATOM     25  C   UNL     1       6.055   3.692  13.689  0.00  0.00    +0.000 A 
ATOM     26  C   UNL     1       7.100   4.587  13.964  0.00  0.00    +0.000 A 
ENDBRANCH  16  26
ENDBRANCH   1  18
TORSDOF 4
ENDMDL
MODEL 3
REMARK VINA RESULT:      -7.4      5.282      8.630
REMARK  Name = 
REMARK  8 active torsions:
REMARK  status: ('A' for Active; 'I' for Inactive)
REMARK    1  A    between atoms: C_1  and  C_2
REMARK    2  A    between atoms: C_7  and  C_8
REMARK    3  A    between atoms: N_10  and  C_11
REMARK    4  A    between atoms: C_11  and  C_12
REMARK    5  A    between atoms: C_11  and  C_13
REMARK    6  A    between atoms: N_16  and  C_17
REMARK    7  A    between atoms: C_22  and  C_23
REMARK    8  A    between atoms: C_24  and  C_25
REMARK                            x       y       z     vdW  Elec       q    Type
REMARK                         _______ _______ _______ _____ _____    ______ ____
ROOT
ATOM      1  C   UNL     1       7.361   6.561  17.297  0.00  0.00    +0.000 C 
ATOM      2  C   UNL     1       7.256   8.084  17.413  0.00  0.00    +0.000 C 
ENDROOT
BRANCH   1   3
ATOM      3  C   UNL     1       6.393   5.892  18.233  0.00  0.00    +0.000 A 
ATOM      4  C   UNL     1       6.736   5.349  19.490  0.00  0.00    +0.000 A 
ATOM      5  N   UNL     1       5.686   4.906  20.173  0.00  0.00    +0.000 NA
ATOM      6  N   UNL     1       4.639   5.025  19.320  0.00  0.00    +0.000 N 
ATOM      7  C   UNL     1       5.008   5.753  18.186  0.00  0.00    +0.000 A 
ATOM      8  C   UNL     1       4.041   6.316  17.208  0.00  0.00    +0.000 C 
BRANCH   6   9
ATOM      9  C   UNL     1       3.382   4.415  19.625  0.00  0.00    +0.000 A 
ATOM     10  C   UNL     1       3.256   3.022  19.461  0.00  0.00    +0.000 A 
ATOM     11  C   UNL     1       2.060   2.368  19.758  0.00  0.00    +0.000 A 
ATOM     12  C   UNL     1       0.981   3.091  20.248  0.00  0.00    +0.000 A 
ATOM     13  C   UNL     1       1.094   4.468  20.435  0.00  0.00    +0.000 A 
ATOM     14  C   UNL     1       2.284   5.155  20.122  0.00  0.00    +0.000 A 
ATOM     15  C   UNL     1       2.292   6.651  20.298  0.00  0.00    +0.000 C 
ENDBRANCH   6   9
ENDBRANCH   1   3
BRANCH   1  18
ATOM     16  C   UNL     1       7.305   4.879  15.452  0.00  0.00    +0.000 C 
ATOM     17  O   UNL     1       7.677   3.983  16.203  0.00  0.00    +0.000 OA
ATOM     18  N   UNL     1       7.123   6.163  15.916  0.00  0.00    +0.000 N 
ATOM     19  H   UNL     1       6.844   6.901  15.303  0.00  0.00    +0.000 HD
BRANCH  16  26
ATOM     20  C   UNL     1       8.908   6.012  12.865  0.00  0.00    +0.000 C 
ATOM     21  C   UNL     1       7.753   5.055  12.854  0.00  0.00    +0.000 A 
ATOM     22  C   UNL     1       7.344   4.605  11.578  0.00  0.00    +0.000 A 
ATOM     23  C   UNL     1       6.289   3.714  11.461  0.00  0.00    +0.000 A 
ATOM     24  N   UNL     1       5.616   3.239  12.518  0.00  0.00    +0.000 NA
ATOM     25  C   UNL     1       6.020   3.674  13.743  0.00  0.00    +0.000 A 
ATOM     26  C   UNL     1       7.070   4.571  13.990  0.00  0.00    +0.000 A 
ENDBRANCH  16  26
ENDBRANCH   1  18
TORSDOF 4
ENDMDL
MODEL 4
REMARK VINA RESULT:      -7.3      1.172      1.644
REMARK  Name = 
REMARK  8 active torsions:
REMARK  status: ('A' for Active; 'I' for Inactive)
REMARK    1  A    between atoms: C_1  and  C_2
REMARK    2  A    between atoms: C_7  and  C_8
REMARK    3  A    between atoms: N_10  and  C_11
REMARK    4  A    between atoms: C_11  and  C_12
REMARK    5  A    between atoms: C_11  and  C_13
REMARK    6  A    between atoms: N_16  and  C_17
REMARK    7  A    between atoms: C_22  and  C_23
REMARK    8  A    between atoms: C_24  and  C_25
REMARK                            x       y       z     vdW  Elec       q    Type
REMARK                         _______ _______ _______ _____ _____    ______ ____
ROOT
ATOM      1  C   UNL     1       0.628   9.911  20.714  0.00  0.00    +0.000 C 
ATOM      2  C   UNL     1       0.438   9.862  22.233  0.00  0.00    +0.000 C 
ENDROOT
BRANCH   1   3
ATOM      3  C   UNL     1       1.308   8.661  20.227  0.00  0.00    +0.000 A 
ATOM      4  C   UNL     1       1.466   7.484  20.990  0.00  0.00    +0.000 A 
ATOM      5  N   UNL     1       2.008   6.484  20.303  0.00  0.00    +0.000 NA
ATOM      6  N   UNL     1       2.344   7.025  19.106  0.00  0.00    +0.000 N 
ATOM      7  C   UNL     1       1.802   8.306  18.975  0.00  0.00    +0.000 A 
ATOM      8  C   UNL     1       1.726   9.049  17.690  0.00  0.00    +0.000 C 
BRANCH   6   9
ATOM      9  C   UNL     1       3.176   6.304  18.193  0.00  0.00    +0.000 A 
ATOM     10  C   UNL     1       4.351   6.924  17.725  0.00  0.00    +0.000 A 
ATOM     11  C   UNL     1       5.211   6.265  16.847  0.00  0.00    +0.000 A 
ATOM     12  C   UNL     1       4.924   4.969  16.441  0.00  0.00    +0.000 A 
ATOM     13  C   UNL     1       3.774   4.333  16.908  0.00  0.00    +0.000 A 
ATOM     14  C   UNL     1       2.879   4.984  17.779  0.00  0.00    +0.000 A 
ATOM     15  C   UNL     1       1.632   4.241  18.182  0.00  0.00    +0.000 C 
ENDBRANCH   6   9
ENDBRANCH   1   3
BRANCH   1  18
ATOM     16  C   UNL     1      -0.969  11.171  19.266  0.00  0.00    +0.000 C 
ATOM     17  O   UNL     1      -0.136  12.044  19.039  0.00  0.00    +0.000 OA
ATOM     18  N   UNL     1      -0.666  10.095  20.070  0.00  0.00    +0.000 N 
ATOM     19  H   UNL     1      -1.348   9.395  20.278  0.00  0.00    +0.000 HD
BRANCH  16  26
ATOM     20  C   UNL     1      -2.124   9.849  16.534  0.00  0.00    +0.000 C 
ATOM     21  C   UNL     1      -2.873  10.731  17.488  0.00  0.00    +0.000 A 
ATOM     22  C   UNL     1      -4.220  10.992  17.151  0.00  0.00    +0.000 A 
ATOM     23  C   UNL     1      -5.000  11.792  17.971  0.00  0.00    +0.000 A 
ATOM     24  N   UNL     1      -4.538  12.346  19.100  0.00  0.00    +0.000 NA
ATOM     25  C   UNL     1      -3.241  12.086  19.420  0.00  0.00    +0.000 A 
ATOM     26  C   UNL     1      -2.354  11.296  18.673  0.00  0.00    +0.000 A 
ENDBRANCH  16  26
ENDBRANCH   1  18
TORSDOF 4
ENDMDL
MODEL 5
REMARK VINA RESULT:      -7.1      2.434      8.184
REMARK  Name = 
REMARK  8 active torsions:
REMARK  status: ('A' for Active; 'I' for Inactive)
REMARK    1  A    between atoms: C_1  and  C_2
REMARK    2  A    between atoms: C_7  and  C_8
REMARK    3  A    between atoms: N_10  and  C_11
REMARK    4  A    between atoms: C_11  and  C_12
REMARK    5  A    between atoms: C_11  and  C_13
REMARK    6  A    between atoms: N_16  and  C_17
REMARK    7  A    between atoms: C_22  and  C_23
REMARK    8  A    between atoms: C_24  and  C_25
REMARK                            x       y       z     vdW  Elec       q    Type
REMARK                         _______ _______ _______ _____ _____    ______ ____
ROOT
ATOM      1  C   UNL     1       1.883   6.199  19.697  0.00  0.00    +0.000 C 
ATOM      2  C   UNL     1       1.566   5.358  20.937  0.00  0.00    +0.000 C 
ENDROOT
BRANCH   1   3
ATOM      3  C   UNL     1       1.547   7.644  19.939  0.00  0.00    +0.000 A 
ATOM      4  C   UNL     1       1.258   8.200  21.205  0.00  0.00    +0.000 A 
ATOM      5  N   UNL     1       1.094   9.518  21.173  0.00  0.00    +0.000 NA
ATOM      6  N   UNL     1       1.137   9.843  19.858  0.00  0.00    +0.000 N 
ATOM      7  C   UNL     1       1.554   8.750  19.094  0.00  0.00    +0.000 A 
ATOM      8  C   UNL     1       1.992   8.845  17.676  0.00  0.00    +0.000 C 
BRANCH   6   9
ATOM      9  C   UNL     1       0.751  11.149  19.420  0.00  0.00    +0.000 A 
ATOM     10  C   UNL     1       1.660  12.210  19.595  0.00  0.00    +0.000 A 
ATOM     11  C   UNL     1       1.348  13.502  19.173  0.00  0.00    +0.000 A 
ATOM     12  C   UNL     1       0.134  13.750  18.548  0.00  0.00    +0.000 A 
ATOM     13  C   UNL     1      -0.771  12.708  18.349  0.00  0.00    +0.000 A 
ATOM     14  C   UNL     1      -0.488  11.398  18.785  0.00  0.00    +0.000 A 
ATOM     15  C   UNL     1      -1.552  10.351  18.583  0.00  0.00    +0.000 C 
ENDBRANCH   6   9
ENDBRANCH   1   3
BRANCH   1  18
ATOM     16  C   UNL     1       3.738   5.105  18.433  0.00  0.00    +0.000 C 
ATOM     17  O   UNL     1       2.956   4.360  17.851  0.00  0.00    +0.000 OA
ATOM     18  N   UNL     1       3.287   6.033  19.345  0.00  0.00    +0.000 N 
ATOM     19  H   UNL     1       3.922   6.626  19.840  0.00  0.00    +0.000 HD
BRANCH  16  26
ATOM     20  C   UNL     1       5.229   4.344  15.650  0.00  0.00    +0.000 C 
ATOM     21  C   UNL     1       5.886   4.651  16.963  0.00  0.00    +0.000 A 
ATOM     22  C   UNL     1       7.299   4.609  16.965  0.00  0.00    +0.000 A 
ATOM     23  C   UNL     1       8.001   4.883  18.128  0.00  0.00    +0.000 A 
ATOM     24  N   UNL     1       7.401   5.197  19.284  0.00  0.00    +0.000 NA
ATOM     25  C   UNL     1       6.040   5.239  19.272  0.00  0.00    +0.000 A 
ATOM     26  C   UNL     1       5.221   4.982  18.163  0.00  0.00    +0.000 A 
ENDBRANCH  16  26
ENDBRANCH   1  18
TORSDOF 4
ENDMDL
MODEL 6
REMARK VINA RESULT:      -6.9      0.957      2.066
REMARK  Name = 
REMARK  8 active torsions:
REMARK  status: ('A' for Active; 'I' for Inactive)
REMARK    1  A    between atoms: C_1  and  C_2
REMARK    2  A    between atoms: C_7  and  C_8
REMARK    3  A    between atoms: N_10  and  C_11
REMARK    4  A    between atoms: C_11  and  C_12
REMARK    5  A    between atoms: C_11  and  C_13
REMARK    6  A    between atoms: N_16  and  C_17
REMARK    7  A    between atoms: C_22  and  C_23
REMARK    8  A    between atoms: C_24  and  C_25
REMARK                            x       y       z     vdW  Elec       q    Type
REMARK                         _______ _______ _______ _____ _____    ______ ____
ROOT
ATOM      1  C   UNL     1       1.049   9.690  19.694  0.00  0.00    +0.000 C 
ATOM      2  C   UNL     1       0.908   9.458  21.202  0.00  0.00    +0.000 C 
ENDROOT
BRANCH   1   3
ATOM      3  C   UNL     1       1.772   8.541  19.049  0.00  0.00    +0.000 A 
ATOM      4  C   UNL     1       2.521   8.631  17.856  0.00  0.00    +0.000 A 
ATOM      5  N   UNL     1       3.150   7.503  17.545  0.00  0.00    +0.000 NA
ATOM      6  N   UNL     1       2.717   6.600  18.459  0.00  0.00    +0.000 N 
ATOM      7  C   UNL     1       1.993   7.233  19.472  0.00  0.00    +0.000 A 
ATOM      8  C   UNL     1       1.638   6.592  20.765  0.00  0.00    +0.000 C 
BRANCH   6   9
ATOM      9  C   UNL     1       2.994   5.207  18.289  0.00  0.00    +0.000 A 
ATOM     10  C   UNL     1       1.995   4.389  17.726  0.00  0.00    +0.000 A 
ATOM     11  C   UNL     1       2.212   3.027  17.520  0.00  0.00    +0.000 A 
ATOM     12  C   UNL     1       3.439   2.465  17.849  0.00  0.00    +0.000 A 
ATOM     13  C   UNL     1       4.446   3.263  18.390  0.00  0.00    +0.000 A 
ATOM     14  C   UNL     1       4.244   4.637  18.627  0.00  0.00    +0.000 A 
ATOM     15  C   UNL     1       5.368   5.406  19.272  0.00  0.00    +0.000 C 
ENDBRANCH   6   9
ENDBRANCH   1   3
BRANCH   1  18
ATOM     16  C   UNL     1      -0.703  11.075  18.576  0.00  0.00    +0.000 C 
ATOM     17  O   UNL     1       0.029  12.060  18.561  0.00  0.00    +0.000 OA
ATOM     18  N   UNL     1      -0.272   9.881  19.108  0.00  0.00    +0.000 N 
ATOM     19  H   UNL     1      -0.872   9.082  19.146  0.00  0.00    +0.000 HD
BRANCH  16  26
ATOM     20  C   UNL     1      -3.311  12.434  19.953  0.00  0.00    +0.000 C 
ATOM     21  C   UNL     1      -3.252  11.770  18.610  0.00  0.00    +0.000 A 
ATOM     22  C   UNL     1      -4.462  11.753  17.881  0.00  0.00    +0.000 A 
ATOM     23  C   UNL     1      -4.511  11.168  16.625  0.00  0.00    +0.000 A 
ATOM     24  N   UNL     1      -3.444  10.601  16.045  0.00  0.00    +0.000 NA
ATOM     25  C   UNL     1      -2.281  10.625  16.752  0.00  0.00    +0.000 A 
ATOM     26  C   UNL     1      -2.107  11.186  18.026  0.00  0.00    +0.000 A 
ENDBRANCH  16  26
ENDBRANCH   1  18
TORSDOF 4
ENDMDL
MODEL 7
REMARK VINA RESULT:      -6.9      1.289      2.485
REMARK  Name = 
REMARK  8 active torsions:
REMARK  status: ('A' for Active; 'I' for Inactive)
REMARK    1  A    between atoms: C_1  and  C_2
REMARK    2  A    between atoms: C_7  and  C_8
REMARK    3  A    between atoms: N_10  and  C_11
REMARK    4  A    between atoms: C_11  and  C_12
REMARK    5  A    between atoms: C_11  and  C_13
REMARK    6  A    between atoms: N_16  and  C_17
REMARK    7  A    between atoms: C_22  and  C_23
REMARK    8  A    between atoms: C_24  and  C_25
REMARK                            x       y       z     vdW  Elec       q    Type
REMARK                         _______ _______ _______ _____ _____    ______ ____
ROOT
ATOM      1  C   UNL     1       0.917   9.815  20.114  0.00  0.00    +0.000 C 
ATOM      2  C   UNL     1       0.924   9.378  21.581  0.00  0.00    +0.000 C 
ENDROOT
BRANCH   1   3
ATOM      3  C   UNL     1       1.599   8.787  19.254  0.00  0.00    +0.000 A 
ATOM      4  C   UNL     1       2.114   9.034  17.962  0.00  0.00    +0.000 A 
ATOM      5  N   UNL     1       2.761   7.994  17.449  0.00  0.00    +0.000 NA
ATOM      6  N   UNL     1       2.569   6.990  18.339  0.00  0.00    +0.000 N 
ATOM      7  C   UNL     1       1.991   7.477  19.513  0.00  0.00    +0.000 A 
ATOM      8  C   UNL     1       1.923   6.712  20.786  0.00  0.00    +0.000 C 
BRANCH   6   9
ATOM      9  C   UNL     1       2.916   5.644  18.000  0.00  0.00    +0.000 A 
ATOM     10  C   UNL     1       1.879   4.708  17.826  0.00  0.00    +0.000 A 
ATOM     11  C   UNL     1       2.154   3.386  17.479  0.00  0.00    +0.000 A 
ATOM     12  C   UNL     1       3.467   2.984  17.276  0.00  0.00    +0.000 A 
ATOM     13  C   UNL     1       4.506   3.901  17.426  0.00  0.00    +0.000 A 
ATOM     14  C   UNL     1       4.256   5.238  17.796  0.00  0.00    +0.000 A 
ATOM     15  C   UNL     1       5.445   6.141  17.995  0.00  0.00    +0.000 C 
ENDBRANCH   6   9
ENDBRANCH   1   3
BRANCH   1  18
ATOM     16  C   UNL     1      -0.858  11.145  18.966  0.00  0.00    +0.000 C 
ATOM     17  O   UNL     1      -0.053  12.013  18.640  0.00  0.00    +0.000 OA
ATOM     18  N   UNL     1      -0.456  10.039  19.682  0.00  0.00    +0.000 N 
ATOM     19  H   UNL     1      -1.112   9.342  19.971  0.00  0.00    +0.000 HD
BRANCH  16  26
ATOM     20  C   UNL     1      -2.456   9.886  16.434  0.00  0.00    +0.000 C 
ATOM     21  C   UNL     1      -3.025  10.772  17.502  0.00  0.00    +0.000 A 
ATOM     22  C   UNL     1      -4.402  11.069  17.381  0.00  0.00    +0.000 A 
ATOM     23  C   UNL     1      -5.025  11.875  18.320  0.00  0.00    +0.000 A 
ATOM     24  N   UNL     1      -4.379  12.404  19.369  0.00  0.00    +0.000 NA
ATOM     25  C   UNL     1      -3.055  12.110  19.480  0.00  0.00    +0.000 A 
ATOM     26  C   UNL     1      -2.315  11.309  18.597  0.00  0.00    +0.000 A 
ENDBRANCH  16  26
ENDBRANCH   1  18
TORSDOF 4
ENDMDL
MODEL 8
REMARK VINA RESULT:      -6.8      2.532      7.958
REMARK  Name = 
REMARK  8 active torsions:
REMARK  status: ('A' for Active; 'I' for Inactive)
REMARK    1  A    between atoms: C_1  and  C_2
REMARK    2  A    between atoms: C_7  and  C_8
REMARK    3  A    between atoms: N_10  and  C_11
REMARK    4  A    between atoms: C_11  and  C_12
REMARK    5  A    between atoms: C_11  and  C_13
REMARK    6  A    between atoms: N_16  and  C_17
REMARK    7  A    between atoms: C_22  and  C_23
REMARK    8  A    between atoms: C_24  and  C_25
REMARK                            x       y       z     vdW  Elec       q    Type
REMARK                         _______ _______ _______ _____ _____    ______ ____
ROOT
ATOM      1  C   UNL     1       2.051   6.025  19.685  0.00  0.00    +0.000 C 
ATOM      2  C   UNL     1       2.204   5.291  21.021  0.00  0.00    +0.000 C 
ENDROOT
BRANCH   1   3
ATOM      3  C   UNL     1       1.663   7.460  19.914  0.00  0.00    +0.000 A 
ATOM      4  C   UNL     1       1.305   8.006  21.166  0.00  0.00    +0.000 A 
ATOM      5  N   UNL     1       1.104   9.318  21.127  0.00  0.00    +0.000 NA
ATOM      6  N   UNL     1       1.193   9.646  19.814  0.00  0.00    +0.000 N 
ATOM      7  C   UNL     1       1.673   8.566  19.069  0.00  0.00    +0.000 A 
ATOM      8  C   UNL     1       2.167   8.675  17.671  0.00  0.00    +0.000 C 
BRANCH   6   9
ATOM      9  C   UNL     1       0.788  10.940  19.360  0.00  0.00    +0.000 A 
ATOM     10  C   UNL     1       1.698  12.008  19.483  0.00  0.00    +0.000 A 
ATOM     11  C   UNL     1       1.367  13.290  19.043  0.00  0.00    +0.000 A 
ATOM     12  C   UNL     1       0.133  13.519  18.451  0.00  0.00    +0.000 A 
ATOM     13  C   UNL     1      -0.774  12.470  18.304  0.00  0.00    +0.000 A 
ATOM     14  C   UNL     1      -0.471  11.172  18.760  0.00  0.00    +0.000 A 
ATOM     15  C   UNL     1      -1.537  10.116  18.615  0.00  0.00    +0.000 C 
ENDBRANCH   6   9
ENDBRANCH   1   3
BRANCH   1  18
ATOM     16  C   UNL     1       3.618   4.850  18.137  0.00  0.00    +0.000 C 
ATOM     17  O   UNL     1       2.849   3.902  18.013  0.00  0.00    +0.000 OA
ATOM     18  N   UNL     1       3.294   5.926  18.933  0.00  0.00    +0.000 N 
ATOM     19  H   UNL     1       3.928   6.689  19.057  0.00  0.00    +0.000 HD
BRANCH  16  26
ATOM     20  C   UNL     1       6.573   5.413  19.360  0.00  0.00    +0.000 C 
ATOM     21  C   UNL     1       6.244   5.064  17.939  0.00  0.00    +0.000 A 
ATOM     22  C   UNL     1       7.348   4.965  17.062  0.00  0.00    +0.000 A 
ATOM     23  C   UNL     1       7.149   4.642  15.729  0.00  0.00    +0.000 A 
ATOM     24  N   UNL     1       5.937   4.409  15.209  0.00  0.00    +0.000 NA
ATOM     25  C   UNL     1       4.880   4.502  16.061  0.00  0.00    +0.000 A 
ATOM     26  C   UNL     1       4.952   4.820  17.426  0.00  0.00    +0.000 A 
ENDBRANCH  16  26
ENDBRANCH   1  18
TORSDOF 4
ENDMDL
MODEL 9
REMARK VINA RESULT:      -6.8      0.613      1.479
REMARK  Name = 
REMARK  8 active torsions:
REMARK  status: ('A' for Active; 'I' for Inactive)
REMARK    1  A    between atoms: C_1  and  C_2
REMARK    2  A    between atoms: C_7  and  C_8
REMARK    3  A    between atoms: N_10  and  C_11
REMARK    4  A    between atoms: C_11  and  C_12
REMARK    5  A    between atoms: C_11  and  C_13
REMARK    6  A    between atoms: N_16  and  C_17
REMARK    7  A    between atoms: C_22  and  C_23
REMARK    8  A    between atoms: C_24  and  C_25
REMARK                            x       y       z     vdW  Elec       q    Type
REMARK                         _______ _______ _______ _____ _____    ______ ____
ROOT
ATOM      1  C   UNL     1       1.225   9.236  20.730  0.00  0.00    +0.000 C 
ATOM      2  C   UNL     1       1.171   9.377  22.254  0.00  0.00    +0.000 C 
ENDROOT
BRANCH   1   3
ATOM      3  C   UNL     1       1.631   7.841  20.343  0.00  0.00    +0.000 A 
ATOM      4  C   UNL     1       1.480   6.704  21.166  0.00  0.00    +0.000 A 
ATOM      5  N   UNL     1       1.818   5.571  20.560  0.00  0.00    +0.000 NA
ATOM      6  N   UNL     1       2.329   5.954  19.365  0.00  0.00    +0.000 N 
ATOM      7  C   UNL     1       2.098   7.313  19.143  0.00  0.00    +0.000 A 
ATOM      8  C   UNL     1       2.258   7.979  17.823  0.00  0.00    +0.000 C 
BRANCH   6   9
ATOM      9  C   UNL     1       3.024   5.015  18.539  0.00  0.00    +0.000 A 
ATOM     10  C   UNL     1       2.267   4.147  17.729  0.00  0.00    +0.000 A 
ATOM     11  C   UNL     1       2.889   3.221  16.889  0.00  0.00    +0.000 A 
ATOM     12  C   UNL     1       4.274   3.166  16.828  0.00  0.00    +0.000 A 
ATOM     13  C   UNL     1       5.040   4.031  17.609  0.00  0.00    +0.000 A 
ATOM     14  C   UNL     1       4.436   4.960  18.480  0.00  0.00    +0.000 A 
ATOM     15  C   UNL     1       5.344   5.809  19.331  0.00  0.00    +0.000 C 
ENDBRANCH   6   9
ENDBRANCH   1   3
BRANCH   1  18
ATOM     16  C   UNL     1      -0.233  10.476  19.126  0.00  0.00    +0.000 C 
ATOM     17  O   UNL     1       0.735  11.024  18.607  0.00  0.00    +0.000 OA
ATOM     18  N   UNL     1      -0.071   9.587  20.165  0.00  0.00    +0.000 N 
ATOM     19  H   UNL     1      -0.858   9.157  20.608  0.00  0.00    +0.000 HD
BRANCH  16  26
ATOM     20  C   UNL     1      -2.299  12.713  20.258  0.00  0.00    +0.000 C 
ATOM     21  C   UNL     1      -2.536  11.772  19.114  0.00  0.00    +0.000 A 
ATOM     22  C   UNL     1      -3.788  11.895  18.470  0.00  0.00    +0.000 A 
ATOM     23  C   UNL     1      -4.102  11.074  17.398  0.00  0.00    +0.000 A 
ATOM     24  N   UNL     1      -3.262  10.146  16.921  0.00  0.00    +0.000 NA
ATOM     25  C   UNL     1      -2.057  10.037  17.544  0.00  0.00    +0.000 A 
ATOM     26  C   UNL     1      -1.624  10.807  18.635  0.00  0.00    +0.000 A 
ENDBRANCH  16  26
ENDBRANCH   1  18
TORSDOF 4
ENDMDL
