MODEL 1
REMARK VINA RESULT:      -8.0      0.000      0.000
REMARK  Name = 
REMARK  7 active torsions:
REMARK  status: ('A' for Active; 'I' for Inactive)
REMARK    1  A    between atoms: C_1  and  C_2
REMARK    2  A    between atoms: C_2  and  C_3
REMARK    3  A    between atoms: C_2  and  C_10
REMARK    4  A    between atoms: C_3  and  C_4
REMARK    5  A    between atoms: N_8  and  C_9
REMARK    6  A    between atoms: C_12  and  C_13
REMARK    7  A    between atoms: C_27  and  C_28
REMARK                            x       y       z     vdW  Elec       q    Type
REMARK                         _______ _______ _______ _____ _____    ______ ____
ROOT
ATOM      1  C   UNL     1      -0.892  11.474  19.228  0.00  0.00    +0.000 A 
ATOM      2  C   UNL     1      -0.092  12.581  18.936  0.00  0.00    +0.000 A 
ATOM      3  C   UNL     1       1.254  12.418  18.613  0.00  0.00    +0.000 A 
ATOM      4  N   UNL     1       1.828  11.191  18.564  0.00  0.00    +0.000 NA
ATOM      5  C   UNL     1       1.083  10.121  18.926  0.00  0.00    +0.000 A 
ATOM      6  N   UNL     1       1.706   8.871  18.935  0.00  0.00    +0.000 N 
ATOM      7  C   UNL     1       2.722   8.544  17.960  0.00  0.00    +0.000 C 
ATOM      8  C   UNL     1       3.156   7.177  18.384  0.00  0.00    +0.000 A 
ATOM      9  C   UNL     1       2.462   6.803  19.538  0.00  0.00    +0.000 A 
ATOM     10  C   UNL     1       2.693   5.614  20.202  0.00  0.00    +0.000 A 
ATOM     11  C   UNL     1       3.639   4.748  19.655  0.00  0.00    +0.000 A 
ATOM     12  C   UNL     1       4.318   5.088  18.470  0.00  0.00    +0.000 A 
ATOM     13  C   UNL     1       4.086   6.313  17.811  0.00  0.00    +0.000 A 
ATOM     14  C   UNL     1       1.515   7.878  19.878  0.00  0.00    +0.000 C 
ATOM     15  O   UNL     1       0.777   7.845  20.846  0.00  0.00    +0.000 OA
ATOM     16  C   UNL     1      -0.264  10.225  19.251  0.00  0.00    +0.000 A 
ENDROOT
BRANCH   3  17
ATOM     17  C   UNL     1       2.159  13.600  18.322  0.00  0.00    +0.000 C 
ATOM     18  C   UNL     1       3.346  13.679  19.269  0.00  0.00    +0.000 C 
ATOM     19  C   UNL     1       2.842  14.539  20.411  0.00  0.00    +0.000 C 
ATOM     20  O   UNL     1       1.779  15.355  19.898  0.00  0.00    +0.000 OA
ATOM     21  C   UNL     1       1.512  14.962  18.539  0.00  0.00    +0.000 C 
ENDBRANCH   3  17
BRANCH  13  22
ATOM     22  C   UNL     1       4.825   6.636  16.540  0.00  0.00    +0.000 C 
ATOM     23  F   UNL     1       5.194   5.539  15.823  0.00  0.00    +0.000 F 
ATOM     24  F   UNL     1       4.089   7.405  15.692  0.00  0.00    +0.000 F 
ATOM     25  F   UNL     1       5.976   7.328  16.772  0.00  0.00    +0.000 F 
ENDBRANCH  13  22
BRANCH   1  27
ATOM     26  C   UNL     1      -3.245  11.502  18.214  0.00  0.00    +0.000 C 
ATOM     27  C   UNL     1      -2.394  11.591  19.497  0.00  0.00    +0.000 C 
BRANCH  27  28
ATOM     28  C   UNL     1      -2.675  12.889  20.287  0.00  0.00    +0.000 C 
BRANCH  28  29
ATOM     29  C   UNL     1      -3.296  12.667  21.622  0.00  0.00    +0.000 A 
ATOM     30  N   UNL     1      -4.580  12.553  21.901  0.00  0.00    +0.000 NA
ATOM     31  N   UNL     1      -4.713  12.441  23.264  0.00  0.00    +0.000 NA
ATOM     32  C   UNL     1      -3.509  12.448  23.783  0.00  0.00    +0.000 A 
ATOM     33  N   UNL     1      -2.588  12.547  22.788  0.00  0.00    +0.000 N 
ATOM     34  C   UNL     1      -1.160  12.506  22.938  0.00  0.00    +0.000 C 
ENDBRANCH  28  29
ENDBRANCH  27  28
ENDBRANCH   1  27
TORSDOF 5
ENDMDL
MODEL 2
REMARK VINA RESULT:      -7.8      2.131      3.243
REMARK  Name = 
REMARK  7 active torsions:
REMARK  status: ('A' for Active; 'I' for Inactive)
REMARK    1  A    between atoms: C_1  and  C_2
REMARK    2  A    between atoms: C_2  and  C_3
REMARK    3  A    between atoms: C_2  and  C_10
REMARK    4  A    between atoms: C_3  and  C_4
REMARK    5  A    between atoms: N_8  and  C_9
REMARK    6  A    between atoms: C_12  and  C_13
REMARK    7  A    between atoms: C_27  and  C_28
REMARK                            x       y       z     vdW  Elec       q    Type
REMARK                         _______ _______ _______ _____ _____    ______ ____
ROOT
ATOM      1  C   UNL     1      -0.576  11.785  18.812  0.00  0.00    +0.000 A 
ATOM      2  C   UNL     1       0.313  12.840  18.597  0.00  0.00    +0.000 A 
ATOM      3  C   UNL     1       1.669  12.596  18.394  0.00  0.00    +0.000 A 
ATOM      4  N   UNL     1       2.170  11.336  18.390  0.00  0.00    +0.000 NA
ATOM      5  C   UNL     1       1.332  10.314  18.681  0.00  0.00    +0.000 A 
ATOM      6  N   UNL     1       1.875   9.028  18.739  0.00  0.00    +0.000 N 
ATOM      7  C   UNL     1       2.952   8.638  17.857  0.00  0.00    +0.000 C 
ATOM      8  C   UNL     1       3.263   7.248  18.312  0.00  0.00    +0.000 A 
ATOM      9  C   UNL     1       2.447   6.919  19.399  0.00  0.00    +0.000 A 
ATOM     10  C   UNL     1       2.546   5.718  20.075  0.00  0.00    +0.000 A 
ATOM     11  C   UNL     1       3.482   4.795  19.610  0.00  0.00    +0.000 A 
ATOM     12  C   UNL     1       4.284   5.092  18.491  0.00  0.00    +0.000 A 
ATOM     13  C   UNL     1       4.186   6.328  17.819  0.00  0.00    +0.000 A 
ATOM     14  C   UNL     1       1.541   8.049  19.658  0.00  0.00    +0.000 C 
ATOM     15  O   UNL     1       0.720   8.062  20.556  0.00  0.00    +0.000 OA
ATOM     16  C   UNL     1      -0.030  10.499  18.885  0.00  0.00    +0.000 A 
ENDROOT
BRANCH   3  17
ATOM     17  C   UNL     1       2.666  13.720  18.189  0.00  0.00    +0.000 C 
ATOM     18  C   UNL     1       3.640  13.861  19.348  0.00  0.00    +0.000 C 
ATOM     19  C   UNL     1       2.956  14.840  20.280  0.00  0.00    +0.000 C 
ATOM     20  O   UNL     1       2.056  15.629  19.488  0.00  0.00    +0.000 OA
ATOM     21  C   UNL     1       2.051  15.113  18.144  0.00  0.00    +0.000 C 
ENDBRANCH   3  17
BRANCH  13  22
ATOM     22  C   UNL     1       5.053   6.605  16.621  0.00  0.00    +0.000 C 
ATOM     23  F   UNL     1       6.121   7.406  16.887  0.00  0.00    +0.000 F 
ATOM     24  F   UNL     1       5.567   5.467  16.077  0.00  0.00    +0.000 F 
ATOM     25  F   UNL     1       4.369   7.224  15.618  0.00  0.00    +0.000 F 
ENDBRANCH  13  22
BRANCH   1  27
ATOM     26  C   UNL     1      -2.504  12.474  20.353  0.00  0.00    +0.000 C 
ATOM     27  C   UNL     1      -2.086  11.993  18.948  0.00  0.00    +0.000 C 
BRANCH  27  28
ATOM     28  C   UNL     1      -2.823  10.699  18.539  0.00  0.00    +0.000 C 
BRANCH  28  29
ATOM     29  C   UNL     1      -3.041  10.560  17.072  0.00  0.00    +0.000 A 
ATOM     30  N   UNL     1      -2.300   9.890  16.210  0.00  0.00    +0.000 NA
ATOM     31  N   UNL     1      -2.815  10.097  14.953  0.00  0.00    +0.000 NA
ATOM     32  C   UNL     1      -3.879  10.853  15.079  0.00  0.00    +0.000 A 
ATOM     33  N   UNL     1      -4.082  11.134  16.393  0.00  0.00    +0.000 N 
ATOM     34  C   UNL     1      -5.186  11.866  16.949  0.00  0.00    +0.000 C 
ENDBRANCH  28  29
ENDBRANCH  27  28
ENDBRANCH   1  27
TORSDOF 5
ENDMDL
MODEL 3
REMARK VINA RESULT:      -7.7      2.737      4.351
REMARK  Name = 
REMARK  7 active torsions:
REMARK  status: ('A' for Active; 'I' for Inactive)
REMARK    1  A    between atoms: C_1  and  C_2
REMARK    2  A    between atoms: C_2  and  C_3
REMARK    3  A    between atoms: C_2  and  C_10
REMARK    4  A    between atoms: C_3  and  C_4
REMARK    5  A    between atoms: N_8  and  C_9
REMARK    6  A    between atoms: C_12  and  C_13
REMARK    7  A    between atoms: C_27  and  C_28
REMARK                            x       y       z     vdW  Elec       q    Type
REMARK                         _______ _______ _______ _____ _____    ______ ____
ROOT
ATOM      1  C   UNL     1      -2.618  13.695  23.131  0.00  0.00    +0.000 A 
ATOM      2  C   UNL     1      -2.008  14.868  22.682  0.00  0.00    +0.000 A 
ATOM      3  C   UNL     1      -0.899  14.816  21.842  0.00  0.00    +0.000 A 
ATOM      4  N   UNL     1      -0.379  13.635  21.427  0.00  0.00    +0.000 NA
ATOM      5  C   UNL     1      -0.909  12.493  21.922  0.00  0.00    +0.000 A 
ATOM      6  N   UNL     1      -0.322  11.285  21.538  0.00  0.00    +0.000 N 
ATOM      7  C   UNL     1       0.229  11.119  20.212  0.00  0.00    +0.000 C 
ATOM      8  C   UNL     1       0.809   9.742  20.267  0.00  0.00    +0.000 A 
ATOM      9  C   UNL     1       0.631   9.211  21.548  0.00  0.00    +0.000 A 
ATOM     10  C   UNL     1       1.117   7.973  21.922  0.00  0.00    +0.000 A 
ATOM     11  C   UNL     1       1.777   7.223  20.950  0.00  0.00    +0.000 A 
ATOM     12  C   UNL     1       1.930   7.723  19.643  0.00  0.00    +0.000 A 
ATOM     13  C   UNL     1       1.445   8.995  19.277  0.00  0.00    +0.000 A 
ATOM     14  C   UNL     1      -0.115  10.189  22.356  0.00  0.00    +0.000 C 
ATOM     15  O   UNL     1      -0.410  10.014  23.524  0.00  0.00    +0.000 OA
ATOM     16  C   UNL     1      -2.020  12.487  22.758  0.00  0.00    +0.000 A 
ENDROOT
BRANCH   3  17
ATOM     17  C   UNL     1      -0.194  16.070  21.362  0.00  0.00    +0.000 C 
ATOM     18  C   UNL     1      -1.158  17.204  21.052  0.00  0.00    +0.000 C 
ATOM     19  C   UNL     1      -1.489  17.010  19.586  0.00  0.00    +0.000 C 
ATOM     20  O   UNL     1      -0.398  16.291  18.992  0.00  0.00    +0.000 OA
ATOM     21  C   UNL     1       0.529  15.920  20.029  0.00  0.00    +0.000 C 
ENDBRANCH   3  17
BRANCH  13  22
ATOM     22  C   UNL     1       1.618   9.491  17.867  0.00  0.00    +0.000 C 
ATOM     23  F   UNL     1       2.356   8.662  17.078  0.00  0.00    +0.000 F 
ATOM     24  F   UNL     1       0.429   9.656  17.224  0.00  0.00    +0.000 F 
ATOM     25  F   UNL     1       2.243  10.700  17.816  0.00  0.00    +0.000 F 
ENDBRANCH  13  22
BRANCH   1  27
ATOM     26  C   UNL     1      -4.203  12.325  24.607  0.00  0.00    +0.000 C 
ATOM     27  C   UNL     1      -3.891  13.699  23.979  0.00  0.00    +0.000 C 
BRANCH  27  28
ATOM     28  C   UNL     1      -5.071  14.227  23.132  0.00  0.00    +0.000 C 
BRANCH  28  29
ATOM     29  C   UNL     1      -6.004  13.167  22.660  0.00  0.00    +0.000 A 
ATOM     30  N   UNL     1      -5.772  12.241  21.748  0.00  0.00    +0.000 NA
ATOM     31  N   UNL     1      -6.930  11.525  21.563  0.00  0.00    +0.000 NA
ATOM     32  C   UNL     1      -7.829  12.001  22.391  0.00  0.00    +0.000 A 
ATOM     33  N   UNL     1      -7.281  13.003  23.126  0.00  0.00    +0.000 N 
ATOM     34  C   UNL     1      -7.915  13.724  24.196  0.00  0.00    +0.000 C 
ENDBRANCH  28  29
ENDBRANCH  27  28
ENDBRANCH   1  27
TORSDOF 5
ENDMDL
MODEL 4
REMARK VINA RESULT:      -7.6      0.557      1.222
REMARK  Name = 
REMARK  7 active torsions:
REMARK  status: ('A' for Active; 'I' for Inactive)
REMARK    1  A    between atoms: C_1  and  C_2
REMARK    2  A    between atoms: C_2  and  C_3
REMARK    3  A    between atoms: C_2  and  C_10
REMARK    4  A    between atoms: C_3  and  C_4
REMARK    5  A    between atoms: N_8  and  C_9
REMARK    6  A    between atoms: C_12  and  C_13
REMARK    7  A    between atoms: C_27  and  C_28
REMARK                            x       y       z     vdW  Elec       q    Type
REMARK                         _______ _______ _______ _____ _____    ______ ____
ROOT
ATOM      1  C   UNL     1      -0.729  11.355  19.032  0.00  0.00    +0.000 A 
ATOM      2  C   UNL     1       0.083  12.466  18.791  0.00  0.00    +0.000 A 
ATOM      3  C   UNL     1       1.440  12.308  18.518  0.00  0.00    +0.000 A 
ATOM      4  N   UNL     1       2.015  11.081  18.468  0.00  0.00    +0.000 NA
ATOM      5  C   UNL     1       1.256  10.006  18.782  0.00  0.00    +0.000 A 
ATOM      6  N   UNL     1       1.878   8.755  18.792  0.00  0.00    +0.000 N 
ATOM      7  C   UNL     1       2.931   8.445  17.851  0.00  0.00    +0.000 C 
ATOM      8  C   UNL     1       3.348   7.070  18.267  0.00  0.00    +0.000 A 
ATOM      9  C   UNL     1       2.609   6.676  19.386  0.00  0.00    +0.000 A 
ATOM     10  C   UNL     1       2.814   5.474  20.036  0.00  0.00    +0.000 A 
ATOM     11  C   UNL     1       3.780   4.617  19.511  0.00  0.00    +0.000 A 
ATOM     12  C   UNL     1       4.505   4.978  18.359  0.00  0.00    +0.000 A 
ATOM     13  C   UNL     1       4.299   6.215  17.714  0.00  0.00    +0.000 A 
ATOM     14  C   UNL     1       1.650   7.745  19.709  0.00  0.00    +0.000 C 
ATOM     15  O   UNL     1       0.875   7.695  20.647  0.00  0.00    +0.000 OA
ATOM     16  C   UNL     1      -0.103  10.105  19.056  0.00  0.00    +0.000 A 
ENDROOT
BRANCH   3  17
ATOM     17  C   UNL     1       2.355  13.494  18.283  0.00  0.00    +0.000 C 
ATOM     18  C   UNL     1       3.375  13.678  19.396  0.00  0.00    +0.000 C 
ATOM     19  C   UNL     1       2.680  14.601  20.377  0.00  0.00    +0.000 C 
ATOM     20  O   UNL     1       1.696  15.344  19.642  0.00  0.00    +0.000 OA
ATOM     21  C   UNL     1       1.655  14.847  18.292  0.00  0.00    +0.000 C 
ENDBRANCH   3  17
BRANCH  13  22
ATOM     22  C   UNL     1       5.086   6.561  16.479  0.00  0.00    +0.000 C 
ATOM     23  F   UNL     1       4.365   7.224  15.534  0.00  0.00    +0.000 F 
ATOM     24  F   UNL     1       6.160   7.353  16.752  0.00  0.00    +0.000 F 
ATOM     25  F   UNL     1       5.583   5.457  15.855  0.00  0.00    +0.000 F 
ENDBRANCH  13  22
BRANCH   1  27
ATOM     26  C   UNL     1      -3.046  11.320  17.939  0.00  0.00    +0.000 C 
ATOM     27  C   UNL     1      -2.240  11.469  19.245  0.00  0.00    +0.000 C 
BRANCH  27  28
ATOM     28  C   UNL     1      -2.558  12.794  19.971  0.00  0.00    +0.000 C 
BRANCH  28  29
ATOM     29  C   UNL     1      -2.649  12.670  21.453  0.00  0.00    +0.000 A 
ATOM     30  N   UNL     1      -1.654  12.623  22.317  0.00  0.00    +0.000 NA
ATOM     31  N   UNL     1      -2.184  12.423  23.569  0.00  0.00    +0.000 NA
ATOM     32  C   UNL     1      -3.490  12.393  23.448  0.00  0.00    +0.000 A 
ATOM     33  N   UNL     1      -3.828  12.585  22.145  0.00  0.00    +0.000 N 
ATOM     34  C   UNL     1      -5.158  12.700  21.616  0.00  0.00    +0.000 C 
ENDBRANCH  28  29
ENDBRANCH  27  28
ENDBRANCH   1  27
TORSDOF 5
ENDMDL
MODEL 5
REMARK VINA RESULT:      -7.5      2.918      4.666
REMARK  Name = 
REMARK  7 active torsions:
REMARK  status: ('A' for Active; 'I' for Inactive)
REMARK    1  A    between atoms: C_1  and  C_2
REMARK    2  A    between atoms: C_2  and  C_3
REMARK    3  A    between atoms: C_2  and  C_10
REMARK    4  A    between atoms: C_3  and  C_4
REMARK    5  A    between atoms: N_8  and  C_9
REMARK    6  A    between atoms: C_12  and  C_13
REMARK    7  A    between atoms: C_27  and  C_28
REMARK                            x       y       z     vdW  Elec       q    Type
REMARK                         _______ _______ _______ _____ _____    ______ ____
ROOT
ATOM      1  C   UNL     1      -2.847  14.675  22.572  0.00  0.00    +0.000 A 
ATOM      2  C   UNL     1      -2.144  15.764  22.051  0.00  0.00    +0.000 A 
ATOM      3  C   UNL     1      -0.989  15.570  21.297  0.00  0.00    +0.000 A 
ATOM      4  N   UNL     1      -0.514  14.328  21.036  0.00  0.00    +0.000 NA
ATOM      5  C   UNL     1      -1.138  13.271  21.605  0.00  0.00    +0.000 A 
ATOM      6  N   UNL     1      -0.598  12.002  21.382  0.00  0.00    +0.000 N 
ATOM      7  C   UNL     1       0.023  11.674  20.119  0.00  0.00    +0.000 C 
ATOM      8  C   UNL     1       0.518  10.281  20.348  0.00  0.00    +0.000 A 
ATOM      9  C   UNL     1       0.231   9.893  21.660  0.00  0.00    +0.000 A 
ATOM     10  C   UNL     1       0.621   8.677  22.186  0.00  0.00    +0.000 A 
ATOM     11  C   UNL     1       1.296   7.799  21.340  0.00  0.00    +0.000 A 
ATOM     12  C   UNL     1       1.558   8.155  20.003  0.00  0.00    +0.000 A 
ATOM     13  C   UNL     1       1.170   9.406  19.482  0.00  0.00    +0.000 A 
ATOM     14  C   UNL     1      -0.506  10.986  22.316  0.00  0.00    +0.000 C 
ATOM     15  O   UNL     1      -0.882  10.946  23.473  0.00  0.00    +0.000 OA
ATOM     16  C   UNL     1      -2.297  13.406  22.360  0.00  0.00    +0.000 A 
ENDROOT
BRANCH   3  17
ATOM     17  C   UNL     1      -0.185  16.731  20.744  0.00  0.00    +0.000 C 
ATOM     18  C   UNL     1      -1.018  17.663  19.878  0.00  0.00    +0.000 C 
ATOM     19  C   UNL     1      -0.868  17.092  18.482  0.00  0.00    +0.000 C 
ATOM     20  O   UNL     1       0.363  16.355  18.450  0.00  0.00    +0.000 OA
ATOM     21  C   UNL     1       0.922  16.332  19.777  0.00  0.00    +0.000 C 
ENDBRANCH   3  17
BRANCH  13  22
ATOM     22  C   UNL     1       1.459   9.746  18.045  0.00  0.00    +0.000 C 
ATOM     23  F   UNL     1       0.344  10.004  17.305  0.00  0.00    +0.000 F 
ATOM     24  F   UNL     1       2.251  10.846  17.919  0.00  0.00    +0.000 F 
ATOM     25  F   UNL     1       2.107   8.740  17.394  0.00  0.00    +0.000 F 
ENDBRANCH  13  22
BRANCH   1  27
ATOM     26  C   UNL     1      -4.084  15.844  24.486  0.00  0.00    +0.000 C 
ATOM     27  C   UNL     1      -4.168  14.831  23.327  0.00  0.00    +0.000 C 
BRANCH  27  28
ATOM     28  C   UNL     1      -4.653  13.445  23.806  0.00  0.00    +0.000 C 
BRANCH  28  29
ATOM     29  C   UNL     1      -5.758  12.871  22.989  0.00  0.00    +0.000 A 
ATOM     30  N   UNL     1      -5.653  12.130  21.903  0.00  0.00    +0.000 NA
ATOM     31  N   UNL     1      -6.919  11.888  21.426  0.00  0.00    +0.000 NA
ATOM     32  C   UNL     1      -7.769  12.450  22.251  0.00  0.00    +0.000 A 
ATOM     33  N   UNL     1      -7.088  13.043  23.267  0.00  0.00    +0.000 N 
ATOM     34  C   UNL     1      -7.660  13.694  24.414  0.00  0.00    +0.000 C 
ENDBRANCH  28  29
ENDBRANCH  27  28
ENDBRANCH   1  27
TORSDOF 5
ENDMDL
MODEL 6
REMARK VINA RESULT:      -7.5      0.961      1.481
REMARK  Name = 
REMARK  7 active torsions:
REMARK  status: ('A' for Active; 'I' for Inactive)
REMARK    1  A    between atoms: C_1  and  C_2
REMARK    2  A    between atoms: C_2  and  C_3
REMARK    3  A    between atoms: C_2  and  C_10
REMARK    4  A    between atoms: C_3  and  C_4
REMARK    5  A    between atoms: N_8  and  C_9
REMARK    6  A    between atoms: C_12  and  C_13
REMARK    7  A    between atoms: C_27  and  C_28
REMARK                            x       y       z     vdW  Elec       q    Type
REMARK                         _______ _______ _______ _____ _____    ______ ____
ROOT
ATOM      1  C   UNL     1      -1.250  11.701  19.628  0.00  0.00    +0.000 A 
ATOM      2  C   UNL     1      -0.411  12.780  19.343  0.00  0.00    +0.000 A 
ATOM      3  C   UNL     1       0.936  12.575  19.051  0.00  0.00    +0.000 A 
ATOM      4  N   UNL     1       1.473  11.331  19.024  0.00  0.00    +0.000 NA
ATOM      5  C   UNL     1       0.689  10.287  19.380  0.00  0.00    +0.000 A 
ATOM      6  N   UNL     1       1.274   9.019  19.412  0.00  0.00    +0.000 N 
ATOM      7  C   UNL     1       2.300   8.652  18.462  0.00  0.00    +0.000 C 
ATOM      8  C   UNL     1       2.684   7.277  18.906  0.00  0.00    +0.000 A 
ATOM      9  C   UNL     1       1.954   6.935  20.049  0.00  0.00    +0.000 A 
ATOM     10  C   UNL     1       2.135   5.745  20.727  0.00  0.00    +0.000 A 
ATOM     11  C   UNL     1       3.066   4.846  20.208  0.00  0.00    +0.000 A 
ATOM     12  C   UNL     1       3.780   5.155  19.034  0.00  0.00    +0.000 A 
ATOM     13  C   UNL     1       3.599   6.380  18.360  0.00  0.00    +0.000 A 
ATOM     14  C   UNL     1       1.033   8.040  20.359  0.00  0.00    +0.000 C 
ATOM     15  O   UNL     1       0.275   8.038  21.311  0.00  0.00    +0.000 OA
ATOM     16  C   UNL     1      -0.661  10.434  19.674  0.00  0.00    +0.000 A 
ENDROOT
BRANCH   3  17
ATOM     17  C   UNL     1       1.882  13.726  18.769  0.00  0.00    +0.000 C 
ATOM     18  C   UNL     1       2.979  13.855  19.813  0.00  0.00    +0.000 C 
ATOM     19  C   UNL     1       2.388  14.791  20.848  0.00  0.00    +0.000 C 
ATOM     20  O   UNL     1       1.389  15.583  20.188  0.00  0.00    +0.000 OA
ATOM     21  C   UNL     1       1.239  15.106  18.839  0.00  0.00    +0.000 C 
ENDBRANCH   3  17
BRANCH  13  22
ATOM     22  C   UNL     1       4.374   6.670  17.103  0.00  0.00    +0.000 C 
ATOM     23  F   UNL     1       3.757   7.550  16.267  0.00  0.00    +0.000 F 
ATOM     24  F   UNL     1       5.602   7.198  17.359  0.00  0.00    +0.000 F 
ATOM     25  F   UNL     1       4.593   5.549  16.360  0.00  0.00    +0.000 F 
ENDBRANCH  13  22
BRANCH   1  27
ATOM     26  C   UNL     1      -3.575  11.840  18.560  0.00  0.00    +0.000 C 
ATOM     27  C   UNL     1      -2.753  11.866  19.864  0.00  0.00    +0.000 C 
BRANCH  27  28
ATOM     28  C   UNL     1      -3.007  13.152  20.681  0.00  0.00    +0.000 C 
BRANCH  28  29
ATOM     29  C   UNL     1      -3.958  12.976  21.814  0.00  0.00    +0.000 A 
ATOM     30  N   UNL     1      -3.745  12.339  22.949  0.00  0.00    +0.000 NA
ATOM     31  N   UNL     1      -4.914  12.350  23.671  0.00  0.00    +0.000 NA
ATOM     32  C   UNL     1      -5.801  13.026  22.981  0.00  0.00    +0.000 A 
ATOM     33  N   UNL     1      -5.234  13.471  21.829  0.00  0.00    +0.000 N 
ATOM     34  C   UNL     1      -5.852  14.316  20.843  0.00  0.00    +0.000 C 
ENDBRANCH  28  29
ENDBRANCH  27  28
ENDBRANCH   1  27
TORSDOF 5
ENDMDL
MODEL 7
REMARK VINA RESULT:      -7.4      0.947      1.151
REMARK  Name = 
REMARK  7 active torsions:
REMARK  status: ('A' for Active; 'I' for Inactive)
REMARK    1  A    between atoms: C_1  and  C_2
REMARK    2  A    between atoms: C_2  and  C_3
REMARK    3  A    between atoms: C_2  and  C_10
REMARK    4  A    between atoms: C_3  and  C_4
REMARK    5  A    between atoms: N_8  and  C_9
REMARK    6  A    between atoms: C_12  and  C_13
REMARK    7  A    between atoms: C_27  and  C_28
REMARK                            x       y       z     vdW  Elec       q    Type
REMARK                         _______ _______ _______ _____ _____    ______ ____
ROOT
ATOM      1  C   UNL     1      -0.804  11.410  19.044  0.00  0.00    +0.000 A 
ATOM      2  C   UNL     1      -0.017  12.518  18.720  0.00  0.00    +0.000 A 
ATOM      3  C   UNL     1       1.329  12.363  18.396  0.00  0.00    +0.000 A 
ATOM      4  N   UNL     1       1.917  11.142  18.377  0.00  0.00    +0.000 NA
ATOM      5  C   UNL     1       1.186  10.073  18.770  0.00  0.00    +0.000 A 
ATOM      6  N   UNL     1       1.824   8.831  18.808  0.00  0.00    +0.000 N 
ATOM      7  C   UNL     1       2.839   8.490  17.838  0.00  0.00    +0.000 C 
ATOM      8  C   UNL     1       3.291   7.140  18.296  0.00  0.00    +0.000 A 
ATOM      9  C   UNL     1       2.606   6.788  19.462  0.00  0.00    +0.000 A 
ATOM     10  C   UNL     1       2.853   5.619  20.155  0.00  0.00    +0.000 A 
ATOM     11  C   UNL     1       3.807   4.750  19.627  0.00  0.00    +0.000 A 
ATOM     12  C   UNL     1       4.478   5.067  18.430  0.00  0.00    +0.000 A 
ATOM     13  C   UNL     1       4.229   6.272  17.741  0.00  0.00    +0.000 A 
ATOM     14  C   UNL     1       1.647   7.860  19.778  0.00  0.00    +0.000 C 
ATOM     15  O   UNL     1       0.914   7.844  20.749  0.00  0.00    +0.000 OA
ATOM     16  C   UNL     1      -0.161  10.169  19.097  0.00  0.00    +0.000 A 
ENDROOT
BRANCH   3  17
ATOM     17  C   UNL     1       2.218  13.547  18.071  0.00  0.00    +0.000 C 
ATOM     18  C   UNL     1       3.552  13.499  18.801  0.00  0.00    +0.000 C 
ATOM     19  C   UNL     1       3.286  14.246  20.092  0.00  0.00    +0.000 C 
ATOM     20  O   UNL     1       2.186  15.136  19.854  0.00  0.00    +0.000 OA
ATOM     21  C   UNL     1       1.674  14.894  18.531  0.00  0.00    +0.000 C 
ENDBRANCH   3  17
BRANCH  13  22
ATOM     22  C   UNL     1       4.959   6.571  16.459  0.00  0.00    +0.000 C 
ATOM     23  F   UNL     1       5.276   5.462  15.734  0.00  0.00    +0.000 F 
ATOM     24  F   UNL     1       4.238   7.368  15.624  0.00  0.00    +0.000 F 
ATOM     25  F   UNL     1       6.138   7.219  16.673  0.00  0.00    +0.000 F 
ENDBRANCH  13  22
BRANCH   1  27
ATOM     26  C   UNL     1      -3.162  11.378  18.042  0.00  0.00    +0.000 C 
ATOM     27  C   UNL     1      -2.306  11.517  19.317  0.00  0.00    +0.000 C 
BRANCH  27  28
ATOM     28  C   UNL     1      -2.600  12.835  20.068  0.00  0.00    +0.000 C 
BRANCH  28  29
ATOM     29  C   UNL     1      -1.998  12.909  21.428  0.00  0.00    +0.000 A 
ATOM     30  N   UNL     1      -1.933  11.949  22.330  0.00  0.00    +0.000 NA
ATOM     31  N   UNL     1      -1.371  12.472  23.470  0.00  0.00    +0.000 NA
ATOM     32  C   UNL     1      -1.068  13.724  23.226  0.00  0.00    +0.000 A 
ATOM     33  N   UNL     1      -1.406  14.030  21.946  0.00  0.00    +0.000 N 
ATOM     34  C   UNL     1      -1.163  15.276  21.272  0.00  0.00    +0.000 C 
ENDBRANCH  28  29
ENDBRANCH  27  28
ENDBRANCH   1  27
TORSDOF 5
ENDMDL
MODEL 8
REMARK VINA RESULT:      -7.4      2.903      4.502
REMARK  Name = 
REMARK  7 active torsions:
REMARK  status: ('A' for Active; 'I' for Inactive)
REMARK    1  A    between atoms: C_1  and  C_2
REMARK    2  A    between atoms: C_2  and  C_3
REMARK    3  A    between atoms: C_2  and  C_10
REMARK    4  A    between atoms: C_3  and  C_4
REMARK    5  A    between atoms: N_8  and  C_9
REMARK    6  A    between atoms: C_12  and  C_13
REMARK    7  A    between atoms: C_27  and  C_28
REMARK                            x       y       z     vdW  Elec       q    Type
REMARK                         _______ _______ _______ _____ _____    ______ ____
ROOT
ATOM      1  C   UNL     1      -2.832  13.784  23.360  0.00  0.00    +0.000 A 
ATOM      2  C   UNL     1      -2.262  14.975  22.907  0.00  0.00    +0.000 A 
ATOM      3  C   UNL     1      -1.172  14.957  22.039  0.00  0.00    +0.000 A 
ATOM      4  N   UNL     1      -0.635  13.792  21.602  0.00  0.00    +0.000 NA
ATOM      5  C   UNL     1      -1.125  12.634  22.100  0.00  0.00    +0.000 A 
ATOM      6  N   UNL     1      -0.518  11.444  21.691  0.00  0.00    +0.000 N 
ATOM      7  C   UNL     1       0.004  11.302  20.351  0.00  0.00    +0.000 C 
ATOM      8  C   UNL     1       0.618   9.938  20.380  0.00  0.00    +0.000 A 
ATOM      9  C   UNL     1       0.484   9.393  21.660  0.00  0.00    +0.000 A 
ATOM     10  C   UNL     1       1.009   8.164  22.012  0.00  0.00    +0.000 A 
ATOM     11  C   UNL     1       1.664   7.439  21.018  0.00  0.00    +0.000 A 
ATOM     12  C   UNL     1       1.772   7.953  19.711  0.00  0.00    +0.000 A 
ATOM     13  C   UNL     1       1.248   9.216  19.369  0.00  0.00    +0.000 A 
ATOM     14  C   UNL     1      -0.265  10.347  22.495  0.00  0.00    +0.000 C 
ATOM     15  O   UNL     1      -0.527  10.154  23.668  0.00  0.00    +0.000 OA
ATOM     16  C   UNL     1      -2.214  12.594  22.962  0.00  0.00    +0.000 A 
ENDROOT
BRANCH   3  17
ATOM     17  C   UNL     1      -0.510  16.231  21.553  0.00  0.00    +0.000 C 
ATOM     18  C   UNL     1      -1.512  17.334  21.245  0.00  0.00    +0.000 C 
ATOM     19  C   UNL     1      -1.841  17.125  19.780  0.00  0.00    +0.000 C 
ATOM     20  O   UNL     1      -0.731  16.440  19.184  0.00  0.00    +0.000 OA
ATOM     21  C   UNL     1       0.212  16.101  20.218  0.00  0.00    +0.000 C 
ENDBRANCH   3  17
BRANCH  13  22
ATOM     22  C   UNL     1       1.374   9.727  17.959  0.00  0.00    +0.000 C 
ATOM     23  F   UNL     1       2.087   8.907  17.138  0.00  0.00    +0.000 F 
ATOM     24  F   UNL     1       0.165   9.897  17.357  0.00  0.00    +0.000 F 
ATOM     25  F   UNL     1       1.997  10.937  17.901  0.00  0.00    +0.000 F 
ENDBRANCH  13  22
BRANCH   1  27
ATOM     26  C   UNL     1      -4.357  12.360  24.847  0.00  0.00    +0.000 C 
ATOM     27  C   UNL     1      -4.084  13.750  24.238  0.00  0.00    +0.000 C 
BRANCH  27  28
ATOM     28  C   UNL     1      -5.293  14.274  23.431  0.00  0.00    +0.000 C 
BRANCH  28  29
ATOM     29  C   UNL     1      -5.690  13.399  22.293  0.00  0.00    +0.000 A 
ATOM     30  N   UNL     1      -6.218  12.192  22.354  0.00  0.00    +0.000 NA
ATOM     31  N   UNL     1      -6.350  11.718  21.071  0.00  0.00    +0.000 NA
ATOM     32  C   UNL     1      -5.938  12.658  20.255  0.00  0.00    +0.000 A 
ATOM     33  N   UNL     1      -5.554  13.745  20.975  0.00  0.00    +0.000 N 
ATOM     34  C   UNL     1      -5.118  15.009  20.447  0.00  0.00    +0.000 C 
ENDBRANCH  28  29
ENDBRANCH  27  28
ENDBRANCH   1  27
TORSDOF 5
ENDMDL
MODEL 9
REMARK VINA RESULT:      -7.3      4.971      9.275
REMARK  Name = 
REMARK  7 active torsions:
REMARK  status: ('A' for Active; 'I' for Inactive)
REMARK    1  A    between atoms: C_1  and  C_2
REMARK    2  A    between atoms: C_2  and  C_3
REMARK    3  A    between atoms: C_2  and  C_10
REMARK    4  A    between atoms: C_3  and  C_4
REMARK    5  A    between atoms: N_8  and  C_9
REMARK    6  A    between atoms: C_12  and  C_13
REMARK    7  A    between atoms: C_27  and  C_28
REMARK                            x       y       z     vdW  Elec       q    Type
REMARK                         _______ _______ _______ _____ _____    ______ ____
ROOT
ATOM      1  C   UNL     1       0.223  11.094  19.001  0.00  0.00    +0.000 A 
ATOM      2  C   UNL     1      -0.770  10.476  18.237  0.00  0.00    +0.000 A 
ATOM      3  C   UNL     1      -2.115  10.767  18.451  0.00  0.00    +0.000 A 
ATOM      4  N   UNL     1      -2.506  11.657  19.395  0.00  0.00    +0.000 NA
ATOM      5  C   UNL     1      -1.559  12.198  20.197  0.00  0.00    +0.000 A 
ATOM      6  N   UNL     1      -1.983  13.063  21.208  0.00  0.00    +0.000 N 
ATOM      7  C   UNL     1      -3.115  13.939  21.006  0.00  0.00    +0.000 C 
ATOM      8  C   UNL     1      -3.256  14.605  22.338  0.00  0.00    +0.000 A 
ATOM      9  C   UNL     1      -2.301  14.093  23.220  0.00  0.00    +0.000 A 
ATOM     10  C   UNL     1      -2.223  14.473  24.546  0.00  0.00    +0.000 A 
ATOM     11  C   UNL     1      -3.125  15.438  24.991  0.00  0.00    +0.000 A 
ATOM     12  C   UNL     1      -4.068  15.996  24.107  0.00  0.00    +0.000 A 
ATOM     13  C   UNL     1      -4.149  15.588  22.760  0.00  0.00    +0.000 A 
ATOM     14  C   UNL     1      -1.468  13.123  22.491  0.00  0.00    +0.000 C 
ATOM     15  O   UNL     1      -0.556  12.499  23.001  0.00  0.00    +0.000 OA
ATOM     16  C   UNL     1      -0.203  11.948  20.023  0.00  0.00    +0.000 A 
ENDROOT
BRANCH   3  17
ATOM     17  C   UNL     1      -3.219  10.090  17.662  0.00  0.00    +0.000 C 
ATOM     18  C   UNL     1      -2.799   9.745  16.241  0.00  0.00    +0.000 C 
ATOM     19  C   UNL     1      -3.185  10.973  15.440  0.00  0.00    +0.000 C 
ATOM     20  O   UNL     1      -4.239  11.637  16.153  0.00  0.00    +0.000 OA
ATOM     21  C   UNL     1      -4.442  10.962  17.408  0.00  0.00    +0.000 C 
ENDBRANCH   3  17
BRANCH  13  22
ATOM     22  C   UNL     1      -5.164  16.216  21.842  0.00  0.00    +0.000 C 
ATOM     23  F   UNL     1      -5.927  17.174  22.438  0.00  0.00    +0.000 F 
ATOM     24  F   UNL     1      -4.589  16.815  20.763  0.00  0.00    +0.000 F 
ATOM     25  F   UNL     1      -6.043  15.304  21.342  0.00  0.00    +0.000 F 
ENDBRANCH  13  22
BRANCH   1  27
ATOM     26  C   UNL     1       2.389  12.084  18.057  0.00  0.00    +0.000 C 
ATOM     27  C   UNL     1       1.715  10.878  18.744  0.00  0.00    +0.000 C 
BRANCH  27  28
ATOM     28  C   UNL     1       1.916   9.573  17.943  0.00  0.00    +0.000 C 
BRANCH  28  29
ATOM     29  C   UNL     1       2.078   8.358  18.789  0.00  0.00    +0.000 A 
ATOM     30  N   UNL     1       1.462   8.081  19.923  0.00  0.00    +0.000 NA
ATOM     31  N   UNL     1       1.969   6.900  20.407  0.00  0.00    +0.000 NA
ATOM     32  C   UNL     1       2.851   6.461  19.542  0.00  0.00    +0.000 A 
ATOM     33  N   UNL     1       2.923   7.322  18.493  0.00  0.00    +0.000 N 
ATOM     34  C   UNL     1       3.711   7.156  17.303  0.00  0.00    +0.000 C 
ENDBRANCH  28  29
ENDBRANCH  27  28
ENDBRANCH   1  27
TORSDOF 5
ENDMDL
