MODEL 1
REMARK VINA RESULT:      -6.9      0.000      0.000
REMARK  Name = 
REMARK  8 active torsions:
REMARK  status: ('A' for Active; 'I' for Inactive)
REMARK    1  A    between atoms: C_1  and  C_2
REMARK    2  A    between atoms: N_9  and  C_10
REMARK    3  A    between atoms: C_10  and  C_11
REMARK    4  A    between atoms: C_11  and  N_12
REMARK    5  A    between atoms: N_12  and  C_13
REMARK    6  A    between atoms: N_12  and  C_14
REMARK    7  A    between atoms: C_15  and  C_17
REMARK    8  A    between atoms: C_18  and  C_19
REMARK                            x       y       z     vdW  Elec       q    Type
REMARK                         _______ _______ _______ _____ _____    ______ ____
ROOT
ATOM      1  C   UNL     1       0.071   9.500  23.880  0.00  0.00    +0.000 C 
ATOM      2  C   UNL     1      -0.362  10.285  22.674  0.00  0.00    +0.000 A 
ATOM      3  C   UNL     1      -1.215  11.402  22.804  0.00  0.00    +0.000 A 
ATOM      4  C   UNL     1      -1.614  12.134  21.668  0.00  0.00    +0.000 A 
ATOM      5  C   UNL     1      -1.166  11.766  20.390  0.00  0.00    +0.000 A 
ATOM      6  C   UNL     1      -0.320  10.668  20.286  0.00  0.00    +0.000 A 
ATOM      7  S   UNL     1       0.390  10.011  18.917  0.00  0.00    +0.000 S 
ATOM      8  C   UNL     1       1.186   8.775  19.791  0.00  0.00    +0.000 A 
ATOM      9  N   UNL     1       2.058   7.752  19.234  0.00  0.00    +0.000 N 
ATOM     10  C   UNL     1       2.592   7.907  17.961  0.00  0.00    +0.000 C 
ATOM     11  O   UNL     1       2.357   8.915  17.310  0.00  0.00    +0.000 OA
ATOM     12  N   UNL     1       0.898   8.890  21.112  0.00  0.00    +0.000 NA
ATOM     13  C   UNL     1       0.074   9.934  21.389  0.00  0.00    +0.000 A 
ENDROOT
BRANCH  10  14
ATOM     14  C   UNL     1       3.501   6.890  17.336  0.00  0.00    +0.000 C 
ATOM     15  C   UNL     1       4.837   7.050  17.282  0.00  0.00    +0.000 C 
BRANCH  15  16
ATOM     16  C   UNL     1       5.719   6.041  16.656  0.00  0.00    +0.000 A 
ATOM     17  C   UNL     1       5.575   5.542  15.367  0.00  0.00    +0.000 A 
ATOM     18  C   UNL     1       6.545   4.585  15.035  0.00  0.00    +0.000 A 
ATOM     19  C   UNL     1       7.450   4.332  16.057  0.00  0.00    +0.000 A 
ATOM     20  S   UNL     1       7.050   5.295  17.372  0.00  0.00    +0.000 S 
ENDBRANCH  15  16
ENDBRANCH  10  14
BRANCH   9  21
ATOM     21  C   UNL     1       2.432   6.527  19.990  0.00  0.00    +0.000 C 
BRANCH  21  22
ATOM     22  C   UNL     1       1.296   5.539  20.334  0.00  0.00    +0.000 C 
BRANCH  22  23
ATOM     23  N   UNL     1       1.675   4.113  20.225  0.00  0.00    +0.000 NA
ATOM     24  C   UNL     1       2.779   3.902  19.272  0.00  0.00    +0.000 C 
ATOM     25  C   UNL     1       2.096   3.645  21.559  0.00  0.00    +0.000 C 
ENDBRANCH  22  23
ENDBRANCH  21  22
ENDBRANCH   9  21
TORSDOF 5
ENDMDL
MODEL 2
REMARK VINA RESULT:      -6.8      0.712      1.070
REMARK  Name = 
REMARK  8 active torsions:
REMARK  status: ('A' for Active; 'I' for Inactive)
REMARK    1  A    between atoms: C_1  and  C_2
REMARK    2  A    between atoms: N_9  and  C_10
REMARK    3  A    between atoms: C_10  and  C_11
REMARK    4  A    between atoms: C_11  and  N_12
REMARK    5  A    between atoms: N_12  and  C_13
REMARK    6  A    between atoms: N_12  and  C_14
REMARK    7  A    between atoms: C_15  and  C_17
REMARK    8  A    between atoms: C_18  and  C_19
REMARK                            x       y       z     vdW  Elec       q    Type
REMARK                         _______ _______ _______ _____ _____    ______ ____
ROOT
ATOM      1  C   UNL     1      -0.061   9.669  23.813  0.00  0.00    +0.000 C 
ATOM      2  C   UNL     1      -0.475  10.391  22.561  0.00  0.00    +0.000 A 
ATOM      3  C   UNL     1      -1.345  11.501  22.618  0.00  0.00    +0.000 A 
ATOM      4  C   UNL     1      -1.725  12.174  21.439  0.00  0.00    +0.000 A 
ATOM      5  C   UNL     1      -1.241  11.752  20.192  0.00  0.00    +0.000 A 
ATOM      6  C   UNL     1      -0.378  10.663  20.159  0.00  0.00    +0.000 A 
ATOM      7  S   UNL     1       0.374   9.953  18.840  0.00  0.00    +0.000 S 
ATOM      8  C   UNL     1       1.164   8.772  19.790  0.00  0.00    +0.000 A 
ATOM      9  N   UNL     1       2.063   7.735  19.303  0.00  0.00    +0.000 N 
ATOM     10  C   UNL     1       2.626   7.839  18.037  0.00  0.00    +0.000 C 
ATOM     11  O   UNL     1       2.394   8.812  17.334  0.00  0.00    +0.000 OA
ATOM     12  N   UNL     1       0.842   8.944  21.097  0.00  0.00    +0.000 NA
ATOM     13  C   UNL     1      -0.003   9.987  21.305  0.00  0.00    +0.000 A 
ENDROOT
BRANCH  10  14
ATOM     14  C   UNL     1       3.563   6.807  17.483  0.00  0.00    +0.000 C 
ATOM     15  C   UNL     1       4.878   7.043  17.308  0.00  0.00    +0.000 C 
BRANCH  15  16
ATOM     16  C   UNL     1       5.787   6.018  16.753  0.00  0.00    +0.000 A 
ATOM     17  C   UNL     1       6.868   5.458  17.424  0.00  0.00    +0.000 A 
ATOM     18  C   UNL     1       7.568   4.517  16.656  0.00  0.00    +0.000 A 
ATOM     19  C   UNL     1       7.041   4.334  15.384  0.00  0.00    +0.000 A 
ATOM     20  S   UNL     1       5.707   5.337  15.212  0.00  0.00    +0.000 S 
ENDBRANCH  15  16
ENDBRANCH  10  14
BRANCH   9  21
ATOM     21  C   UNL     1       2.435   6.553  20.124  0.00  0.00    +0.000 C 
BRANCH  21  22
ATOM     22  C   UNL     1       1.518   5.313  20.025  0.00  0.00    +0.000 C 
BRANCH  22  23
ATOM     23  N   UNL     1       2.142   4.055  20.493  0.00  0.00    +0.000 NA
ATOM     24  C   UNL     1       1.145   2.999  20.739  0.00  0.00    +0.000 C 
ATOM     25  C   UNL     1       3.084   3.595  19.455  0.00  0.00    +0.000 C 
ENDBRANCH  22  23
ENDBRANCH  21  22
ENDBRANCH   9  21
TORSDOF 5
ENDMDL
MODEL 3
REMARK VINA RESULT:      -6.7      2.342      7.552
REMARK  Name = 
REMARK  8 active torsions:
REMARK  status: ('A' for Active; 'I' for Inactive)
REMARK    1  A    between atoms: C_1  and  C_2
REMARK    2  A    between atoms: N_9  and  C_10
REMARK    3  A    between atoms: C_10  and  C_11
REMARK    4  A    between atoms: C_11  and  N_12
REMARK    5  A    between atoms: N_12  and  C_13
REMARK    6  A    between atoms: N_12  and  C_14
REMARK    7  A    between atoms: C_15  and  C_17
REMARK    8  A    between atoms: C_18  and  C_19
REMARK                            x       y       z     vdW  Elec       q    Type
REMARK                         _______ _______ _______ _____ _____    ______ ____
ROOT
ATOM      1  C   UNL     1       1.909   3.481  21.650  0.00  0.00    +0.000 C 
ATOM      2  C   UNL     1       2.631   3.619  20.338  0.00  0.00    +0.000 A 
ATOM      3  C   UNL     1       3.258   2.507  19.735  0.00  0.00    +0.000 A 
ATOM      4  C   UNL     1       3.930   2.645  18.505  0.00  0.00    +0.000 A 
ATOM      5  C   UNL     1       3.983   3.889  17.858  0.00  0.00    +0.000 A 
ATOM      6  C   UNL     1       3.352   4.969  18.465  0.00  0.00    +0.000 A 
ATOM      7  S   UNL     1       3.224   6.552  17.930  0.00  0.00    +0.000 S 
ATOM      8  C   UNL     1       2.326   7.055  19.294  0.00  0.00    +0.000 A 
ATOM      9  N   UNL     1       1.815   8.395  19.543  0.00  0.00    +0.000 N 
ATOM     10  C   UNL     1       1.727   9.311  18.503  0.00  0.00    +0.000 C 
ATOM     11  O   UNL     1       2.052   8.993  17.368  0.00  0.00    +0.000 OA
ATOM     12  N   UNL     1       2.138   6.003  20.131  0.00  0.00    +0.000 NA
ATOM     13  C   UNL     1       2.696   4.852  19.676  0.00  0.00    +0.000 A 
ENDROOT
BRANCH  10  14
ATOM     14  C   UNL     1       1.203  10.704  18.695  0.00  0.00    +0.000 C 
ATOM     15  C   UNL     1       1.981  11.795  18.555  0.00  0.00    +0.000 C 
BRANCH  15  16
ATOM     16  C   UNL     1       1.451  13.161  18.755  0.00  0.00    +0.000 A 
ATOM     17  C   UNL     1       0.143  13.469  19.112  0.00  0.00    +0.000 A 
ATOM     18  C   UNL     1      -0.089  14.847  19.222  0.00  0.00    +0.000 A 
ATOM     19  C   UNL     1       1.031  15.623  18.954  0.00  0.00    +0.000 A 
ATOM     20  S   UNL     1       2.309  14.602  18.583  0.00  0.00    +0.000 S 
ENDBRANCH  15  16
ENDBRANCH  10  14
BRANCH   9  21
ATOM     21  C   UNL     1       1.349   8.834  20.885  0.00  0.00    +0.000 C 
BRANCH  21  22
ATOM     22  C   UNL     1      -0.159   8.689  21.187  0.00  0.00    +0.000 C 
BRANCH  22  23
ATOM     23  N   UNL     1      -0.642   9.542  22.295  0.00  0.00    +0.000 NA
ATOM     24  C   UNL     1       0.212   9.438  23.491  0.00  0.00    +0.000 C 
ATOM     25  C   UNL     1      -0.648  10.942  21.830  0.00  0.00    +0.000 C 
ENDBRANCH  22  23
ENDBRANCH  21  22
ENDBRANCH   9  21
TORSDOF 5
ENDMDL
MODEL 4
REMARK VINA RESULT:      -6.6      2.507      8.764
REMARK  Name = 
REMARK  8 active torsions:
REMARK  status: ('A' for Active; 'I' for Inactive)
REMARK    1  A    between atoms: C_1  and  C_2
REMARK    2  A    between atoms: N_9  and  C_10
REMARK    3  A    between atoms: C_10  and  C_11
REMARK    4  A    between atoms: C_11  and  N_12
REMARK    5  A    between atoms: N_12  and  C_13
REMARK    6  A    between atoms: N_12  and  C_14
REMARK    7  A    between atoms: C_15  and  C_17
REMARK    8  A    between atoms: C_18  and  C_19
REMARK                            x       y       z     vdW  Elec       q    Type
REMARK                         _______ _______ _______ _____ _____    ______ ____
ROOT
ATOM      1  C   UNL     1       4.698   6.801  16.569  0.00  0.00    +0.000 C 
ATOM      2  C   UNL     1       4.239   5.901  17.682  0.00  0.00    +0.000 A 
ATOM      3  C   UNL     1       4.734   4.585  17.801  0.00  0.00    +0.000 A 
ATOM      4  C   UNL     1       4.301   3.750  18.850  0.00  0.00    +0.000 A 
ATOM      5  C   UNL     1       3.374   4.216  19.795  0.00  0.00    +0.000 A 
ATOM      6  C   UNL     1       2.906   5.518  19.664  0.00  0.00    +0.000 A 
ATOM      7  S   UNL     1       1.828   6.354  20.638  0.00  0.00    +0.000 S 
ATOM      8  C   UNL     1       1.907   7.775  19.692  0.00  0.00    +0.000 A 
ATOM      9  N   UNL     1       1.194   9.019  19.945  0.00  0.00    +0.000 N 
ATOM     10  C   UNL     1       0.640   9.264  21.195  0.00  0.00    +0.000 C 
ATOM     11  O   UNL     1       0.770   8.451  22.099  0.00  0.00    +0.000 OA
ATOM     12  N   UNL     1       2.758   7.586  18.652  0.00  0.00    +0.000 NA
ATOM     13  C   UNL     1       3.314   6.347  18.636  0.00  0.00    +0.000 A 
ENDROOT
BRANCH  10  14
ATOM     14  C   UNL     1      -0.100  10.528  21.517  0.00  0.00    +0.000 C 
ATOM     15  C   UNL     1      -0.747  10.710  22.684  0.00  0.00    +0.000 C 
BRANCH  15  16
ATOM     16  C   UNL     1      -1.479  11.959  22.984  0.00  0.00    +0.000 A 
ATOM     17  C   UNL     1      -2.800  12.032  23.409  0.00  0.00    +0.000 A 
ATOM     18  C   UNL     1      -3.244  13.347  23.607  0.00  0.00    +0.000 A 
ATOM     19  C   UNL     1      -2.277  14.308  23.342  0.00  0.00    +0.000 A 
ATOM     20  S   UNL     1      -0.871  13.528  22.863  0.00  0.00    +0.000 S 
ENDBRANCH  15  16
ENDBRANCH  10  14
BRANCH   9  21
ATOM     21  C   UNL     1       1.046  10.077  18.910  0.00  0.00    +0.000 C 
BRANCH  21  22
ATOM     22  C   UNL     1      -0.080   9.888  17.869  0.00  0.00    +0.000 C 
BRANCH  22  23
ATOM     23  N   UNL     1      -1.391  10.433  18.286  0.00  0.00    +0.000 NA
ATOM     24  C   UNL     1      -1.428  11.904  18.220  0.00  0.00    +0.000 C 
ATOM     25  C   UNL     1      -2.423   9.886  17.385  0.00  0.00    +0.000 C 
ENDBRANCH  22  23
ENDBRANCH  21  22
ENDBRANCH   9  21
TORSDOF 5
ENDMDL
MODEL 5
REMARK VINA RESULT:      -6.6      1.700      7.956
REMARK  Name = 
REMARK  8 active torsions:
REMARK  status: ('A' for Active; 'I' for Inactive)
REMARK    1  A    between atoms: C_1  and  C_2
REMARK    2  A    between atoms: N_9  and  C_10
REMARK    3  A    between atoms: C_10  and  C_11
REMARK    4  A    between atoms: C_11  and  N_12
REMARK    5  A    between atoms: N_12  and  C_13
REMARK    6  A    between atoms: N_12  and  C_14
REMARK    7  A    between atoms: C_15  and  C_17
REMARK    8  A    between atoms: C_18  and  C_19
REMARK                            x       y       z     vdW  Elec       q    Type
REMARK                         _______ _______ _______ _____ _____    ______ ____
ROOT
ATOM      1  C   UNL     1       3.892   2.423  17.504  0.00  0.00    +0.000 C 
ATOM      2  C   UNL     1       4.517   3.640  16.882  0.00  0.00    +0.000 A 
ATOM      3  C   UNL     1       5.486   3.517  15.863  0.00  0.00    +0.000 A 
ATOM      4  C   UNL     1       6.065   4.663  15.283  0.00  0.00    +0.000 A 
ATOM      5  C   UNL     1       5.684   5.945  15.708  0.00  0.00    +0.000 A 
ATOM      6  C   UNL     1       4.722   6.044  16.707  0.00  0.00    +0.000 A 
ATOM      7  S   UNL     1       4.054   7.419  17.395  0.00  0.00    +0.000 S 
ATOM      8  C   UNL     1       3.043   6.531  18.450  0.00  0.00    +0.000 A 
ATOM      9  N   UNL     1       2.102   7.087  19.411  0.00  0.00    +0.000 N 
ATOM     10  C   UNL     1       1.700   8.412  19.308  0.00  0.00    +0.000 C 
ATOM     11  O   UNL     1       2.110   9.114  18.394  0.00  0.00    +0.000 OA
ATOM     12  N   UNL     1       3.232   5.201  18.254  0.00  0.00    +0.000 NA
ATOM     13  C   UNL     1       4.151   4.929  17.292  0.00  0.00    +0.000 A 
ENDROOT
BRANCH  10  14
ATOM     14  C   UNL     1       0.729   9.039  20.264  0.00  0.00    +0.000 C 
ATOM     15  C   UNL     1       0.509  10.368  20.304  0.00  0.00    +0.000 C 
BRANCH  15  16
ATOM     16  C   UNL     1      -0.446  10.971  21.258  0.00  0.00    +0.000 A 
ATOM     17  C   UNL     1      -0.591  10.599  22.589  0.00  0.00    +0.000 A 
ATOM     18  C   UNL     1      -1.582  11.330  23.261  0.00  0.00    +0.000 A 
ATOM     19  C   UNL     1      -2.214  12.275  22.464  0.00  0.00    +0.000 A 
ATOM     20  S   UNL     1      -1.545  12.207  20.927  0.00  0.00    +0.000 S 
ENDBRANCH  15  16
ENDBRANCH  10  14
BRANCH   9  21
ATOM     21  C   UNL     1       1.519   6.277  20.514  0.00  0.00    +0.000 C 
BRANCH  21  22
ATOM     22  C   UNL     1       2.351   5.079  21.021  0.00  0.00    +0.000 C 
BRANCH  22  23
ATOM     23  N   UNL     1       1.579   3.827  21.184  0.00  0.00    +0.000 NA
ATOM     24  C   UNL     1       0.809   3.487  19.975  0.00  0.00    +0.000 C 
ATOM     25  C   UNL     1       2.528   2.735  21.471  0.00  0.00    +0.000 C 
ENDBRANCH  22  23
ENDBRANCH  21  22
ENDBRANCH   9  21
TORSDOF 5
ENDMDL
MODEL 6
REMARK VINA RESULT:      -6.5      2.504      7.493
REMARK  Name = 
REMARK  8 active torsions:
REMARK  status: ('A' for Active; 'I' for Inactive)
REMARK    1  A    between atoms: C_1  and  C_2
REMARK    2  A    between atoms: N_9  and  C_10
REMARK    3  A    between atoms: C_10  and  C_11
REMARK    4  A    between atoms: C_11  and  N_12
REMARK    5  A    between atoms: N_12  and  C_13
REMARK    6  A    between atoms: N_12  and  C_14
REMARK    7  A    between atoms: C_15  and  C_17
REMARK    8  A    between atoms: C_18  and  C_19
REMARK                            x       y       z     vdW  Elec       q    Type
REMARK                         _______ _______ _______ _____ _____    ______ ____
ROOT
ATOM      1  C   UNL     1       1.506   3.209  21.420  0.00  0.00    +0.000 C 
ATOM      2  C   UNL     1       2.238   3.299  20.109  0.00  0.00    +0.000 A 
ATOM      3  C   UNL     1       2.740   2.141  19.478  0.00  0.00    +0.000 A 
ATOM      4  C   UNL     1       3.422   2.235  18.248  0.00  0.00    +0.000 A 
ATOM      5  C   UNL     1       3.608   3.481  17.631  0.00  0.00    +0.000 A 
ATOM      6  C   UNL     1       3.099   4.608  18.266  0.00  0.00    +0.000 A 
ATOM      7  S   UNL     1       3.142   6.208  17.768  0.00  0.00    +0.000 S 
ATOM      8  C   UNL     1       2.305   6.772  19.148  0.00  0.00    +0.000 A 
ATOM      9  N   UNL     1       1.942   8.153  19.430  0.00  0.00    +0.000 N 
ATOM     10  C   UNL     1       1.953   9.099  18.412  0.00  0.00    +0.000 C 
ATOM     11  O   UNL     1       2.240   8.774  17.269  0.00  0.00    +0.000 OA
ATOM     12  N   UNL     1       2.005   5.728  19.961  0.00  0.00    +0.000 NA
ATOM     13  C   UNL     1       2.435   4.534  19.476  0.00  0.00    +0.000 A 
ENDROOT
BRANCH  10  14
ATOM     14  C   UNL     1       1.583  10.535  18.640  0.00  0.00    +0.000 C 
ATOM     15  C   UNL     1       2.299  11.555  18.130  0.00  0.00    +0.000 C 
BRANCH  15  16
ATOM     16  C   UNL     1       1.926  12.966  18.369  0.00  0.00    +0.000 A 
ATOM     17  C   UNL     1       2.790  14.050  18.276  0.00  0.00    +0.000 A 
ATOM     18  C   UNL     1       2.172  15.275  18.568  0.00  0.00    +0.000 A 
ATOM     19  C   UNL     1       0.826  15.157  18.888  0.00  0.00    +0.000 A 
ATOM     20  S   UNL     1       0.401  13.536  18.808  0.00  0.00    +0.000 S 
ENDBRANCH  15  16
ENDBRANCH  10  14
BRANCH   9  21
ATOM     21  C   UNL     1       1.528   8.608  20.784  0.00  0.00    +0.000 C 
BRANCH  21  22
ATOM     22  C   UNL     1       0.087   9.142  20.935  0.00  0.00    +0.000 C 
BRANCH  22  23
ATOM     23  N   UNL     1      -0.051  10.257  21.899  0.00  0.00    +0.000 NA
ATOM     24  C   UNL     1      -1.072  11.232  21.478  0.00  0.00    +0.000 C 
ATOM     25  C   UNL     1      -0.437   9.690  23.205  0.00  0.00    +0.000 C 
ENDBRANCH  22  23
ENDBRANCH  21  22
ENDBRANCH   9  21
TORSDOF 5
ENDMDL
MODEL 7
REMARK VINA RESULT:      -6.3      2.348      7.719
REMARK  Name = 
REMARK  8 active torsions:
REMARK  status: ('A' for Active; 'I' for Inactive)
REMARK    1  A    between atoms: C_1  and  C_2
REMARK    2  A    between atoms: N_9  and  C_10
REMARK    3  A    between atoms: C_10  and  C_11
REMARK    4  A    between atoms: C_11  and  N_12
REMARK    5  A    between atoms: N_12  and  C_13
REMARK    6  A    between atoms: N_12  and  C_14
REMARK    7  A    between atoms: C_15  and  C_17
REMARK    8  A    between atoms: C_18  and  C_19
REMARK                            x       y       z     vdW  Elec       q    Type
REMARK                         _______ _______ _______ _____ _____    ______ ____
ROOT
ATOM      1  C   UNL     1       1.455   3.102  21.420  0.00  0.00    +0.000 C 
ATOM      2  C   UNL     1       2.155   3.273  20.101  0.00  0.00    +0.000 A 
ATOM      3  C   UNL     1       2.657   2.158  19.397  0.00  0.00    +0.000 A 
ATOM      4  C   UNL     1       3.309   2.327  18.159  0.00  0.00    +0.000 A 
ATOM      5  C   UNL     1       3.466   3.608  17.607  0.00  0.00    +0.000 A 
ATOM      6  C   UNL     1       2.957   4.692  18.313  0.00  0.00    +0.000 A 
ATOM      7  S   UNL     1       2.968   6.316  17.902  0.00  0.00    +0.000 S 
ATOM      8  C   UNL     1       2.156   6.794  19.329  0.00  0.00    +0.000 A 
ATOM      9  N   UNL     1       1.782   8.152  19.693  0.00  0.00    +0.000 N 
ATOM     10  C   UNL     1       1.757   9.151  18.729  0.00  0.00    +0.000 C 
ATOM     11  O   UNL     1       2.022   8.893  17.563  0.00  0.00    +0.000 OA
ATOM     12  N   UNL     1       1.888   5.702  20.090  0.00  0.00    +0.000 NA
ATOM     13  C   UNL     1       2.322   4.543  19.532  0.00  0.00    +0.000 A 
ENDROOT
BRANCH  10  14
ATOM     14  C   UNL     1       1.375  10.568  19.042  0.00  0.00    +0.000 C 
ATOM     15  C   UNL     1       0.185  11.091  18.687  0.00  0.00    +0.000 C 
BRANCH  15  16
ATOM     16  C   UNL     1      -0.174  12.492  18.997  0.00  0.00    +0.000 A 
ATOM     17  C   UNL     1       0.605  13.603  18.699  0.00  0.00    +0.000 A 
ATOM     18  C   UNL     1       0.027  14.810  19.117  0.00  0.00    +0.000 A 
ATOM     19  C   UNL     1      -1.203  14.652  19.742  0.00  0.00    +0.000 A 
ATOM     20  S   UNL     1      -1.576  13.017  19.774  0.00  0.00    +0.000 S 
ENDBRANCH  15  16
ENDBRANCH  10  14
BRANCH   9  21
ATOM     21  C   UNL     1       1.393   8.527  21.079  0.00  0.00    +0.000 C 
BRANCH  21  22
ATOM     22  C   UNL     1      -0.115   8.523  21.411  0.00  0.00    +0.000 C 
BRANCH  22  23
ATOM     23  N   UNL     1      -0.471   9.271  22.637  0.00  0.00    +0.000 NA
ATOM     24  C   UNL     1       0.635   9.302  23.610  0.00  0.00    +0.000 C 
ATOM     25  C   UNL     1      -0.810  10.654  22.251  0.00  0.00    +0.000 C 
ENDBRANCH  22  23
ENDBRANCH  21  22
ENDBRANCH   9  21
TORSDOF 5
ENDMDL
MODEL 8
REMARK VINA RESULT:      -6.2      2.464      7.781
REMARK  Name = 
REMARK  8 active torsions:
REMARK  status: ('A' for Active; 'I' for Inactive)
REMARK    1  A    between atoms: C_1  and  C_2
REMARK    2  A    between atoms: N_9  and  C_10
REMARK    3  A    between atoms: C_10  and  C_11
REMARK    4  A    between atoms: C_11  and  N_12
REMARK    5  A    between atoms: N_12  and  C_13
REMARK    6  A    between atoms: N_12  and  C_14
REMARK    7  A    between atoms: C_15  and  C_17
REMARK    8  A    between atoms: C_18  and  C_19
REMARK                            x       y       z     vdW  Elec       q    Type
REMARK                         _______ _______ _______ _____ _____    ______ ____
ROOT
ATOM      1  C   UNL     1       1.399   3.637  20.431  0.00  0.00    +0.000 C 
ATOM      2  C   UNL     1       2.402   4.031  19.383  0.00  0.00    +0.000 A 
ATOM      3  C   UNL     1       3.210   3.061  18.751  0.00  0.00    +0.000 A 
ATOM      4  C   UNL     1       4.145   3.439  17.767  0.00  0.00    +0.000 A 
ATOM      5  C   UNL     1       4.285   4.786  17.399  0.00  0.00    +0.000 A 
ATOM      6  C   UNL     1       3.474   5.723  18.027  0.00  0.00    +0.000 A 
ATOM      7  S   UNL     1       3.394   7.380  17.784  0.00  0.00    +0.000 S 
ATOM      8  C   UNL     1       2.175   7.603  18.962  0.00  0.00    +0.000 A 
ATOM      9  N   UNL     1       1.551   8.866  19.327  0.00  0.00    +0.000 N 
ATOM     10  C   UNL     1       1.663   9.967  18.488  0.00  0.00    +0.000 C 
ATOM     11  O   UNL     1       2.263   9.878  17.426  0.00  0.00    +0.000 OA
ATOM     12  N   UNL     1       1.849   6.407  19.515  0.00  0.00    +0.000 NA
ATOM     13  C   UNL     1       2.558   5.370  19.000  0.00  0.00    +0.000 A 
ENDROOT
BRANCH  10  14
ATOM     14  C   UNL     1       1.038  11.293  18.807  0.00  0.00    +0.000 C 
ATOM     15  C   UNL     1       1.715  12.454  18.711  0.00  0.00    +0.000 C 
BRANCH  15  16
ATOM     16  C   UNL     1       1.086  13.752  19.036  0.00  0.00    +0.000 A 
ATOM     17  C   UNL     1      -0.111  14.218  18.505  0.00  0.00    +0.000 A 
ATOM     18  C   UNL     1      -0.468  15.489  18.979  0.00  0.00    +0.000 A 
ATOM     19  C   UNL     1       0.443  16.023  19.880  0.00  0.00    +0.000 A 
ATOM     20  S   UNL     1       1.690  14.920  20.092  0.00  0.00    +0.000 S 
ENDBRANCH  15  16
ENDBRANCH  10  14
BRANCH   9  21
ATOM     21  C   UNL     1       0.760   9.033  20.575  0.00  0.00    +0.000 C 
BRANCH  21  22
ATOM     22  C   UNL     1       1.439   9.785  21.741  0.00  0.00    +0.000 C 
BRANCH  22  23
ATOM     23  N   UNL     1       0.495  10.406  22.696  0.00  0.00    +0.000 NA
ATOM     24  C   UNL     1      -0.426  11.347  22.035  0.00  0.00    +0.000 C 
ATOM     25  C   UNL     1      -0.290   9.332  23.332  0.00  0.00    +0.000 C 
ENDBRANCH  22  23
ENDBRANCH  21  22
ENDBRANCH   9  21
TORSDOF 5
ENDMDL
MODEL 9
REMARK VINA RESULT:      -6.1      2.473      8.779
REMARK  Name = 
REMARK  8 active torsions:
REMARK  status: ('A' for Active; 'I' for Inactive)
REMARK    1  A    between atoms: C_1  and  C_2
REMARK    2  A    between atoms: N_9  and  C_10
REMARK    3  A    between atoms: C_10  and  C_11
REMARK    4  A    between atoms: C_11  and  N_12
REMARK    5  A    between atoms: N_12  and  C_13
REMARK    6  A    between atoms: N_12  and  C_14
REMARK    7  A    between atoms: C_15  and  C_17
REMARK    8  A    between atoms: C_18  and  C_19
REMARK                            x       y       z     vdW  Elec       q    Type
REMARK                         _______ _______ _______ _____ _____    ______ ____
ROOT
ATOM      1  C   UNL     1       4.815   6.989  16.319  0.00  0.00    +0.000 C 
ATOM      2  C   UNL     1       4.470   6.056  17.447  0.00  0.00    +0.000 A 
ATOM      3  C   UNL     1       5.115   4.809  17.580  0.00  0.00    +0.000 A 
ATOM      4  C   UNL     1       4.787   3.943  18.642  0.00  0.00    +0.000 A 
ATOM      5  C   UNL     1       3.816   4.310  19.586  0.00  0.00    +0.000 A 
ATOM      6  C   UNL     1       3.198   5.547  19.441  0.00  0.00    +0.000 A 
ATOM      7  S   UNL     1       2.034   6.264  20.410  0.00  0.00    +0.000 S 
ATOM      8  C   UNL     1       1.942   7.672  19.444  0.00  0.00    +0.000 A 
ATOM      9  N   UNL     1       1.090   8.827  19.685  0.00  0.00    +0.000 N 
ATOM     10  C   UNL     1       0.516   9.022  20.935  0.00  0.00    +0.000 C 
ATOM     11  O   UNL     1       0.743   8.242  21.849  0.00  0.00    +0.000 OA
ATOM     12  N   UNL     1       2.805   7.569  18.402  0.00  0.00    +0.000 NA
ATOM     13  C   UNL     1       3.502   6.404  18.400  0.00  0.00    +0.000 A 
ENDROOT
BRANCH  10  14
ATOM     14  C   UNL     1      -0.366  10.195  21.245  0.00  0.00    +0.000 C 
ATOM     15  C   UNL     1      -0.312  10.850  22.421  0.00  0.00    +0.000 C 
BRANCH  15  16
ATOM     16  C   UNL     1      -1.193  12.000  22.714  0.00  0.00    +0.000 A 
ATOM     17  C   UNL     1      -2.512  11.910  23.143  0.00  0.00    +0.000 A 
ATOM     18  C   UNL     1      -3.117  13.161  23.333  0.00  0.00    +0.000 A 
ATOM     19  C   UNL     1      -2.278  14.233  23.058  0.00  0.00    +0.000 A 
ATOM     20  S   UNL     1      -0.787  13.632  22.580  0.00  0.00    +0.000 S 
ENDBRANCH  15  16
ENDBRANCH  10  14
BRANCH   9  21
ATOM     21  C   UNL     1       0.815   9.846  18.637  0.00  0.00    +0.000 C 
BRANCH  21  22
ATOM     22  C   UNL     1       1.891  10.931  18.414  0.00  0.00    +0.000 C 
BRANCH  22  23
ATOM     23  N   UNL     1       1.406  12.317  18.602  0.00  0.00    +0.000 NA
ATOM     24  C   UNL     1      -0.065  12.395  18.607  0.00  0.00    +0.000 C 
ATOM     25  C   UNL     1       1.918  12.812  19.894  0.00  0.00    +0.000 C 
ENDBRANCH  22  23
ENDBRANCH  21  22
ENDBRANCH   9  21
TORSDOF 5
ENDMDL
