MODEL 1
REMARK VINA RESULT:      -7.7      0.000      0.000
REMARK  Name = 
REMARK  5 active torsions:
REMARK  status: ('A' for Active; 'I' for Inactive)
REMARK    1  A    between atoms: C_1  and  C_2
REMARK    2  A    between atoms: N_6  and  C_7
REMARK    3  A    between atoms: C_10  and  C_11
REMARK    4  A    between atoms: C_17  and  C_18
REMARK    5  A    between atoms: C_23  and  N_24
REMARK                            x       y       z     vdW  Elec       q    Type
REMARK                         _______ _______ _______ _____ _____    ______ ____
ROOT
ATOM      1  C   UNL     1       3.118   5.629  19.254  0.00  0.00    +0.000 A 
ATOM      2  C   UNL     1       3.147   7.019  19.025  0.00  0.00    +0.000 A 
ATOM      3  C   UNL     1       2.312   7.925  19.696  0.00  0.00    +0.000 A 
ATOM      4  C   UNL     1       1.364   7.492  20.626  0.00  0.00    +0.000 A 
ATOM      5  C   UNL     1       1.299   6.130  20.898  0.00  0.00    +0.000 A 
ATOM      6  C   UNL     1       2.175   5.233  20.230  0.00  0.00    +0.000 A 
ENDROOT
BRANCH   4   7
ATOM      7  C   UNL     1       0.463   8.531  21.218  0.00  0.00    +0.000 C 
ATOM      8  O   UNL     1      -0.626   8.150  21.638  0.00  0.00    +0.000 OA
ATOM      9  N   UNL     1       0.911   9.833  21.224  0.00  0.00    +0.000 N 
ATOM     10  C   UNL     1       0.238  10.899  21.785  0.00  0.00    +0.000 A 
ATOM     11  N   UNL     1       0.587  12.148  21.568  0.00  0.00    +0.000 NA
ATOM     12  N   UNL     1      -0.258  13.040  22.207  0.00  0.00    +0.000 NA
ATOM     13  C   UNL     1      -1.171  12.417  22.922  0.00  0.00    +0.000 A 
ATOM     14  S   UNL     1      -1.064  10.714  22.874  0.00  0.00    +0.000 S 
ATOM     15  H   UNL     1       1.716  10.121  20.692  0.00  0.00    +0.000 HD
BRANCH  13  16
ATOM     16  C   UNL     1      -2.249  13.139  23.725  0.00  0.00    +0.000 C 
ATOM     17  C   UNL     1      -3.480  13.648  23.004  0.00  0.00    +0.000 C 
ATOM     18  C   UNL     1      -3.591  12.459  23.895  0.00  0.00    +0.000 C 
ENDBRANCH  13  16
ENDBRANCH   4   7
BRANCH   1  24
ATOM     19  C   UNL     1       4.986   6.250  15.975  0.00  0.00    +0.000 C 
ATOM     20  C   UNL     1       4.873   4.738  16.204  0.00  0.00    +0.000 C 
ATOM     21  C   UNL     1       6.166   4.146  16.775  0.00  0.00    +0.000 C 
ATOM     22  C   UNL     1       6.375   4.529  18.239  0.00  0.00    +0.000 C 
ATOM     23  C   UNL     1       5.144   4.176  19.074  0.00  0.00    +0.000 C 
ATOM     24  N   UNL     1       3.944   4.812  18.496  0.00  0.00    +0.000 N 
ATOM     25  C   UNL     1       3.670   4.413  17.107  0.00  0.00    +0.000 C 
ENDBRANCH   1  24
BRANCH   6  26
ATOM     26  N   UNL     1       2.077   3.858  20.686  0.00  0.00    +0.000 N 
ATOM     27  O   UNL     1       2.373   3.619  21.864  0.00  0.00    +0.000 OA
ATOM     28  O   UNL     1       1.635   3.033  19.873  0.00  0.00    +0.000 OA
ENDBRANCH   6  26
TORSDOF 4
ENDMDL
MODEL 2
REMARK VINA RESULT:      -7.7      3.049      9.457
REMARK  Name = 
REMARK  5 active torsions:
REMARK  status: ('A' for Active; 'I' for Inactive)
REMARK    1  A    between atoms: C_1  and  C_2
REMARK    2  A    between atoms: N_6  and  C_7
REMARK    3  A    between atoms: C_10  and  C_11
REMARK    4  A    between atoms: C_17  and  C_18
REMARK    5  A    between atoms: C_23  and  N_24
REMARK                            x       y       z     vdW  Elec       q    Type
REMARK                         _______ _______ _______ _____ _____    ______ ____
ROOT
ATOM      1  C   UNL     1       0.107  10.871  20.364  0.00  0.00    +0.000 A 
ATOM      2  C   UNL     1       0.487  11.027  19.017  0.00  0.00    +0.000 A 
ATOM      3  C   UNL     1       1.229  10.066  18.312  0.00  0.00    +0.000 A 
ATOM      4  C   UNL     1       1.666   8.889  18.925  0.00  0.00    +0.000 A 
ATOM      5  C   UNL     1       1.309   8.680  20.252  0.00  0.00    +0.000 A 
ATOM      6  C   UNL     1       0.532   9.651  20.938  0.00  0.00    +0.000 A 
ENDROOT
BRANCH   4   7
ATOM      7  C   UNL     1       2.525   7.973  18.110  0.00  0.00    +0.000 C 
ATOM      8  O   UNL     1       3.114   8.466  17.153  0.00  0.00    +0.000 OA
ATOM      9  N   UNL     1       2.570   6.647  18.479  0.00  0.00    +0.000 N 
ATOM     10  C   UNL     1       3.355   5.685  17.879  0.00  0.00    +0.000 A 
ATOM     11  N   UNL     1       3.197   4.400  18.108  0.00  0.00    +0.000 NA
ATOM     12  N   UNL     1       4.076   3.629  17.366  0.00  0.00    +0.000 NA
ATOM     13  C   UNL     1       4.893   4.376  16.653  0.00  0.00    +0.000 A 
ATOM     14  S   UNL     1       4.658   6.056  16.840  0.00  0.00    +0.000 S 
ATOM     15  H   UNL     1       1.919   6.257  19.141  0.00  0.00    +0.000 HD
BRANCH  13  16
ATOM     16  C   UNL     1       5.962   3.805  15.725  0.00  0.00    +0.000 C 
ATOM     17  C   UNL     1       5.847   4.057  14.236  0.00  0.00    +0.000 C 
ATOM     18  C   UNL     1       6.891   4.773  15.023  0.00  0.00    +0.000 C 
ENDBRANCH  13  16
ENDBRANCH   4   7
BRANCH   1  24
ATOM     19  C   UNL     1      -0.024  14.624  19.637  0.00  0.00    +0.000 C 
ATOM     20  C   UNL     1      -0.505  14.378  21.072  0.00  0.00    +0.000 C 
ATOM     21  C   UNL     1      -2.035  14.392  21.174  0.00  0.00    +0.000 C 
ATOM     22  C   UNL     1      -2.661  13.140  20.563  0.00  0.00    +0.000 C 
ATOM     23  C   UNL     1      -2.040  11.875  21.157  0.00  0.00    +0.000 C 
ATOM     24  N   UNL     1      -0.575  11.907  20.987  0.00  0.00    +0.000 N 
ATOM     25  C   UNL     1       0.074  13.064  21.623  0.00  0.00    +0.000 C 
ENDBRANCH   1  24
BRANCH   6  26
ATOM     26  N   UNL     1       0.140   9.259  22.279  0.00  0.00    +0.000 N 
ATOM     27  O   UNL     1       0.725   9.793  23.231  0.00  0.00    +0.000 OA
ATOM     28  O   UNL     1      -0.805   8.462  22.372  0.00  0.00    +0.000 OA
ENDBRANCH   6  26
TORSDOF 4
ENDMDL
MODEL 3
REMARK VINA RESULT:      -7.4      3.627      4.478
REMARK  Name = 
REMARK  5 active torsions:
REMARK  status: ('A' for Active; 'I' for Inactive)
REMARK    1  A    between atoms: C_1  and  C_2
REMARK    2  A    between atoms: N_6  and  C_7
REMARK    3  A    between atoms: C_10  and  C_11
REMARK    4  A    between atoms: C_17  and  C_18
REMARK    5  A    between atoms: C_23  and  N_24
REMARK                            x       y       z     vdW  Elec       q    Type
REMARK                         _______ _______ _______ _____ _____    ______ ____
ROOT
ATOM      1  C   UNL     1       3.405   5.689  18.010  0.00  0.00    +0.000 A 
ATOM      2  C   UNL     1       2.144   5.988  18.564  0.00  0.00    +0.000 A 
ATOM      3  C   UNL     1       1.577   7.271  18.535  0.00  0.00    +0.000 A 
ATOM      4  C   UNL     1       2.254   8.354  17.970  0.00  0.00    +0.000 A 
ATOM      5  C   UNL     1       3.499   8.114  17.400  0.00  0.00    +0.000 A 
ATOM      6  C   UNL     1       4.041   6.801  17.413  0.00  0.00    +0.000 A 
ENDROOT
BRANCH   4   7
ATOM      7  C   UNL     1       1.599   9.698  18.070  0.00  0.00    +0.000 C 
ATOM      8  O   UNL     1       0.371   9.721  18.046  0.00  0.00    +0.000 OA
ATOM      9  N   UNL     1       2.418  10.801  18.155  0.00  0.00    +0.000 N 
ATOM     10  C   UNL     1       1.982  12.099  18.315  0.00  0.00    +0.000 A 
ATOM     11  N   UNL     1       2.776  13.136  18.161  0.00  0.00    +0.000 NA
ATOM     12  N   UNL     1       2.104  14.334  18.337  0.00  0.00    +0.000 NA
ATOM     13  C   UNL     1       0.846  14.140  18.671  0.00  0.00    +0.000 A 
ATOM     14  S   UNL     1       0.395  12.499  18.801  0.00  0.00    +0.000 S 
ATOM     15  H   UNL     1       3.406  10.745  17.970  0.00  0.00    +0.000 HD
BRANCH  13  16
ATOM     16  C   UNL     1      -0.144  15.276  18.917  0.00  0.00    +0.000 C 
ATOM     17  C   UNL     1      -0.213  15.900  20.296  0.00  0.00    +0.000 C 
ATOM     18  C   UNL     1       0.407  16.662  19.175  0.00  0.00    +0.000 C 
ENDBRANCH  13  16
ENDBRANCH   4   7
BRANCH   1  24
ATOM     19  C   UNL     1       2.818   3.005  20.671  0.00  0.00    +0.000 C 
ATOM     20  C   UNL     1       4.099   2.669  19.899  0.00  0.00    +0.000 C 
ATOM     21  C   UNL     1       3.860   1.596  18.830  0.00  0.00    +0.000 C 
ATOM     22  C   UNL     1       3.076   2.139  17.638  0.00  0.00    +0.000 C 
ATOM     23  C   UNL     1       3.742   3.396  17.076  0.00  0.00    +0.000 C 
ATOM     24  N   UNL     1       3.902   4.401  18.144  0.00  0.00    +0.000 N 
ATOM     25  C   UNL     1       4.712   3.937  19.282  0.00  0.00    +0.000 C 
ENDBRANCH   1  24
BRANCH   6  26
ATOM     26  N   UNL     1       5.293   6.669  16.690  0.00  0.00    +0.000 N 
ATOM     27  O   UNL     1       5.246   6.664  15.452  0.00  0.00    +0.000 OA
ATOM     28  O   UNL     1       6.328   6.638  17.371  0.00  0.00    +0.000 OA
ENDBRANCH   6  26
TORSDOF 4
ENDMDL
MODEL 4
REMARK VINA RESULT:      -7.4      1.396      1.506
REMARK  Name = 
REMARK  5 active torsions:
REMARK  status: ('A' for Active; 'I' for Inactive)
REMARK    1  A    between atoms: C_1  and  C_2
REMARK    2  A    between atoms: N_6  and  C_7
REMARK    3  A    between atoms: C_10  and  C_11
REMARK    4  A    between atoms: C_17  and  C_18
REMARK    5  A    between atoms: C_23  and  N_24
REMARK                            x       y       z     vdW  Elec       q    Type
REMARK                         _______ _______ _______ _____ _____    ______ ____
ROOT
ATOM      1  C   UNL     1       3.774   5.870  18.248  0.00  0.00    +0.000 A 
ATOM      2  C   UNL     1       3.811   7.188  17.754  0.00  0.00    +0.000 A 
ATOM      3  C   UNL     1       2.985   8.214  18.240  0.00  0.00    +0.000 A 
ATOM      4  C   UNL     1       2.040   7.976  19.241  0.00  0.00    +0.000 A 
ATOM      5  C   UNL     1       1.968   6.693  19.772  0.00  0.00    +0.000 A 
ATOM      6  C   UNL     1       2.835   5.677  19.286  0.00  0.00    +0.000 A 
ENDROOT
BRANCH   4   7
ATOM      7  C   UNL     1       1.149   9.117  19.625  0.00  0.00    +0.000 C 
ATOM      8  O   UNL     1       0.678   9.787  18.711  0.00  0.00    +0.000 OA
ATOM      9  N   UNL     1       0.947   9.342  20.969  0.00  0.00    +0.000 N 
ATOM     10  C   UNL     1       0.111  10.305  21.492  0.00  0.00    +0.000 A 
ATOM     11  N   UNL     1       0.123  10.636  22.764  0.00  0.00    +0.000 NA
ATOM     12  N   UNL     1      -0.778  11.651  23.045  0.00  0.00    +0.000 NA
ATOM     13  C   UNL     1      -1.467  11.997  21.977  0.00  0.00    +0.000 A 
ATOM     14  S   UNL     1      -1.076  11.115  20.569  0.00  0.00    +0.000 S 
ATOM     15  H   UNL     1       1.510   8.894  21.673  0.00  0.00    +0.000 HD
BRANCH  13  16
ATOM     16  C   UNL     1      -2.523  13.098  21.978  0.00  0.00    +0.000 C 
ATOM     17  C   UNL     1      -3.979  12.713  22.142  0.00  0.00    +0.000 C 
ATOM     18  C   UNL     1      -3.265  13.378  23.268  0.00  0.00    +0.000 C 
ENDBRANCH  13  16
ENDBRANCH   4   7
BRANCH   1  24
ATOM     19  C   UNL     1       5.432   5.725  14.805  0.00  0.00    +0.000 C 
ATOM     20  C   UNL     1       5.394   4.312  15.398  0.00  0.00    +0.000 C 
ATOM     21  C   UNL     1       6.741   3.911  16.012  0.00  0.00    +0.000 C 
ATOM     22  C   UNL     1       7.014   4.644  17.324  0.00  0.00    +0.000 C 
ATOM     23  C   UNL     1       5.846   4.472  18.296  0.00  0.00    +0.000 C 
ATOM     24  N   UNL     1       4.591   4.915  17.659  0.00  0.00    +0.000 N 
ATOM     25  C   UNL     1       4.258   4.183  16.426  0.00  0.00    +0.000 C 
ENDBRANCH   1  24
BRANCH   6  26
ATOM     26  N   UNL     1       2.730   4.417  20.000  0.00  0.00    +0.000 N 
ATOM     27  O   UNL     1       2.873   4.438  21.230  0.00  0.00    +0.000 OA
ATOM     28  O   UNL     1       2.438   3.419  19.326  0.00  0.00    +0.000 OA
ENDBRANCH   6  26
TORSDOF 4
ENDMDL
MODEL 5
REMARK VINA RESULT:      -7.3      1.598      1.947
REMARK  Name = 
REMARK  5 active torsions:
REMARK  status: ('A' for Active; 'I' for Inactive)
REMARK    1  A    between atoms: C_1  and  C_2
REMARK    2  A    between atoms: N_6  and  C_7
REMARK    3  A    between atoms: C_10  and  C_11
REMARK    4  A    between atoms: C_17  and  C_18
REMARK    5  A    between atoms: C_23  and  N_24
REMARK                            x       y       z     vdW  Elec       q    Type
REMARK                         _______ _______ _______ _____ _____    ______ ____
ROOT
ATOM      1  C   UNL     1       3.500   6.623  17.864  0.00  0.00    +0.000 A 
ATOM      2  C   UNL     1       2.935   7.854  17.478  0.00  0.00    +0.000 A 
ATOM      3  C   UNL     1       2.109   8.617  18.319  0.00  0.00    +0.000 A 
ATOM      4  C   UNL     1       1.769   8.177  19.600  0.00  0.00    +0.000 A 
ATOM      5  C   UNL     1       2.307   6.972  20.035  0.00  0.00    +0.000 A 
ATOM      6  C   UNL     1       3.165   6.231  19.180  0.00  0.00    +0.000 A 
ENDROOT
BRANCH   4   7
ATOM      7  C   UNL     1       0.810   9.024  20.381  0.00  0.00    +0.000 C 
ATOM      8  O   UNL     1       0.649   8.735  21.563  0.00  0.00    +0.000 OA
ATOM      9  N   UNL     1       0.167  10.040  19.710  0.00  0.00    +0.000 N 
ATOM     10  C   UNL     1      -0.694  10.948  20.289  0.00  0.00    +0.000 A 
ATOM     11  N   UNL     1      -1.457  11.750  19.580  0.00  0.00    +0.000 NA
ATOM     12  N   UNL     1      -2.262  12.544  20.381  0.00  0.00    +0.000 NA
ATOM     13  C   UNL     1      -2.023  12.341  21.660  0.00  0.00    +0.000 A 
ATOM     14  S   UNL     1      -0.809  11.183  21.976  0.00  0.00    +0.000 S 
ATOM     15  H   UNL     1       0.183  10.108  18.706  0.00  0.00    +0.000 HD
BRANCH  13  16
ATOM     16  C   UNL     1      -2.767  13.063  22.780  0.00  0.00    +0.000 C 
ATOM     17  C   UNL     1      -4.272  12.915  22.871  0.00  0.00    +0.000 C 
ATOM     18  C   UNL     1      -3.405  12.228  23.870  0.00  0.00    +0.000 C 
ENDBRANCH  13  16
ENDBRANCH   4   7
BRANCH   1  24
ATOM     19  C   UNL     1       7.270   6.052  17.569  0.00  0.00    +0.000 C 
ATOM     20  C   UNL     1       6.615   5.758  16.214  0.00  0.00    +0.000 C 
ATOM     21  C   UNL     1       6.416   4.254  15.987  0.00  0.00    +0.000 C 
ATOM     22  C   UNL     1       5.292   3.688  16.852  0.00  0.00    +0.000 C 
ATOM     23  C   UNL     1       4.004   4.490  16.663  0.00  0.00    +0.000 C 
ATOM     24  N   UNL     1       4.255   5.918  16.938  0.00  0.00    +0.000 N 
ATOM     25  C   UNL     1       5.285   6.518  16.076  0.00  0.00    +0.000 C 
ENDBRANCH   1  24
BRANCH   6  26
ATOM     26  N   UNL     1       3.743   5.051  19.797  0.00  0.00    +0.000 N 
ATOM     27  O   UNL     1       4.964   5.048  20.006  0.00  0.00    +0.000 OA
ATOM     28  O   UNL     1       2.954   4.155  20.132  0.00  0.00    +0.000 OA
ENDBRANCH   6  26
TORSDOF 4
ENDMDL
MODEL 6
REMARK VINA RESULT:      -7.3      1.685      2.367
REMARK  Name = 
REMARK  5 active torsions:
REMARK  status: ('A' for Active; 'I' for Inactive)
REMARK    1  A    between atoms: C_1  and  C_2
REMARK    2  A    between atoms: N_6  and  C_7
REMARK    3  A    between atoms: C_10  and  C_11
REMARK    4  A    between atoms: C_17  and  C_18
REMARK    5  A    between atoms: C_23  and  N_24
REMARK                            x       y       z     vdW  Elec       q    Type
REMARK                         _______ _______ _______ _____ _____    ______ ____
ROOT
ATOM      1  C   UNL     1       2.737   5.461  18.816  0.00  0.00    +0.000 A 
ATOM      2  C   UNL     1       2.964   6.678  18.143  0.00  0.00    +0.000 A 
ATOM      3  C   UNL     1       2.471   7.911  18.598  0.00  0.00    +0.000 A 
ATOM      4  C   UNL     1       1.688   8.001  19.752  0.00  0.00    +0.000 A 
ATOM      5  C   UNL     1       1.442   6.831  20.461  0.00  0.00    +0.000 A 
ATOM      6  C   UNL     1       1.975   5.599  19.999  0.00  0.00    +0.000 A 
ENDROOT
BRANCH   4   7
ATOM      7  C   UNL     1       1.140   9.351  20.101  0.00  0.00    +0.000 C 
ATOM      8  O   UNL     1       1.258  10.235  19.258  0.00  0.00    +0.000 OA
ATOM      9  N   UNL     1       0.571   9.503  21.346  0.00  0.00    +0.000 N 
ATOM     10  C   UNL     1      -0.035  10.655  21.802  0.00  0.00    +0.000 A 
ATOM     11  N   UNL     1      -0.357  10.832  23.065  0.00  0.00    +0.000 NA
ATOM     12  N   UNL     1      -0.919  12.078  23.287  0.00  0.00    +0.000 NA
ATOM     13  C   UNL     1      -1.045  12.760  22.168  0.00  0.00    +0.000 A 
ATOM     14  S   UNL     1      -0.500  11.937  20.775  0.00  0.00    +0.000 S 
ATOM     15  H   UNL     1       0.678   8.811  22.068  0.00  0.00    +0.000 HD
BRANCH  13  16
ATOM     16  C   UNL     1      -1.620  14.173  22.103  0.00  0.00    +0.000 C 
ATOM     17  C   UNL     1      -3.108  14.346  21.880  0.00  0.00    +0.000 C 
ATOM     18  C   UNL     1      -2.530  14.627  23.224  0.00  0.00    +0.000 C 
ENDBRANCH  13  16
ENDBRANCH   4   7
BRANCH   1  24
ATOM     19  C   UNL     1       4.237   2.314  20.388  0.00  0.00    +0.000 C 
ATOM     20  C   UNL     1       4.624   2.362  18.906  0.00  0.00    +0.000 C 
ATOM     21  C   UNL     1       3.732   1.453  18.050  0.00  0.00    +0.000 C 
ATOM     22  C   UNL     1       2.326   2.024  17.883  0.00  0.00    +0.000 C 
ATOM     23  C   UNL     1       2.380   3.461  17.361  0.00  0.00    +0.000 C 
ATOM     24  N   UNL     1       3.217   4.288  18.250  0.00  0.00    +0.000 N 
ATOM     25  C   UNL     1       4.601   3.808  18.383  0.00  0.00    +0.000 C 
ENDBRANCH   1  24
BRANCH   6  26
ATOM     26  N   UNL     1       1.734   4.477  20.888  0.00  0.00    +0.000 N 
ATOM     27  O   UNL     1       2.435   4.387  21.906  0.00  0.00    +0.000 OA
ATOM     28  O   UNL     1       0.793   3.725  20.594  0.00  0.00    +0.000 OA
ENDBRANCH   6  26
TORSDOF 4
ENDMDL
MODEL 7
REMARK VINA RESULT:      -7.3      3.171      4.113
REMARK  Name = 
REMARK  5 active torsions:
REMARK  status: ('A' for Active; 'I' for Inactive)
REMARK    1  A    between atoms: C_1  and  C_2
REMARK    2  A    between atoms: N_6  and  C_7
REMARK    3  A    between atoms: C_10  and  C_11
REMARK    4  A    between atoms: C_17  and  C_18
REMARK    5  A    between atoms: C_23  and  N_24
REMARK                            x       y       z     vdW  Elec       q    Type
REMARK                         _______ _______ _______ _____ _____    ______ ____
ROOT
ATOM      1  C   UNL     1       3.472   5.552  18.078  0.00  0.00    +0.000 A 
ATOM      2  C   UNL     1       2.302   5.911  18.775  0.00  0.00    +0.000 A 
ATOM      3  C   UNL     1       1.819   7.228  18.837  0.00  0.00    +0.000 A 
ATOM      4  C   UNL     1       2.498   8.283  18.224  0.00  0.00    +0.000 A 
ATOM      5  C   UNL     1       3.655   7.983  17.514  0.00  0.00    +0.000 A 
ATOM      6  C   UNL     1       4.109   6.639  17.438  0.00  0.00    +0.000 A 
ENDROOT
BRANCH   4   7
ATOM      7  C   UNL     1       1.945   9.660  18.426  0.00  0.00    +0.000 C 
ATOM      8  O   UNL     1       2.136  10.474  17.526  0.00  0.00    +0.000 OA
ATOM      9  N   UNL     1       1.290   9.916  19.609  0.00  0.00    +0.000 N 
ATOM     10  C   UNL     1       0.669  11.105  19.929  0.00  0.00    +0.000 A 
ATOM     11  N   UNL     1       0.260  11.384  21.147  0.00  0.00    +0.000 NA
ATOM     12  N   UNL     1      -0.299  12.649  21.229  0.00  0.00    +0.000 NA
ATOM     13  C   UNL     1      -0.334  13.241  20.054  0.00  0.00    +0.000 A 
ATOM     14  S   UNL     1       0.298  12.306  18.773  0.00  0.00    +0.000 S 
ATOM     15  H   UNL     1       1.335   9.281  20.390  0.00  0.00    +0.000 HD
BRANCH  13  16
ATOM     16  C   UNL     1      -0.883  14.648  19.836  0.00  0.00    +0.000 C 
ATOM     17  C   UNL     1      -0.010  15.835  20.190  0.00  0.00    +0.000 C 
ATOM     18  C   UNL     1      -0.252  15.504  18.757  0.00  0.00    +0.000 C 
ENDBRANCH  13  16
ENDBRANCH   4   7
BRANCH   1  24
ATOM     19  C   UNL     1       2.982   2.824  20.713  0.00  0.00    +0.000 C 
ATOM     20  C   UNL     1       4.157   2.435  19.808  0.00  0.00    +0.000 C 
ATOM     21  C   UNL     1       3.745   1.414  18.741  0.00  0.00    +0.000 C 
ATOM     22  C   UNL     1       2.882   2.042  17.648  0.00  0.00    +0.000 C 
ATOM     23  C   UNL     1       3.568   3.274  17.055  0.00  0.00    +0.000 C 
ATOM     24  N   UNL     1       3.898   4.232  18.127  0.00  0.00    +0.000 N 
ATOM     25  C   UNL     1       4.785   3.683  19.165  0.00  0.00    +0.000 C 
ENDBRANCH   1  24
BRANCH   6  26
ATOM     26  N   UNL     1       5.263   6.451  16.577  0.00  0.00    +0.000 N 
ATOM     27  O   UNL     1       5.118   6.656  15.364  0.00  0.00    +0.000 OA
ATOM     28  O   UNL     1       6.332   6.162  17.134  0.00  0.00    +0.000 OA
ENDBRANCH   6  26
TORSDOF 4
ENDMDL
MODEL 8
REMARK VINA RESULT:      -7.3      8.051     10.882
REMARK  Name = 
REMARK  5 active torsions:
REMARK  status: ('A' for Active; 'I' for Inactive)
REMARK    1  A    between atoms: C_1  and  C_2
REMARK    2  A    between atoms: N_6  and  C_7
REMARK    3  A    between atoms: C_10  and  C_11
REMARK    4  A    between atoms: C_17  and  C_18
REMARK    5  A    between atoms: C_23  and  N_24
REMARK                            x       y       z     vdW  Elec       q    Type
REMARK                         _______ _______ _______ _____ _____    ______ ____
ROOT
ATOM      1  C   UNL     1       9.589  12.430  18.170  0.00  0.00    +0.000 A 
ATOM      2  C   UNL     1       8.486  12.024  17.392  0.00  0.00    +0.000 A 
ATOM      3  C   UNL     1       7.959  10.723  17.426  0.00  0.00    +0.000 A 
ATOM      4  C   UNL     1       8.526   9.729  18.226  0.00  0.00    +0.000 A 
ATOM      5  C   UNL     1       9.611  10.077  19.022  0.00  0.00    +0.000 A 
ATOM      6  C   UNL     1      10.109  11.407  18.995  0.00  0.00    +0.000 A 
ENDROOT
BRANCH   4   7
ATOM      7  C   UNL     1       7.943   8.353  18.122  0.00  0.00    +0.000 C 
ATOM      8  O   UNL     1       8.442   7.482  18.828  0.00  0.00    +0.000 OA
ATOM      9  N   UNL     1       6.912   8.165  17.228  0.00  0.00    +0.000 N 
ATOM     10  C   UNL     1       6.223   6.983  17.053  0.00  0.00    +0.000 A 
ATOM     11  N   UNL     1       5.411   6.783  16.039  0.00  0.00    +0.000 NA
ATOM     12  N   UNL     1       4.864   5.510  16.057  0.00  0.00    +0.000 NA
ATOM     13  C   UNL     1       5.248   4.832  17.117  0.00  0.00    +0.000 A 
ATOM     14  S   UNL     1       6.289   5.689  18.164  0.00  0.00    +0.000 S 
ATOM     15  H   UNL     1       6.676   8.857  16.536  0.00  0.00    +0.000 HD
BRANCH  13  16
ATOM     16  C   UNL     1       4.817   3.395  17.400  0.00  0.00    +0.000 C 
ATOM     17  C   UNL     1       4.032   3.103  18.662  0.00  0.00    +0.000 C 
ATOM     18  C   UNL     1       3.339   3.067  17.343  0.00  0.00    +0.000 C 
ENDBRANCH  13  16
ENDBRANCH   4   7
BRANCH   1  24
ATOM     19  C   UNL     1      10.591  15.081  20.738  0.00  0.00    +0.000 C 
ATOM     20  C   UNL     1      10.342  15.765  19.388  0.00  0.00    +0.000 C 
ATOM     21  C   UNL     1      11.651  16.057  18.644  0.00  0.00    +0.000 C 
ATOM     22  C   UNL     1      12.287  14.788  18.082  0.00  0.00    +0.000 C 
ATOM     23  C   UNL     1      11.284  14.008  17.231  0.00  0.00    +0.000 C 
ATOM     24  N   UNL     1      10.070  13.722  18.019  0.00  0.00    +0.000 N 
ATOM     25  C   UNL     1       9.389  14.926  18.520  0.00  0.00    +0.000 C 
ENDBRANCH   1  24
BRANCH   6  26
ATOM     26  N   UNL     1      11.171  11.663  19.952  0.00  0.00    +0.000 N 
ATOM     27  O   UNL     1      10.848  11.882  21.127  0.00  0.00    +0.000 OA
ATOM     28  O   UNL     1      12.333  11.575  19.529  0.00  0.00    +0.000 OA
ENDBRANCH   6  26
TORSDOF 4
ENDMDL
MODEL 9
REMARK VINA RESULT:      -7.3      2.947      9.463
REMARK  Name = 
REMARK  5 active torsions:
REMARK  status: ('A' for Active; 'I' for Inactive)
REMARK    1  A    between atoms: C_1  and  C_2
REMARK    2  A    between atoms: N_6  and  C_7
REMARK    3  A    between atoms: C_10  and  C_11
REMARK    4  A    between atoms: C_17  and  C_18
REMARK    5  A    between atoms: C_23  and  N_24
REMARK                            x       y       z     vdW  Elec       q    Type
REMARK                         _______ _______ _______ _____ _____    ______ ____
ROOT
ATOM      1  C   UNL     1       0.150  10.793  20.365  0.00  0.00    +0.000 A 
ATOM      2  C   UNL     1       0.508  10.956  19.012  0.00  0.00    +0.000 A 
ATOM      3  C   UNL     1       1.251  10.006  18.295  0.00  0.00    +0.000 A 
ATOM      4  C   UNL     1       1.712   8.834  18.899  0.00  0.00    +0.000 A 
ATOM      5  C   UNL     1       1.378   8.618  20.231  0.00  0.00    +0.000 A 
ATOM      6  C   UNL     1       0.599   9.578  20.930  0.00  0.00    +0.000 A 
ENDROOT
BRANCH   4   7
ATOM      7  C   UNL     1       2.571   7.930  18.069  0.00  0.00    +0.000 C 
ATOM      8  O   UNL     1       3.145   8.434  17.109  0.00  0.00    +0.000 OA
ATOM      9  N   UNL     1       2.630   6.602  18.430  0.00  0.00    +0.000 N 
ATOM     10  C   UNL     1       3.417   5.650  17.816  0.00  0.00    +0.000 A 
ATOM     11  N   UNL     1       3.273   4.363  18.038  0.00  0.00    +0.000 NA
ATOM     12  N   UNL     1       4.150   3.604  17.281  0.00  0.00    +0.000 NA
ATOM     13  C   UNL     1       4.954   4.362  16.566  0.00  0.00    +0.000 A 
ATOM     14  S   UNL     1       4.706   6.039  16.766  0.00  0.00    +0.000 S 
ATOM     15  H   UNL     1       1.990   6.203  19.096  0.00  0.00    +0.000 HD
BRANCH  13  16
ATOM     16  C   UNL     1       6.018   3.806  15.623  0.00  0.00    +0.000 C 
ATOM     17  C   UNL     1       5.868   4.038  14.134  0.00  0.00    +0.000 C 
ATOM     18  C   UNL     1       6.909   4.788  14.891  0.00  0.00    +0.000 C 
ENDBRANCH  13  16
ENDBRANCH   4   7
BRANCH   1  24
ATOM     19  C   UNL     1      -3.333  12.263  19.780  0.00  0.00    +0.000 C 
ATOM     20  C   UNL     1      -2.498  13.267  20.583  0.00  0.00    +0.000 C 
ATOM     21  C   UNL     1      -2.821  13.215  22.081  0.00  0.00    +0.000 C 
ATOM     22  C   UNL     1      -2.266  11.957  22.744  0.00  0.00    +0.000 C 
ATOM     23  C   UNL     1      -0.772  11.804  22.456  0.00  0.00    +0.000 C 
ATOM     24  N   UNL     1      -0.536  11.819  21.000  0.00  0.00    +0.000 N 
ATOM     25  C   UNL     1      -0.995  13.048  20.334  0.00  0.00    +0.000 C 
ENDBRANCH   1  24
BRANCH   6  26
ATOM     26  N   UNL     1       0.232   9.178  22.276  0.00  0.00    +0.000 N 
ATOM     27  O   UNL     1      -0.808   8.519  22.418  0.00  0.00    +0.000 OA
ATOM     28  O   UNL     1       1.027   9.471  23.180  0.00  0.00    +0.000 OA
ENDBRANCH   6  26
TORSDOF 4
ENDMDL
