MODEL 1
REMARK VINA RESULT:      -7.8      0.000      0.000
REMARK  Name = 
REMARK  8 active torsions:
REMARK  status: ('A' for Active; 'I' for Inactive)
REMARK    1  A    between atoms: C_1  and  O_2
REMARK    2  A    between atoms: O_2  and  C_3
REMARK    3  A    between atoms: C_9  and  N_10
REMARK    4  A    between atoms: C_11  and  C_13
REMARK    5  A    between atoms: C_13  and  C_14
REMARK    6  A    between atoms: C_14  and  S_15
REMARK    7  A    between atoms: S_15  and  C_18
REMARK    8  A    between atoms: C_21  and  C_22
REMARK                            x       y       z     vdW  Elec       q    Type
REMARK                         _______ _______ _______ _____ _____    ______ ____
ROOT
ATOM      1  N   UNL     1       9.306   9.446  19.266  0.00  0.00    +0.000 N 
ATOM      2  C   UNL     1       8.414   8.828  18.387  0.00  0.00    +0.000 C 
ATOM      3  O   UNL     1       7.723   9.413  17.542  0.00  0.00    +0.000 OA
ATOM      4  H   UNL     1       9.731   8.890  20.006  0.00  0.00    +0.000 HD
ENDROOT
BRANCH   1  11
ATOM      5  C   UNL     1       9.444  11.684  20.391  0.00  0.00    +0.000 A 
ATOM      6  C   UNL     1       9.816  13.045  20.320  0.00  0.00    +0.000 A 
ATOM      7  C   UNL     1      10.340  13.598  19.160  0.00  0.00    +0.000 A 
ATOM      8  C   UNL     1      10.531  12.783  18.061  0.00  0.00    +0.000 A 
ATOM      9 CL   UNL     1      11.218  13.449  16.635  0.00  0.00    +0.000 Cl
ATOM     10  C   UNL     1      10.197  11.428  18.114  0.00  0.00    +0.000 A 
ATOM     11  C   UNL     1       9.642  10.843  19.263  0.00  0.00    +0.000 A 
BRANCH   5  13
ATOM     12  C   UNL     1       8.156  12.183  22.311  0.00  0.00    +0.000 C 
ATOM     13  O   UNL     1       8.862  11.186  21.541  0.00  0.00    +0.000 OA
ENDBRANCH   5  13
ENDBRANCH   1  11
BRANCH   2  14
ATOM     14  C   UNL     1       8.187   7.343  18.570  0.00  0.00    +0.000 C 
BRANCH  14  15
ATOM     15  C   UNL     1       7.245   6.850  17.471  0.00  0.00    +0.000 C 
BRANCH  15  16
ATOM     16  S   UNL     1       7.104   5.090  17.428  0.00  0.00    +0.000 S 
ATOM     17  O   UNL     1       7.267   4.635  16.054  0.00  0.00    +0.000 OA
ATOM     18  O   UNL     1       7.959   4.561  18.484  0.00  0.00    +0.000 OA
BRANCH  16  19
ATOM     19  C   UNL     1       5.411   4.754  17.902  0.00  0.00    +0.000 A 
ATOM     20  C   UNL     1       4.341   5.353  17.233  0.00  0.00    +0.000 A 
ATOM     21  C   UNL     1       3.027   5.076  17.642  0.00  0.00    +0.000 A 
ATOM     22  C   UNL     1       2.779   4.196  18.704  0.00  0.00    +0.000 A 
ATOM     23  C   UNL     1       1.382   3.930  19.192  0.00  0.00    +0.000 C 
ATOM     24  C   UNL     1       3.863   3.567  19.331  0.00  0.00    +0.000 A 
ATOM     25  C   UNL     1       5.174   3.838  18.927  0.00  0.00    +0.000 A 
ENDBRANCH  16  19
ENDBRANCH  15  16
ENDBRANCH  14  15
ENDBRANCH   2  14
TORSDOF 6
ENDMDL
MODEL 2
REMARK VINA RESULT:      -7.7      5.360      7.450
REMARK  Name = 
REMARK  8 active torsions:
REMARK  status: ('A' for Active; 'I' for Inactive)
REMARK    1  A    between atoms: C_1  and  O_2
REMARK    2  A    between atoms: O_2  and  C_3
REMARK    3  A    between atoms: C_9  and  N_10
REMARK    4  A    between atoms: C_11  and  C_13
REMARK    5  A    between atoms: C_13  and  C_14
REMARK    6  A    between atoms: C_14  and  S_15
REMARK    7  A    between atoms: S_15  and  C_18
REMARK    8  A    between atoms: C_21  and  C_22
REMARK                            x       y       z     vdW  Elec       q    Type
REMARK                         _______ _______ _______ _____ _____    ______ ____
ROOT
ATOM      1  N   UNL     1       4.577   2.960  17.544  0.00  0.00    +0.000 N 
ATOM      2  C   UNL     1       3.193   2.821  17.425  0.00  0.00    +0.000 C 
ATOM      3  O   UNL     1       2.493   3.357  16.555  0.00  0.00    +0.000 OA
ATOM      4  H   UNL     1       5.041   2.579  18.367  0.00  0.00    +0.000 HD
ENDROOT
BRANCH   1  11
ATOM      5  C   UNL     1       6.316   4.693  17.025  0.00  0.00    +0.000 A 
ATOM      6  C   UNL     1       7.132   5.327  16.062  0.00  0.00    +0.000 A 
ATOM      7  C   UNL     1       7.062   4.997  14.716  0.00  0.00    +0.000 A 
ATOM      8  C   UNL     1       6.194   3.999  14.319  0.00  0.00    +0.000 A 
ATOM      9 CL   UNL     1       6.131   3.554  12.662  0.00  0.00    +0.000 Cl
ATOM     10  C   UNL     1       5.396   3.336  15.256  0.00  0.00    +0.000 A 
ATOM     11  C   UNL     1       5.425   3.663  16.620  0.00  0.00    +0.000 A 
BRANCH   5  13
ATOM     12  C   UNL     1       7.401   6.065  18.617  0.00  0.00    +0.000 C 
ATOM     13  O   UNL     1       6.365   5.096  18.345  0.00  0.00    +0.000 OA
ENDBRANCH   5  13
ENDBRANCH   1  11
BRANCH   2  14
ATOM     14  C   UNL     1       2.483   2.053  18.518  0.00  0.00    +0.000 C 
BRANCH  14  15
ATOM     15  C   UNL     1       1.642   3.029  19.340  0.00  0.00    +0.000 C 
BRANCH  15  16
ATOM     16  S   UNL     1       2.614   4.035  20.418  0.00  0.00    +0.000 S 
ATOM     17  O   UNL     1       2.050   3.977  21.759  0.00  0.00    +0.000 OA
ATOM     18  O   UNL     1       4.012   3.684  20.192  0.00  0.00    +0.000 OA
BRANCH  16  19
ATOM     19  C   UNL     1       2.385   5.705  19.816  0.00  0.00    +0.000 A 
ATOM     20  C   UNL     1       1.722   6.664  20.585  0.00  0.00    +0.000 A 
ATOM     21  C   UNL     1       1.550   7.961  20.074  0.00  0.00    +0.000 A 
ATOM     22  C   UNL     1       2.047   8.304  18.809  0.00  0.00    +0.000 A 
ATOM     23  C   UNL     1       1.822   9.669  18.223  0.00  0.00    +0.000 C 
ATOM     24  C   UNL     1       2.752   7.341  18.074  0.00  0.00    +0.000 A 
ATOM     25  C   UNL     1       2.928   6.049  18.578  0.00  0.00    +0.000 A 
ENDBRANCH  16  19
ENDBRANCH  15  16
ENDBRANCH  14  15
ENDBRANCH   2  14
TORSDOF 6
ENDMDL
MODEL 3
REMARK VINA RESULT:      -7.4      5.597      7.676
REMARK  Name = 
REMARK  8 active torsions:
REMARK  status: ('A' for Active; 'I' for Inactive)
REMARK    1  A    between atoms: C_1  and  O_2
REMARK    2  A    between atoms: O_2  and  C_3
REMARK    3  A    between atoms: C_9  and  N_10
REMARK    4  A    between atoms: C_11  and  C_13
REMARK    5  A    between atoms: C_13  and  C_14
REMARK    6  A    between atoms: C_14  and  S_15
REMARK    7  A    between atoms: S_15  and  C_18
REMARK    8  A    between atoms: C_21  and  C_22
REMARK                            x       y       z     vdW  Elec       q    Type
REMARK                         _______ _______ _______ _____ _____    ______ ____
ROOT
ATOM      1  N   UNL     1       2.226   6.849  20.687  0.00  0.00    +0.000 N 
ATOM      2  C   UNL     1       1.731   5.551  20.542  0.00  0.00    +0.000 C 
ATOM      3  O   UNL     1       0.532   5.246  20.489  0.00  0.00    +0.000 OA
ATOM      4  H   UNL     1       3.224   6.979  20.845  0.00  0.00    +0.000 HD
ENDROOT
BRANCH   1  11
ATOM      5  C   UNL     1       1.283   8.880  19.554  0.00  0.00    +0.000 A 
ATOM      6  C   UNL     1       0.471  10.032  19.634  0.00  0.00    +0.000 A 
ATOM      7  C   UNL     1      -0.163  10.398  20.813  0.00  0.00    +0.000 A 
ATOM      8  C   UNL     1      -0.018   9.591  21.925  0.00  0.00    +0.000 A 
ATOM      9 CL   UNL     1      -0.833  10.012  23.376  0.00  0.00    +0.000 Cl
ATOM     10  C   UNL     1       0.758   8.431  21.865  0.00  0.00    +0.000 A 
ATOM     11  C   UNL     1       1.431   8.046  20.696  0.00  0.00    +0.000 A 
BRANCH   5  13
ATOM     12  C   UNL     1       2.226   9.745  17.565  0.00  0.00    +0.000 C 
ATOM     13  O   UNL     1       1.953   8.586  18.383  0.00  0.00    +0.000 OA
ENDBRANCH   5  13
ENDBRANCH   1  11
BRANCH   2  14
ATOM     14  C   UNL     1       2.739   4.423  20.575  0.00  0.00    +0.000 C 
BRANCH  14  15
ATOM     15  C   UNL     1       2.169   3.230  19.809  0.00  0.00    +0.000 C 
BRANCH  15  16
ATOM     16  S   UNL     1       2.499   3.305  18.076  0.00  0.00    +0.000 S 
ATOM     17  O   UNL     1       2.932   1.992  17.618  0.00  0.00    +0.000 OA
ATOM     18  O   UNL     1       1.360   3.965  17.447  0.00  0.00    +0.000 OA
BRANCH  16  19
ATOM     19  C   UNL     1       3.899   4.410  17.923  0.00  0.00    +0.000 A 
ATOM     20  C   UNL     1       3.732   5.734  17.511  0.00  0.00    +0.000 A 
ATOM     21  C   UNL     1       4.856   6.567  17.390  0.00  0.00    +0.000 A 
ATOM     22  C   UNL     1       6.139   6.087  17.691  0.00  0.00    +0.000 A 
ATOM     23  C   UNL     1       7.359   6.947  17.513  0.00  0.00    +0.000 C 
ATOM     24  C   UNL     1       6.279   4.771  18.150  0.00  0.00    +0.000 A 
ATOM     25  C   UNL     1       5.164   3.937  18.274  0.00  0.00    +0.000 A 
ENDBRANCH  16  19
ENDBRANCH  15  16
ENDBRANCH  14  15
ENDBRANCH   2  14
TORSDOF 6
ENDMDL
MODEL 4
REMARK VINA RESULT:      -7.4      3.500      8.863
REMARK  Name = 
REMARK  8 active torsions:
REMARK  status: ('A' for Active; 'I' for Inactive)
REMARK    1  A    between atoms: C_1  and  O_2
REMARK    2  A    between atoms: O_2  and  C_3
REMARK    3  A    between atoms: C_9  and  N_10
REMARK    4  A    between atoms: C_11  and  C_13
REMARK    5  A    between atoms: C_13  and  C_14
REMARK    6  A    between atoms: C_14  and  S_15
REMARK    7  A    between atoms: S_15  and  C_18
REMARK    8  A    between atoms: C_21  and  C_22
REMARK                            x       y       z     vdW  Elec       q    Type
REMARK                         _______ _______ _______ _____ _____    ______ ____
ROOT
ATOM      1  N   UNL     1       6.644   7.727  17.023  0.00  0.00    +0.000 N 
ATOM      2  C   UNL     1       7.752   8.040  17.813  0.00  0.00    +0.000 C 
ATOM      3  O   UNL     1       8.280   7.280  18.635  0.00  0.00    +0.000 OA
ATOM      4  H   UNL     1       6.210   8.465  16.471  0.00  0.00    +0.000 HD
ENDROOT
BRANCH   1  11
ATOM      5  C   UNL     1       6.449   5.399  16.108  0.00  0.00    +0.000 A 
ATOM      6  C   UNL     1       5.777   4.157  16.116  0.00  0.00    +0.000 A 
ATOM      7  C   UNL     1       4.662   3.935  16.912  0.00  0.00    +0.000 A 
ATOM      8  C   UNL     1       4.223   4.949  17.740  0.00  0.00    +0.000 A 
ATOM      9 CL   UNL     1       2.871   4.670  18.760  0.00  0.00    +0.000 Cl
ATOM     10  C   UNL     1       4.886   6.179  17.773  0.00  0.00    +0.000 A 
ATOM     11  C   UNL     1       6.002   6.443  16.962  0.00  0.00    +0.000 A 
BRANCH   5  13
ATOM     12  C   UNL     1       7.340   4.990  13.957  0.00  0.00    +0.000 C 
ATOM     13  O   UNL     1       7.513   5.604  15.252  0.00  0.00    +0.000 OA
ENDBRANCH   5  13
ENDBRANCH   1  11
BRANCH   2  14
ATOM     14  C   UNL     1       8.267   9.461  17.742  0.00  0.00    +0.000 C 
BRANCH  14  15
ATOM     15  C   UNL     1       9.106   9.744  18.989  0.00  0.00    +0.000 C 
BRANCH  15  16
ATOM     16  S   UNL     1       9.937  11.301  18.918  0.00  0.00    +0.000 S 
ATOM     17  O   UNL     1      11.375  11.072  18.955  0.00  0.00    +0.000 OA
ATOM     18  O   UNL     1       9.341  12.060  17.824  0.00  0.00    +0.000 OA
BRANCH  16  19
ATOM     19  C   UNL     1       9.490  12.129  20.440  0.00  0.00    +0.000 A 
ATOM     20  C   UNL     1       9.744  13.490  20.623  0.00  0.00    +0.000 A 
ATOM     21  C   UNL     1       9.392  14.102  21.837  0.00  0.00    +0.000 A 
ATOM     22  C   UNL     1       8.777  13.365  22.858  0.00  0.00    +0.000 A 
ATOM     23  C   UNL     1       8.443  13.990  24.184  0.00  0.00    +0.000 C 
ATOM     24  C   UNL     1       8.485  12.012  22.636  0.00  0.00    +0.000 A 
ATOM     25  C   UNL     1       8.832  11.397  21.430  0.00  0.00    +0.000 A 
ENDBRANCH  16  19
ENDBRANCH  15  16
ENDBRANCH  14  15
ENDBRANCH   2  14
TORSDOF 6
ENDMDL
MODEL 5
REMARK VINA RESULT:      -7.4      5.140      7.663
REMARK  Name = 
REMARK  8 active torsions:
REMARK  status: ('A' for Active; 'I' for Inactive)
REMARK    1  A    between atoms: C_1  and  O_2
REMARK    2  A    between atoms: O_2  and  C_3
REMARK    3  A    between atoms: C_9  and  N_10
REMARK    4  A    between atoms: C_11  and  C_13
REMARK    5  A    between atoms: C_13  and  C_14
REMARK    6  A    between atoms: C_14  and  S_15
REMARK    7  A    between atoms: S_15  and  C_18
REMARK    8  A    between atoms: C_21  and  C_22
REMARK                            x       y       z     vdW  Elec       q    Type
REMARK                         _______ _______ _______ _____ _____    ______ ____
ROOT
ATOM      1  N   UNL     1       4.003   4.335  16.988  0.00  0.00    +0.000 N 
ATOM      2  C   UNL     1       3.575   3.162  17.615  0.00  0.00    +0.000 C 
ATOM      3  O   UNL     1       4.042   2.033  17.412  0.00  0.00    +0.000 OA
ATOM      4  H   UNL     1       3.470   5.191  17.131  0.00  0.00    +0.000 HD
ENDROOT
BRANCH   1  11
ATOM      5  C   UNL     1       6.353   5.035  16.456  0.00  0.00    +0.000 A 
ATOM      6  C   UNL     1       7.410   5.083  15.520  0.00  0.00    +0.000 A 
ATOM      7  C   UNL     1       7.265   4.595  14.230  0.00  0.00    +0.000 A 
ATOM      8  C   UNL     1       6.065   4.017  13.868  0.00  0.00    +0.000 A 
ATOM      9 CL   UNL     1       5.890   3.370  12.286  0.00  0.00    +0.000 Cl
ATOM     10  C   UNL     1       5.012   3.931  14.782  0.00  0.00    +0.000 A 
ATOM     11  C   UNL     1       5.117   4.437  16.087  0.00  0.00    +0.000 A 
BRANCH   5  13
ATOM     12  C   UNL     1       7.357   6.764  17.718  0.00  0.00    +0.000 C 
ATOM     13  O   UNL     1       6.512   5.593  17.709  0.00  0.00    +0.000 OA
ENDBRANCH   5  13
ENDBRANCH   1  11
BRANCH   2  14
ATOM     14  C   UNL     1       2.366   3.268  18.518  0.00  0.00    +0.000 C 
BRANCH  14  15
ATOM     15  C   UNL     1       1.891   4.720  18.539  0.00  0.00    +0.000 C 
BRANCH  15  16
ATOM     16  S   UNL     1       2.558   5.641  19.890  0.00  0.00    +0.000 S 
ATOM     17  O   UNL     1       1.938   5.185  21.127  0.00  0.00    +0.000 OA
ATOM     18  O   UNL     1       4.009   5.630  19.747  0.00  0.00    +0.000 OA
BRANCH  16  19
ATOM     19  C   UNL     1       2.013   7.323  19.612  0.00  0.00    +0.000 A 
ATOM     20  C   UNL     1       1.422   8.069  20.635  0.00  0.00    +0.000 A 
ATOM     21  C   UNL     1       0.994   9.381  20.375  0.00  0.00    +0.000 A 
ATOM     22  C   UNL     1       1.167   9.952  19.106  0.00  0.00    +0.000 A 
ATOM     23  C   UNL     1       0.665  11.334  18.795  0.00  0.00    +0.000 C 
ATOM     24  C   UNL     1       1.806   9.205  18.108  0.00  0.00    +0.000 A 
ATOM     25  C   UNL     1       2.235   7.899  18.361  0.00  0.00    +0.000 A 
ENDBRANCH  16  19
ENDBRANCH  15  16
ENDBRANCH  14  15
ENDBRANCH   2  14
TORSDOF 6
ENDMDL
MODEL 6
REMARK VINA RESULT:      -7.3      6.945      9.723
REMARK  Name = 
REMARK  8 active torsions:
REMARK  status: ('A' for Active; 'I' for Inactive)
REMARK    1  A    between atoms: C_1  and  O_2
REMARK    2  A    between atoms: O_2  and  C_3
REMARK    3  A    between atoms: C_9  and  N_10
REMARK    4  A    between atoms: C_11  and  C_13
REMARK    5  A    between atoms: C_13  and  C_14
REMARK    6  A    between atoms: C_14  and  S_15
REMARK    7  A    between atoms: S_15  and  C_18
REMARK    8  A    between atoms: C_21  and  C_22
REMARK                            x       y       z     vdW  Elec       q    Type
REMARK                         _______ _______ _______ _____ _____    ______ ____
ROOT
ATOM      1  N   UNL     1       1.901   6.346  20.435  0.00  0.00    +0.000 N 
ATOM      2  C   UNL     1       1.708   7.716  20.251  0.00  0.00    +0.000 C 
ATOM      3  O   UNL     1       1.928   8.334  19.201  0.00  0.00    +0.000 OA
ATOM      4  H   UNL     1       1.809   5.958  21.372  0.00  0.00    +0.000 HD
ENDROOT
BRANCH   1  11
ATOM      5  C   UNL     1       1.726   4.115  19.300  0.00  0.00    +0.000 A 
ATOM      6  C   UNL     1       2.143   3.262  18.254  0.00  0.00    +0.000 A 
ATOM      7  C   UNL     1       3.119   3.645  17.346  0.00  0.00    +0.000 A 
ATOM      8  C   UNL     1       3.669   4.908  17.452  0.00  0.00    +0.000 A 
ATOM      9 CL   UNL     1       4.847   5.407  16.307  0.00  0.00    +0.000 Cl
ATOM     10  C   UNL     1       3.254   5.782  18.461  0.00  0.00    +0.000 A 
ATOM     11  C   UNL     1       2.287   5.416  19.410  0.00  0.00    +0.000 A 
BRANCH   5  13
ATOM     12  C   UNL     1       1.369   2.835  21.256  0.00  0.00    +0.000 C 
ATOM     13  O   UNL     1       0.802   3.672  20.226  0.00  0.00    +0.000 OA
ENDBRANCH   5  13
ENDBRANCH   1  11
BRANCH   2  14
ATOM     14  C   UNL     1       1.315   8.524  21.469  0.00  0.00    +0.000 C 
BRANCH  14  15
ATOM     15  C   UNL     1      -0.142   8.960  21.323  0.00  0.00    +0.000 C 
BRANCH  15  16
ATOM     16  S   UNL     1      -0.312  10.683  20.973  0.00  0.00    +0.000 S 
ATOM     17  O   UNL     1      -1.166  11.290  21.985  0.00  0.00    +0.000 OA
ATOM     18  O   UNL     1       1.026  11.209  20.728  0.00  0.00    +0.000 OA
BRANCH  16  19
ATOM     19  C   UNL     1      -1.198  10.751  19.420  0.00  0.00    +0.000 A 
ATOM     20  C   UNL     1      -0.891   9.876  18.375  0.00  0.00    +0.000 A 
ATOM     21  C   UNL     1      -1.599   9.968  17.166  0.00  0.00    +0.000 A 
ATOM     22  C   UNL     1      -2.616  10.918  17.002  0.00  0.00    +0.000 A 
ATOM     23  C   UNL     1      -3.346  11.069  15.697  0.00  0.00    +0.000 C 
ATOM     24  C   UNL     1      -2.942  11.754  18.079  0.00  0.00    +0.000 A 
ATOM     25  C   UNL     1      -2.242  11.666  19.286  0.00  0.00    +0.000 A 
ENDBRANCH  16  19
ENDBRANCH  15  16
ENDBRANCH  14  15
ENDBRANCH   2  14
TORSDOF 6
ENDMDL
MODEL 7
REMARK VINA RESULT:      -7.2      1.955      2.540
REMARK  Name = 
REMARK  8 active torsions:
REMARK  status: ('A' for Active; 'I' for Inactive)
REMARK    1  A    between atoms: C_1  and  O_2
REMARK    2  A    between atoms: O_2  and  C_3
REMARK    3  A    between atoms: C_9  and  N_10
REMARK    4  A    between atoms: C_11  and  C_13
REMARK    5  A    between atoms: C_13  and  C_14
REMARK    6  A    between atoms: C_14  and  S_15
REMARK    7  A    between atoms: S_15  and  C_18
REMARK    8  A    between atoms: C_21  and  C_22
REMARK                            x       y       z     vdW  Elec       q    Type
REMARK                         _______ _______ _______ _____ _____    ______ ____
ROOT
ATOM      1  N   UNL     1       9.283   9.529  19.406  0.00  0.00    +0.000 N 
ATOM      2  C   UNL     1       8.425   9.314  18.326  0.00  0.00    +0.000 C 
ATOM      3  O   UNL     1       7.711  10.177  17.798  0.00  0.00    +0.000 OA
ATOM      4  H   UNL     1       9.731   8.726  19.845  0.00  0.00    +0.000 HD
ENDROOT
BRANCH   1  11
ATOM      5  C   UNL     1      10.390  11.780  19.411  0.00  0.00    +0.000 A 
ATOM      6  C   UNL     1      10.595  13.018  20.059  0.00  0.00    +0.000 A 
ATOM      7  C   UNL     1      10.028  13.297  21.295  0.00  0.00    +0.000 A 
ATOM      8  C   UNL     1       9.216  12.348  21.884  0.00  0.00    +0.000 A 
ATOM      9 CL   UNL     1       8.476  12.701  23.392  0.00  0.00    +0.000 Cl
ATOM     10  C   UNL     1       8.975  11.126  21.251  0.00  0.00    +0.000 A 
ATOM     11  C   UNL     1       9.553  10.803  20.013  0.00  0.00    +0.000 A 
BRANCH   5  13
ATOM     12  C   UNL     1      10.887  12.566  17.236  0.00  0.00    +0.000 C 
ATOM     13  O   UNL     1      11.027  11.513  18.214  0.00  0.00    +0.000 OA
ENDBRANCH   5  13
ENDBRANCH   1  11
BRANCH   2  14
ATOM     14  C   UNL     1       8.268   7.887  17.847  0.00  0.00    +0.000 C 
BRANCH  14  15
ATOM     15  C   UNL     1       6.806   7.653  17.464  0.00  0.00    +0.000 C 
BRANCH  15  16
ATOM     16  S   UNL     1       6.523   6.048  16.785  0.00  0.00    +0.000 S 
ATOM     17  O   UNL     1       6.288   6.174  15.353  0.00  0.00    +0.000 OA
ATOM     18  O   UNL     1       7.580   5.175  17.283  0.00  0.00    +0.000 OA
BRANCH  16  19
ATOM     19  C   UNL     1       4.990   5.499  17.530  0.00  0.00    +0.000 A 
ATOM     20  C   UNL     1       3.933   6.387  17.741  0.00  0.00    +0.000 A 
ATOM     21  C   UNL     1       2.750   5.923  18.341  0.00  0.00    +0.000 A 
ATOM     22  C   UNL     1       2.618   4.578  18.715  0.00  0.00    +0.000 A 
ATOM     23  C   UNL     1       1.382   4.076  19.408  0.00  0.00    +0.000 C 
ATOM     24  C   UNL     1       3.672   3.694  18.449  0.00  0.00    +0.000 A 
ATOM     25  C   UNL     1       4.850   4.149  17.851  0.00  0.00    +0.000 A 
ENDBRANCH  16  19
ENDBRANCH  15  16
ENDBRANCH  14  15
ENDBRANCH   2  14
TORSDOF 6
ENDMDL
MODEL 8
REMARK VINA RESULT:      -7.2      7.429     10.059
REMARK  Name = 
REMARK  8 active torsions:
REMARK  status: ('A' for Active; 'I' for Inactive)
REMARK    1  A    between atoms: C_1  and  O_2
REMARK    2  A    between atoms: O_2  and  C_3
REMARK    3  A    between atoms: C_9  and  N_10
REMARK    4  A    between atoms: C_11  and  C_13
REMARK    5  A    between atoms: C_13  and  C_14
REMARK    6  A    between atoms: C_14  and  S_15
REMARK    7  A    between atoms: S_15  and  C_18
REMARK    8  A    between atoms: C_21  and  C_22
REMARK                            x       y       z     vdW  Elec       q    Type
REMARK                         _______ _______ _______ _____ _____    ______ ____
ROOT
ATOM      1  N   UNL     1       1.977   7.828  21.133  0.00  0.00    +0.000 N 
ATOM      2  C   UNL     1       0.802   8.375  21.651  0.00  0.00    +0.000 C 
ATOM      3  O   UNL     1      -0.345   8.038  21.328  0.00  0.00    +0.000 OA
ATOM      4  H   UNL     1       2.868   8.261  21.372  0.00  0.00    +0.000 HD
ENDROOT
BRANCH   1  11
ATOM      5  C   UNL     1       2.495   6.857  18.878  0.00  0.00    +0.000 A 
ATOM      6  C   UNL     1       2.554   5.718  18.045  0.00  0.00    +0.000 A 
ATOM      7  C   UNL     1       2.150   4.467  18.488  0.00  0.00    +0.000 A 
ATOM      8  C   UNL     1       1.712   4.333  19.791  0.00  0.00    +0.000 A 
ATOM      9 CL   UNL     1       1.250   2.781  20.363  0.00  0.00    +0.000 Cl
ATOM     10  C   UNL     1       1.670   5.438  20.645  0.00  0.00    +0.000 A 
ATOM     11  C   UNL     1       2.048   6.721  20.220  0.00  0.00    +0.000 A 
BRANCH   5  13
ATOM     12  C   UNL     1       1.758   8.773  17.704  0.00  0.00    +0.000 C 
ATOM     13  O   UNL     1       2.841   8.097  18.379  0.00  0.00    +0.000 OA
ENDBRANCH   5  13
ENDBRANCH   1  11
BRANCH   2  14
ATOM     14  C   UNL     1       0.947   9.553  22.589  0.00  0.00    +0.000 C 
BRANCH  14  15
ATOM     15  C   UNL     1      -0.310  10.417  22.494  0.00  0.00    +0.000 C 
BRANCH  15  16
ATOM     16  S   UNL     1      -0.088  11.842  21.474  0.00  0.00    +0.000 S 
ATOM     17  O   UNL     1      -0.496  13.026  22.218  0.00  0.00    +0.000 OA
ATOM     18  O   UNL     1       1.251  11.759  20.901  0.00  0.00    +0.000 OA
BRANCH  16  19
ATOM     19  C   UNL     1      -1.252  11.631  20.131  0.00  0.00    +0.000 A 
ATOM     20  C   UNL     1      -2.475  12.304  20.124  0.00  0.00    +0.000 A 
ATOM     21  C   UNL     1      -3.369  12.103  19.059  0.00  0.00    +0.000 A 
ATOM     22  C   UNL     1      -3.039  11.246  18.001  0.00  0.00    +0.000 A 
ATOM     23  C   UNL     1      -4.006  10.975  16.882  0.00  0.00    +0.000 C 
ATOM     24  C   UNL     1      -1.786  10.618  18.002  0.00  0.00    +0.000 A 
ATOM     25  C   UNL     1      -0.892  10.816  19.058  0.00  0.00    +0.000 A 
ENDBRANCH  16  19
ENDBRANCH  15  16
ENDBRANCH  14  15
ENDBRANCH   2  14
TORSDOF 6
ENDMDL
MODEL 9
REMARK VINA RESULT:      -7.2      1.931      2.529
REMARK  Name = 
REMARK  8 active torsions:
REMARK  status: ('A' for Active; 'I' for Inactive)
REMARK    1  A    between atoms: C_1  and  O_2
REMARK    2  A    between atoms: O_2  and  C_3
REMARK    3  A    between atoms: C_9  and  N_10
REMARK    4  A    between atoms: C_11  and  C_13
REMARK    5  A    between atoms: C_13  and  C_14
REMARK    6  A    between atoms: C_14  and  S_15
REMARK    7  A    between atoms: S_15  and  C_18
REMARK    8  A    between atoms: C_21  and  C_22
REMARK                            x       y       z     vdW  Elec       q    Type
REMARK                         _______ _______ _______ _____ _____    ______ ____
ROOT
ATOM      1  N   UNL     1       9.282   9.456  19.122  0.00  0.00    +0.000 N 
ATOM      2  C   UNL     1       8.325   9.197  18.139  0.00  0.00    +0.000 C 
ATOM      3  O   UNL     1       7.484  10.009  17.730  0.00  0.00    +0.000 OA
ATOM      4  H   UNL     1       9.845   8.683  19.476  0.00  0.00    +0.000 HD
ENDROOT
BRANCH   1  11
ATOM      5  C   UNL     1      10.198  11.791  19.090  0.00  0.00    +0.000 A 
ATOM      6  C   UNL     1      10.372  13.024  19.758  0.00  0.00    +0.000 A 
ATOM      7  C   UNL     1       9.924  13.219  21.056  0.00  0.00    +0.000 A 
ATOM      8  C   UNL     1       9.260  12.190  21.694  0.00  0.00    +0.000 A 
ATOM      9 CL   UNL     1       8.663  12.437  23.285  0.00  0.00    +0.000 Cl
ATOM     10  C   UNL     1       9.050  10.970  21.046  0.00  0.00    +0.000 A 
ATOM     11  C   UNL     1       9.514  10.731  19.742  0.00  0.00    +0.000 A 
BRANCH   5  13
ATOM     12  C   UNL     1      11.134  12.841  17.189  0.00  0.00    +0.000 C 
ATOM     13  O   UNL     1      10.720  11.612  17.824  0.00  0.00    +0.000 OA
ENDBRANCH   5  13
ENDBRANCH   1  11
BRANCH   2  14
ATOM     14  C   UNL     1       8.233   7.777  17.626  0.00  0.00    +0.000 C 
BRANCH  14  15
ATOM     15  C   UNL     1       6.882   7.191  18.035  0.00  0.00    +0.000 C 
BRANCH  15  16
ATOM     16  S   UNL     1       6.988   5.498  18.526  0.00  0.00    +0.000 S 
ATOM     17  O   UNL     1       7.797   4.772  17.555  0.00  0.00    +0.000 OA
ATOM     18  O   UNL     1       7.344   5.479  19.940  0.00  0.00    +0.000 OA
BRANCH  16  19
ATOM     19  C   UNL     1       5.315   4.876  18.394  0.00  0.00    +0.000 A 
ATOM     20  C   UNL     1       4.783   4.491  17.161  0.00  0.00    +0.000 A 
ATOM     21  C   UNL     1       3.461   4.021  17.095  0.00  0.00    +0.000 A 
ATOM     22  C   UNL     1       2.678   3.923  18.253  0.00  0.00    +0.000 A 
ATOM     23  C   UNL     1       1.244   3.475  18.193  0.00  0.00    +0.000 C 
ATOM     24  C   UNL     1       3.246   4.267  19.487  0.00  0.00    +0.000 A 
ATOM     25  C   UNL     1       4.562   4.735  19.559  0.00  0.00    +0.000 A 
ENDBRANCH  16  19
ENDBRANCH  15  16
ENDBRANCH  14  15
ENDBRANCH   2  14
TORSDOF 6
ENDMDL
