MODEL 1
REMARK VINA RESULT:      -9.3      0.000      0.000
REMARK  Name = 
REMARK  7 active torsions:
REMARK  status: ('A' for Active; 'I' for Inactive)
REMARK    1  A    between atoms: C_1  and  S_2
REMARK    2  A    between atoms: S_2  and  N_5
REMARK    3  A    between atoms: N_5  and  C_6
REMARK    4  A    between atoms: N_5  and  C_13
REMARK    5  A    between atoms: C_6  and  C_7
REMARK    6  A    between atoms: C_16  and  N_17
REMARK    7  A    between atoms: N_24  and  C_25
REMARK                            x       y       z     vdW  Elec       q    Type
REMARK                         _______ _______ _______ _____ _____    ______ ____
ROOT
ATOM      1  C   UNL     1      -0.274  11.130  21.196  0.00  0.00    +0.000 A 
ATOM      2  C   UNL     1      -0.260  10.989  19.809  0.00  0.00    +0.000 A 
ATOM      3  C   UNL     1       0.460   9.946  19.213  0.00  0.00    +0.000 A 
ATOM      4  C   UNL     1       1.207   9.050  19.991  0.00  0.00    +0.000 A 
ATOM      5  C   UNL     1       1.097   9.166  21.386  0.00  0.00    +0.000 A 
ATOM      6  C   UNL     1       0.373  10.193  21.991  0.00  0.00    +0.000 A 
ENDROOT
BRANCH   4   7
ATOM      7  N   UNL     1       2.026   8.095  19.360  0.00  0.00    +0.000 N 
ATOM      8  C   UNL     1       2.198   6.734  19.661  0.00  0.00    +0.000 A 
ATOM      9  N   UNL     1       1.255   6.126  20.413  0.00  0.00    +0.000 NA
ATOM     10  C   UNL     1       1.409   4.853  20.811  0.00  0.00    +0.000 A 
ATOM     11  C   UNL     1       2.544   4.177  20.427  0.00  0.00    +0.000 A 
ATOM     12  C   UNL     1       3.097   2.906  20.621  0.00  0.00    +0.000 A 
ATOM     13  N   UNL     1       4.259   2.764  19.984  0.00  0.00    +0.000 NA
ATOM     14  N   UNL     1       4.470   3.974  19.407  0.00  0.00    +0.000 N 
ATOM     15  C   UNL     1       3.451   4.873  19.634  0.00  0.00    +0.000 A 
ATOM     16  N   UNL     1       3.329   6.144  19.210  0.00  0.00    +0.000 NA
ATOM     17  H   UNL     1       2.861   8.438  18.912  0.00  0.00    +0.000 HD
BRANCH  14  18
ATOM     18  C   UNL     1       5.690   4.189  18.621  0.00  0.00    +0.000 C 
ATOM     19  C   UNL     1       5.421   4.122  17.103  0.00  0.00    +0.000 C 
ATOM     20  C   UNL     1       4.770   5.349  16.459  0.00  0.00    +0.000 C 
ATOM     21  C   UNL     1       5.735   6.467  16.088  0.00  0.00    +0.000 C 
ATOM     22  C   UNL     1       6.483   7.121  17.243  0.00  0.00    +0.000 C 
ATOM     23  C   UNL     1       7.297   6.170  18.115  0.00  0.00    +0.000 C 
ATOM     24  C   UNL     1       6.440   5.429  19.137  0.00  0.00    +0.000 C 
ENDBRANCH  14  18
ENDBRANCH   4   7
BRANCH   1  25
ATOM     25  N   UNL     1      -0.983  12.243  21.758  0.00  0.00    +0.000 N 
BRANCH  25  27
ATOM     26  C   UNL     1      -0.683  14.804  20.680  0.00  0.00    +0.000 C 
ATOM     27  S   UNL     1      -0.078  13.677  21.943  0.00  0.00    +0.000 S 
ATOM     28  O   UNL     1       1.298  13.363  21.614  0.00  0.00    +0.000 OA
ATOM     29  O   UNL     1      -0.401  14.254  23.233  0.00  0.00    +0.000 OA
ENDBRANCH  25  27
BRANCH  25  30
ATOM     30  C   UNL     1      -2.374  12.429  21.195  0.00  0.00    +0.000 C 
BRANCH  30  31
ATOM     31  C   UNL     1      -3.451  12.548  22.254  0.00  0.00    +0.000 A 
ATOM     32  C   UNL     1      -3.181  12.281  23.596  0.00  0.00    +0.000 A 
ATOM     33  C   UNL     1      -4.228  12.289  24.507  0.00  0.00    +0.000 A 
ATOM     34  N   UNL     1      -5.510  12.556  24.181  0.00  0.00    +0.000 NA
ATOM     35  C   UNL     1      -5.745  12.876  22.894  0.00  0.00    +0.000 A 
ATOM     36  C   UNL     1      -4.760  12.917  21.915  0.00  0.00    +0.000 A 
ENDBRANCH  30  31
ENDBRANCH  25  30
ENDBRANCH   1  25
TORSDOF 6
ENDMDL
MODEL 2
REMARK VINA RESULT:      -8.9      3.624     11.061
REMARK  Name = 
REMARK  7 active torsions:
REMARK  status: ('A' for Active; 'I' for Inactive)
REMARK    1  A    between atoms: C_1  and  S_2
REMARK    2  A    between atoms: S_2  and  N_5
REMARK    3  A    between atoms: N_5  and  C_6
REMARK    4  A    between atoms: N_5  and  C_13
REMARK    5  A    between atoms: C_6  and  C_7
REMARK    6  A    between atoms: C_16  and  N_17
REMARK    7  A    between atoms: N_24  and  C_25
REMARK                            x       y       z     vdW  Elec       q    Type
REMARK                         _______ _______ _______ _____ _____    ______ ____
ROOT
ATOM      1  C   UNL     1       2.718   6.069  18.936  0.00  0.00    +0.000 A 
ATOM      2  C   UNL     1       2.706   7.026  17.923  0.00  0.00    +0.000 A 
ATOM      3  C   UNL     1       2.132   8.284  18.149  0.00  0.00    +0.000 A 
ATOM      4  C   UNL     1       1.531   8.591  19.378  0.00  0.00    +0.000 A 
ATOM      5  C   UNL     1       1.642   7.638  20.403  0.00  0.00    +0.000 A 
ATOM      6  C   UNL     1       2.223   6.387  20.193  0.00  0.00    +0.000 A 
ENDROOT
BRANCH   4   7
ATOM      7  N   UNL     1       0.846   9.811  19.533  0.00  0.00    +0.000 N 
ATOM      8  C   UNL     1       0.144  10.301  20.646  0.00  0.00    +0.000 A 
ATOM      9  N   UNL     1       0.391   9.740  21.850  0.00  0.00    +0.000 NA
ATOM     10  C   UNL     1      -0.315  10.101  22.934  0.00  0.00    +0.000 A 
ATOM     11  C   UNL     1      -1.289  11.062  22.794  0.00  0.00    +0.000 A 
ATOM     12  C   UNL     1      -2.232  11.696  23.613  0.00  0.00    +0.000 A 
ATOM     13  N   UNL     1      -2.946  12.600  22.944  0.00  0.00    +0.000 NA
ATOM     14  N   UNL     1      -2.480  12.516  21.672  0.00  0.00    +0.000 N 
ATOM     15  C   UNL     1      -1.461  11.601  21.524  0.00  0.00    +0.000 A 
ATOM     16  N   UNL     1      -0.771  11.272  20.417  0.00  0.00    +0.000 NA
ATOM     17  H   UNL     1       0.466  10.227  18.698  0.00  0.00    +0.000 HD
BRANCH  14  18
ATOM     18  C   UNL     1      -3.064  13.377  20.638  0.00  0.00    +0.000 C 
ATOM     19  C   UNL     1      -4.128  12.638  19.801  0.00  0.00    +0.000 C 
ATOM     20  C   UNL     1      -5.505  12.444  20.442  0.00  0.00    +0.000 C 
ATOM     21  C   UNL     1      -6.446  13.635  20.312  0.00  0.00    +0.000 C 
ATOM     22  C   UNL     1      -6.000  14.922  20.993  0.00  0.00    +0.000 C 
ATOM     23  C   UNL     1      -4.634  15.449  20.559  0.00  0.00    +0.000 C 
ATOM     24  C   UNL     1      -3.479  14.727  21.248  0.00  0.00    +0.000 C 
ENDBRANCH  14  18
ENDBRANCH   4   7
BRANCH   1  25
ATOM     25  N   UNL     1       3.271   4.778  18.641  0.00  0.00    +0.000 N 
BRANCH  25  27
ATOM     26  C   UNL     1       3.046   1.997  18.484  0.00  0.00    +0.000 C 
ATOM     27  S   UNL     1       2.483   3.453  19.374  0.00  0.00    +0.000 S 
ATOM     28  O   UNL     1       1.066   3.597  19.111  0.00  0.00    +0.000 OA
ATOM     29  O   UNL     1       2.959   3.342  20.739  0.00  0.00    +0.000 OA
ENDBRANCH  25  27
BRANCH  25  30
ATOM     30  C   UNL     1       3.633   4.585  17.186  0.00  0.00    +0.000 C 
BRANCH  30  31
ATOM     31  C   UNL     1       5.124   4.618  16.918  0.00  0.00    +0.000 A 
ATOM     32  C   UNL     1       5.629   4.569  15.618  0.00  0.00    +0.000 A 
ATOM     33  C   UNL     1       7.001   4.483  15.432  0.00  0.00    +0.000 A 
ATOM     34  N   UNL     1       7.899   4.456  16.439  0.00  0.00    +0.000 NA
ATOM     35  C   UNL     1       7.401   4.570  17.686  0.00  0.00    +0.000 A 
ATOM     36  C   UNL     1       6.047   4.684  17.971  0.00  0.00    +0.000 A 
ENDBRANCH  30  31
ENDBRANCH  25  30
ENDBRANCH   1  25
TORSDOF 6
ENDMDL
MODEL 3
REMARK VINA RESULT:      -8.9      3.410     10.952
REMARK  Name = 
REMARK  7 active torsions:
REMARK  status: ('A' for Active; 'I' for Inactive)
REMARK    1  A    between atoms: C_1  and  S_2
REMARK    2  A    between atoms: S_2  and  N_5
REMARK    3  A    between atoms: N_5  and  C_6
REMARK    4  A    between atoms: N_5  and  C_13
REMARK    5  A    between atoms: C_6  and  C_7
REMARK    6  A    between atoms: C_16  and  N_17
REMARK    7  A    between atoms: N_24  and  C_25
REMARK                            x       y       z     vdW  Elec       q    Type
REMARK                         _______ _______ _______ _____ _____    ______ ____
ROOT
ATOM      1  C   UNL     1       2.398   6.871  18.972  0.00  0.00    +0.000 A 
ATOM      2  C   UNL     1       2.240   7.797  17.942  0.00  0.00    +0.000 A 
ATOM      3  C   UNL     1       1.609   9.024  18.188  0.00  0.00    +0.000 A 
ATOM      4  C   UNL     1       1.096   9.328  19.457  0.00  0.00    +0.000 A 
ATOM      5  C   UNL     1       1.353   8.413  20.490  0.00  0.00    +0.000 A 
ATOM      6  C   UNL     1       1.991   7.193  20.260  0.00  0.00    +0.000 A 
ENDROOT
BRANCH   4   7
ATOM      7  N   UNL     1       0.352  10.508  19.643  0.00  0.00    +0.000 N 
ATOM      8  C   UNL     1      -0.381  10.930  20.763  0.00  0.00    +0.000 A 
ATOM      9  N   UNL     1      -0.115  10.347  21.952  0.00  0.00    +0.000 NA
ATOM     10  C   UNL     1      -0.846  10.640  23.040  0.00  0.00    +0.000 A 
ATOM     11  C   UNL     1      -1.865  11.556  22.921  0.00  0.00    +0.000 A 
ATOM     12  C   UNL     1      -2.842  12.119  23.749  0.00  0.00    +0.000 A 
ATOM     13  N   UNL     1      -3.595  13.007  23.102  0.00  0.00    +0.000 NA
ATOM     14  N   UNL     1      -3.117  12.984  21.832  0.00  0.00    +0.000 N 
ATOM     15  C   UNL     1      -2.053  12.125  21.665  0.00  0.00    +0.000 A 
ATOM     16  N   UNL     1      -1.340  11.862  20.555  0.00  0.00    +0.000 NA
ATOM     17  H   UNL     1      -0.042  10.930  18.817  0.00  0.00    +0.000 HD
BRANCH  14  18
ATOM     18  C   UNL     1      -3.734  13.847  20.819  0.00  0.00    +0.000 C 
ATOM     19  C   UNL     1      -4.700  13.066  19.903  0.00  0.00    +0.000 C 
ATOM     20  C   UNL     1      -6.077  12.724  20.477  0.00  0.00    +0.000 C 
ATOM     21  C   UNL     1      -7.112  13.836  20.368  0.00  0.00    +0.000 C 
ATOM     22  C   UNL     1      -6.803  15.119  21.129  0.00  0.00    +0.000 C 
ATOM     23  C   UNL     1      -5.472  15.781  20.779  0.00  0.00    +0.000 C 
ATOM     24  C   UNL     1      -4.286  15.123  21.477  0.00  0.00    +0.000 C 
ENDBRANCH  14  18
ENDBRANCH   4   7
BRANCH   1  25
ATOM     25  N   UNL     1       3.003   5.608  18.661  0.00  0.00    +0.000 N 
BRANCH  25  27
ATOM     26  C   UNL     1       2.999   2.815  18.760  0.00  0.00    +0.000 C 
ATOM     27  S   UNL     1       1.947   4.268  18.642  0.00  0.00    +0.000 S 
ATOM     28  O   UNL     1       1.316   4.236  17.339  0.00  0.00    +0.000 OA
ATOM     29  O   UNL     1       1.132   4.316  19.841  0.00  0.00    +0.000 OA
ENDBRANCH  25  27
BRANCH  25  30
ATOM     30  C   UNL     1       3.987   5.667  17.514  0.00  0.00    +0.000 C 
BRANCH  30  31
ATOM     31  C   UNL     1       5.392   6.050  17.933  0.00  0.00    +0.000 A 
ATOM     32  C   UNL     1       6.124   7.005  17.226  0.00  0.00    +0.000 A 
ATOM     33  C   UNL     1       7.447   7.233  17.578  0.00  0.00    +0.000 A 
ATOM     34  N   UNL     1       8.081   6.596  18.585  0.00  0.00    +0.000 NA
ATOM     35  C   UNL     1       7.342   5.725  19.300  0.00  0.00    +0.000 A 
ATOM     36  C   UNL     1       6.007   5.446  19.038  0.00  0.00    +0.000 A 
ENDBRANCH  30  31
ENDBRANCH  25  30
ENDBRANCH   1  25
TORSDOF 6
ENDMDL
MODEL 4
REMARK VINA RESULT:      -8.9      3.757     10.583
REMARK  Name = 
REMARK  7 active torsions:
REMARK  status: ('A' for Active; 'I' for Inactive)
REMARK    1  A    between atoms: C_1  and  S_2
REMARK    2  A    between atoms: S_2  and  N_5
REMARK    3  A    between atoms: N_5  and  C_6
REMARK    4  A    between atoms: N_5  and  C_13
REMARK    5  A    between atoms: C_6  and  C_7
REMARK    6  A    between atoms: C_16  and  N_17
REMARK    7  A    between atoms: N_24  and  C_25
REMARK                            x       y       z     vdW  Elec       q    Type
REMARK                         _______ _______ _______ _____ _____    ______ ____
ROOT
ATOM      1  C   UNL     1       2.620   6.495  18.848  0.00  0.00    +0.000 A 
ATOM      2  C   UNL     1       2.406   7.461  17.866  0.00  0.00    +0.000 A 
ATOM      3  C   UNL     1       1.763   8.663  18.189  0.00  0.00    +0.000 A 
ATOM      4  C   UNL     1       1.294   8.902  19.488  0.00  0.00    +0.000 A 
ATOM      5  C   UNL     1       1.607   7.949  20.470  0.00  0.00    +0.000 A 
ATOM      6  C   UNL     1       2.258   6.754  20.163  0.00  0.00    +0.000 A 
ENDROOT
BRANCH   4   7
ATOM      7  N   UNL     1       0.536  10.059  19.753  0.00  0.00    +0.000 N 
ATOM      8  C   UNL     1       0.839  11.402  19.480  0.00  0.00    +0.000 A 
ATOM      9  N   UNL     1       1.795  11.663  18.562  0.00  0.00    +0.000 NA
ATOM     10  C   UNL     1       2.195  12.924  18.324  0.00  0.00    +0.000 A 
ATOM     11  C   UNL     1       1.602  13.945  19.029  0.00  0.00    +0.000 A 
ATOM     12  C   UNL     1       1.716  15.337  19.112  0.00  0.00    +0.000 A 
ATOM     13  N   UNL     1       0.852  15.859  19.982  0.00  0.00    +0.000 NA
ATOM     14  N   UNL     1       0.202  14.781  20.490  0.00  0.00    +0.000 N 
ATOM     15  C   UNL     1       0.611  13.587  19.938  0.00  0.00    +0.000 A 
ATOM     16  N   UNL     1       0.179  12.340  20.199  0.00  0.00    +0.000 NA
ATOM     17  H   UNL     1      -0.090  10.020  20.542  0.00  0.00    +0.000 HD
BRANCH  14  18
ATOM     18  C   UNL     1      -0.831  14.986  21.510  0.00  0.00    +0.000 C 
ATOM     19  C   UNL     1      -2.254  14.925  20.915  0.00  0.00    +0.000 C 
ATOM     20  C   UNL     1      -2.816  13.537  20.598  0.00  0.00    +0.000 C 
ATOM     21  C   UNL     1      -3.443  12.814  21.783  0.00  0.00    +0.000 C 
ATOM     22  C   UNL     1      -2.509  12.480  22.938  0.00  0.00    +0.000 C 
ATOM     23  C   UNL     1      -1.773  13.671  23.548  0.00  0.00    +0.000 C 
ATOM     24  C   UNL     1      -0.555  14.091  22.730  0.00  0.00    +0.000 C 
ENDBRANCH  14  18
ENDBRANCH   4   7
BRANCH   1  25
ATOM     25  N   UNL     1       3.236   5.259  18.460  0.00  0.00    +0.000 N 
BRANCH  25  27
ATOM     26  C   UNL     1       3.207   2.547  17.784  0.00  0.00    +0.000 C 
ATOM     27  S   UNL     1       2.194   3.911  18.371  0.00  0.00    +0.000 S 
ATOM     28  O   UNL     1       1.214   4.192  17.341  0.00  0.00    +0.000 OA
ATOM     29  O   UNL     1       1.759   3.585  19.715  0.00  0.00    +0.000 OA
ENDBRANCH  25  27
BRANCH  25  30
ATOM     30  C   UNL     1       4.210   5.394  17.311  0.00  0.00    +0.000 C 
BRANCH  30  31
ATOM     31  C   UNL     1       5.597   5.832  17.733  0.00  0.00    +0.000 A 
ATOM     32  C   UNL     1       6.267   5.204  18.784  0.00  0.00    +0.000 A 
ATOM     33  C   UNL     1       7.484   5.718  19.209  0.00  0.00    +0.000 A 
ATOM     34  N   UNL     1       8.082   6.795  18.657  0.00  0.00    +0.000 NA
ATOM     35  C   UNL     1       7.455   7.351  17.602  0.00  0.00    +0.000 A 
ATOM     36  C   UNL     1       6.248   6.895  17.091  0.00  0.00    +0.000 A 
ENDBRANCH  30  31
ENDBRANCH  25  30
ENDBRANCH   1  25
TORSDOF 6
ENDMDL
MODEL 5
REMARK VINA RESULT:      -8.7      2.168      3.670
REMARK  Name = 
REMARK  7 active torsions:
REMARK  status: ('A' for Active; 'I' for Inactive)
REMARK    1  A    between atoms: C_1  and  S_2
REMARK    2  A    between atoms: S_2  and  N_5
REMARK    3  A    between atoms: N_5  and  C_6
REMARK    4  A    between atoms: N_5  and  C_13
REMARK    5  A    between atoms: C_6  and  C_7
REMARK    6  A    between atoms: C_16  and  N_17
REMARK    7  A    between atoms: N_24  and  C_25
REMARK                            x       y       z     vdW  Elec       q    Type
REMARK                         _______ _______ _______ _____ _____    ______ ____
ROOT
ATOM      1  C   UNL     1      -2.395  12.563  22.032  0.00  0.00    +0.000 A 
ATOM      2  C   UNL     1      -1.940  12.135  20.785  0.00  0.00    +0.000 A 
ATOM      3  C   UNL     1      -1.060  11.049  20.691  0.00  0.00    +0.000 A 
ATOM      4  C   UNL     1      -0.594  10.398  21.842  0.00  0.00    +0.000 A 
ATOM      5  C   UNL     1      -1.143  10.795  23.071  0.00  0.00    +0.000 A 
ATOM      6  C   UNL     1      -2.030  11.867  23.176  0.00  0.00    +0.000 A 
ENDROOT
BRANCH   4   7
ATOM      7  N   UNL     1       0.389   9.397  21.726  0.00  0.00    +0.000 N 
ATOM      8  C   UNL     1       1.110   8.985  20.593  0.00  0.00    +0.000 A 
ATOM      9  N   UNL     1       1.158   9.820  19.533  0.00  0.00    +0.000 NA
ATOM     10  C   UNL     1       1.752   9.445  18.388  0.00  0.00    +0.000 A 
ATOM     11  C   UNL     1       2.319   8.193  18.322  0.00  0.00    +0.000 A 
ATOM     12  C   UNL     1       2.992   7.420  17.369  0.00  0.00    +0.000 A 
ATOM     13  N   UNL     1       3.356   6.234  17.855  0.00  0.00    +0.000 NA
ATOM     14  N   UNL     1       2.875   6.234  19.124  0.00  0.00    +0.000 N 
ATOM     15  C   UNL     1       2.243   7.408  19.468  0.00  0.00    +0.000 A 
ATOM     16  N   UNL     1       1.664   7.751  20.633  0.00  0.00    +0.000 NA
ATOM     17  H   UNL     1       0.332   8.627  22.374  0.00  0.00    +0.000 HD
BRANCH  14  18
ATOM     18  C   UNL     1       3.084   5.052  19.967  0.00  0.00    +0.000 C 
ATOM     19  C   UNL     1       1.759   4.333  20.296  0.00  0.00    +0.000 C 
ATOM     20  C   UNL     1       1.151   3.461  19.194  0.00  0.00    +0.000 C 
ATOM     21  C   UNL     1       1.721   2.051  19.105  0.00  0.00    +0.000 C 
ATOM     22  C   UNL     1       3.201   1.944  18.761  0.00  0.00    +0.000 C 
ATOM     23  C   UNL     1       4.144   2.693  19.699  0.00  0.00    +0.000 C 
ATOM     24  C   UNL     1       4.217   4.186  19.393  0.00  0.00    +0.000 C 
ENDBRANCH  14  18
ENDBRANCH   4   7
BRANCH   1  25
ATOM     25  N   UNL     1      -3.254  13.711  22.082  0.00  0.00    +0.000 N 
BRANCH  25  27
ATOM     26  C   UNL     1      -0.722  14.887  22.210  0.00  0.00    +0.000 C 
ATOM     27  S   UNL     1      -2.471  15.223  21.971  0.00  0.00    +0.000 S 
ATOM     28  O   UNL     1      -2.913  16.019  23.098  0.00  0.00    +0.000 OA
ATOM     29  O   UNL     1      -2.640  15.723  20.621  0.00  0.00    +0.000 OA
ENDBRANCH  25  27
BRANCH  25  30
ATOM     30  C   UNL     1      -4.508  13.574  21.249  0.00  0.00    +0.000 C 
BRANCH  30  31
ATOM     31  C   UNL     1      -5.690  13.009  22.011  0.00  0.00    +0.000 A 
ATOM     32  C   UNL     1      -5.767  13.101  23.401  0.00  0.00    +0.000 A 
ATOM     33  C   UNL     1      -6.810  12.464  24.060  0.00  0.00    +0.000 A 
ATOM     34  N   UNL     1      -7.779  11.762  23.436  0.00  0.00    +0.000 NA
ATOM     35  C   UNL     1      -7.729  11.738  22.090  0.00  0.00    +0.000 A 
ATOM     36  C   UNL     1      -6.738  12.362  21.342  0.00  0.00    +0.000 A 
ENDBRANCH  30  31
ENDBRANCH  25  30
ENDBRANCH   1  25
TORSDOF 6
ENDMDL
MODEL 6
REMARK VINA RESULT:      -8.7      1.499      1.869
REMARK  Name = 
REMARK  7 active torsions:
REMARK  status: ('A' for Active; 'I' for Inactive)
REMARK    1  A    between atoms: C_1  and  S_2
REMARK    2  A    between atoms: S_2  and  N_5
REMARK    3  A    between atoms: N_5  and  C_6
REMARK    4  A    between atoms: N_5  and  C_13
REMARK    5  A    between atoms: C_6  and  C_7
REMARK    6  A    between atoms: C_16  and  N_17
REMARK    7  A    between atoms: N_24  and  C_25
REMARK                            x       y       z     vdW  Elec       q    Type
REMARK                         _______ _______ _______ _____ _____    ______ ____
ROOT
ATOM      1  C   UNL     1      -0.400  10.907  20.401  0.00  0.00    +0.000 A 
ATOM      2  C   UNL     1      -0.124  10.836  19.036  0.00  0.00    +0.000 A 
ATOM      3  C   UNL     1       0.708   9.826  18.536  0.00  0.00    +0.000 A 
ATOM      4  C   UNL     1       1.305   8.894  19.396  0.00  0.00    +0.000 A 
ATOM      5  C   UNL     1       0.934   8.938  20.749  0.00  0.00    +0.000 A 
ATOM      6  C   UNL     1       0.096   9.932  21.257  0.00  0.00    +0.000 A 
ENDROOT
BRANCH   4   7
ATOM      7  N   UNL     1       2.239   7.973  18.885  0.00  0.00    +0.000 N 
ATOM      8  C   UNL     1       2.451   6.632  19.241  0.00  0.00    +0.000 A 
ATOM      9  N   UNL     1       1.467   5.987  19.905  0.00  0.00    +0.000 NA
ATOM     10  C   UNL     1       1.647   4.734  20.354  0.00  0.00    +0.000 A 
ATOM     11  C   UNL     1       2.852   4.116  20.114  0.00  0.00    +0.000 A 
ATOM     12  C   UNL     1       3.450   2.884  20.402  0.00  0.00    +0.000 A 
ATOM     13  N   UNL     1       4.680   2.795  19.898  0.00  0.00    +0.000 NA
ATOM     14  N   UNL     1       4.886   4.002  19.313  0.00  0.00    +0.000 N 
ATOM     15  C   UNL     1       3.800   4.845  19.403  0.00  0.00    +0.000 A 
ATOM     16  N   UNL     1       3.656   6.097  18.932  0.00  0.00    +0.000 NA
ATOM     17  H   UNL     1       3.098   8.354  18.520  0.00  0.00    +0.000 HD
BRANCH  14  18
ATOM     18  C   UNL     1       6.170   4.269  18.657  0.00  0.00    +0.000 C 
ATOM     19  C   UNL     1       6.063   4.196  17.120  0.00  0.00    +0.000 C 
ATOM     20  C   UNL     1       5.432   5.397  16.411  0.00  0.00    +0.000 C 
ATOM     21  C   UNL     1       6.384   6.555  16.139  0.00  0.00    +0.000 C 
ATOM     22  C   UNL     1       6.981   7.236  17.365  0.00  0.00    +0.000 C 
ATOM     23  C   UNL     1       7.739   6.315  18.318  0.00  0.00    +0.000 C 
ATOM     24  C   UNL     1       6.812   5.536  19.246  0.00  0.00    +0.000 C 
ENDBRANCH  14  18
ENDBRANCH   4   7
BRANCH   1  25
ATOM     25  N   UNL     1      -1.215  11.988  20.873  0.00  0.00    +0.000 N 
BRANCH  25  27
ATOM     26  C   UNL     1      -1.310  14.587  21.896  0.00  0.00    +0.000 C 
ATOM     27  S   UNL     1      -0.499  12.991  22.054  0.00  0.00    +0.000 S 
ATOM     28  O   UNL     1       0.888  13.175  21.679  0.00  0.00    +0.000 OA
ATOM     29  O   UNL     1      -0.832  12.459  23.361  0.00  0.00    +0.000 OA
ENDBRANCH  25  27
BRANCH  25  30
ATOM     30  C   UNL     1      -1.959  12.718  19.777  0.00  0.00    +0.000 C 
BRANCH  30  31
ATOM     31  C   UNL     1      -3.414  12.314  19.653  0.00  0.00    +0.000 A 
ATOM     32  C   UNL     1      -3.876  11.596  18.549  0.00  0.00    +0.000 A 
ATOM     33  C   UNL     1      -5.237  11.355  18.426  0.00  0.00    +0.000 A 
ATOM     34  N   UNL     1      -6.160  11.761  19.324  0.00  0.00    +0.000 NA
ATOM     35  C   UNL     1      -5.692  12.395  20.417  0.00  0.00    +0.000 A 
ATOM     36  C   UNL     1      -4.347  12.663  20.639  0.00  0.00    +0.000 A 
ENDBRANCH  30  31
ENDBRANCH  25  30
ENDBRANCH   1  25
TORSDOF 6
ENDMDL
MODEL 7
REMARK VINA RESULT:      -8.6      3.323     11.113
REMARK  Name = 
REMARK  7 active torsions:
REMARK  status: ('A' for Active; 'I' for Inactive)
REMARK    1  A    between atoms: C_1  and  S_2
REMARK    2  A    between atoms: S_2  and  N_5
REMARK    3  A    between atoms: N_5  and  C_6
REMARK    4  A    between atoms: N_5  and  C_13
REMARK    5  A    between atoms: C_6  and  C_7
REMARK    6  A    between atoms: C_16  and  N_17
REMARK    7  A    between atoms: N_24  and  C_25
REMARK                            x       y       z     vdW  Elec       q    Type
REMARK                         _______ _______ _______ _____ _____    ______ ____
ROOT
ATOM      1  C   UNL     1       2.429   6.935  19.256  0.00  0.00    +0.000 A 
ATOM      2  C   UNL     1       2.275   7.806  18.178  0.00  0.00    +0.000 A 
ATOM      3  C   UNL     1       1.574   9.008  18.338  0.00  0.00    +0.000 A 
ATOM      4  C   UNL     1       0.986   9.341  19.567  0.00  0.00    +0.000 A 
ATOM      5  C   UNL     1       1.239   8.486  20.652  0.00  0.00    +0.000 A 
ATOM      6  C   UNL     1       1.946   7.292  20.507  0.00  0.00    +0.000 A 
ENDROOT
BRANCH   4   7
ATOM      7  N   UNL     1       0.177  10.488  19.664  0.00  0.00    +0.000 N 
ATOM      8  C   UNL     1      -0.564  10.964  20.758  0.00  0.00    +0.000 A 
ATOM      9  N   UNL     1      -0.248  10.503  21.987  0.00  0.00    +0.000 NA
ATOM     10  C   UNL     1      -0.979  10.848  23.060  0.00  0.00    +0.000 A 
ATOM     11  C   UNL     1      -2.051  11.690  22.881  0.00  0.00    +0.000 A 
ATOM     12  C   UNL     1      -3.049  12.267  23.676  0.00  0.00    +0.000 A 
ATOM     13  N   UNL     1      -3.861  13.051  22.968  0.00  0.00    +0.000 NA
ATOM     14  N   UNL     1      -3.400  12.944  21.696  0.00  0.00    +0.000 N 
ATOM     15  C   UNL     1      -2.290  12.135  21.585  0.00  0.00    +0.000 A 
ATOM     16  N   UNL     1      -1.579  11.818  20.488  0.00  0.00    +0.000 NA
ATOM     17  H   UNL     1      -0.253  10.814  18.812  0.00  0.00    +0.000 HD
BRANCH  14  18
ATOM     18  C   UNL     1      -4.081  13.678  20.625  0.00  0.00    +0.000 C 
ATOM     19  C   UNL     1      -4.866  12.738  19.686  0.00  0.00    +0.000 C 
ATOM     20  C   UNL     1      -6.207  12.207  20.198  0.00  0.00    +0.000 C 
ATOM     21  C   UNL     1      -7.388  13.148  19.999  0.00  0.00    +0.000 C 
ATOM     22  C   UNL     1      -7.317  14.481  20.732  0.00  0.00    +0.000 C 
ATOM     23  C   UNL     1      -6.083  15.327  20.430  0.00  0.00    +0.000 C 
ATOM     24  C   UNL     1      -4.853  14.873  21.211  0.00  0.00    +0.000 C 
ENDBRANCH  14  18
ENDBRANCH   4   7
BRANCH   1  25
ATOM     25  N   UNL     1       3.110   5.692  19.031  0.00  0.00    +0.000 N 
BRANCH  25  27
ATOM     26  C   UNL     1       3.683   3.033  19.670  0.00  0.00    +0.000 C 
ATOM     27  S   UNL     1       2.457   4.337  19.836  0.00  0.00    +0.000 S 
ATOM     28  O   UNL     1       1.284   3.920  19.096  0.00  0.00    +0.000 OA
ATOM     29  O   UNL     1       2.348   4.656  21.246  0.00  0.00    +0.000 OA
ENDBRANCH  25  27
BRANCH  25  30
ATOM     30  C   UNL     1       3.495   5.458  17.588  0.00  0.00    +0.000 C 
BRANCH  30  31
ATOM     31  C   UNL     1       4.963   5.136  17.392  0.00  0.00    +0.000 A 
ATOM     32  C   UNL     1       5.925   5.545  18.317  0.00  0.00    +0.000 A 
ATOM     33  C   UNL     1       7.266   5.329  18.031  0.00  0.00    +0.000 A 
ATOM     34  N   UNL     1       7.711   4.728  16.908  0.00  0.00    +0.000 NA
ATOM     35  C   UNL     1       6.769   4.280  16.056  0.00  0.00    +0.000 A 
ATOM     36  C   UNL     1       5.404   4.429  16.264  0.00  0.00    +0.000 A 
ENDBRANCH  30  31
ENDBRANCH  25  30
ENDBRANCH   1  25
TORSDOF 6
ENDMDL
MODEL 8
REMARK VINA RESULT:      -8.6      2.153      3.777
REMARK  Name = 
REMARK  7 active torsions:
REMARK  status: ('A' for Active; 'I' for Inactive)
REMARK    1  A    between atoms: C_1  and  S_2
REMARK    2  A    between atoms: S_2  and  N_5
REMARK    3  A    between atoms: N_5  and  C_6
REMARK    4  A    between atoms: N_5  and  C_13
REMARK    5  A    between atoms: C_6  and  C_7
REMARK    6  A    between atoms: C_16  and  N_17
REMARK    7  A    between atoms: N_24  and  C_25
REMARK                            x       y       z     vdW  Elec       q    Type
REMARK                         _______ _______ _______ _____ _____    ______ ____
ROOT
ATOM      1  C   UNL     1      -2.054  12.717  22.507  0.00  0.00    +0.000 A 
ATOM      2  C   UNL     1      -1.217  12.688  21.393  0.00  0.00    +0.000 A 
ATOM      3  C   UNL     1      -0.377  11.588  21.170  0.00  0.00    +0.000 A 
ATOM      4  C   UNL     1      -0.337  10.519  22.076  0.00  0.00    +0.000 A 
ATOM      5  C   UNL     1      -1.257  10.539  23.135  0.00  0.00    +0.000 A 
ATOM      6  C   UNL     1      -2.107  11.623  23.360  0.00  0.00    +0.000 A 
ENDROOT
BRANCH   4   7
ATOM      7  N   UNL     1       0.609   9.492  21.898  0.00  0.00    +0.000 N 
ATOM      8  C   UNL     1       1.221   9.041  20.718  0.00  0.00    +0.000 A 
ATOM      9  N   UNL     1       1.200   9.855  19.641  0.00  0.00    +0.000 NA
ATOM     10  C   UNL     1       1.686   9.444  18.458  0.00  0.00    +0.000 A 
ATOM     11  C   UNL     1       2.215   8.177  18.370  0.00  0.00    +0.000 A 
ATOM     12  C   UNL     1       2.787   7.370  17.379  0.00  0.00    +0.000 A 
ATOM     13  N   UNL     1       3.161   6.184  17.857  0.00  0.00    +0.000 NA
ATOM     14  N   UNL     1       2.789   6.219  19.162  0.00  0.00    +0.000 N 
ATOM     15  C   UNL     1       2.217   7.415  19.534  0.00  0.00    +0.000 A 
ATOM     16  N   UNL     1       1.747   7.793  20.736  0.00  0.00    +0.000 NA
ATOM     17  H   UNL     1       0.587   8.736  22.564  0.00  0.00    +0.000 HD
BRANCH  14  18
ATOM     18  C   UNL     1       3.039   5.048  20.008  0.00  0.00    +0.000 C 
ATOM     19  C   UNL     1       1.731   4.350  20.434  0.00  0.00    +0.000 C 
ATOM     20  C   UNL     1       1.042   3.469  19.389  0.00  0.00    +0.000 C 
ATOM     21  C   UNL     1       1.588   2.051  19.285  0.00  0.00    +0.000 C 
ATOM     22  C   UNL     1       3.041   1.921  18.846  0.00  0.00    +0.000 C 
ATOM     23  C   UNL     1       4.053   2.671  19.708  0.00  0.00    +0.000 C 
ATOM     24  C   UNL     1       4.122   4.158  19.374  0.00  0.00    +0.000 C 
ENDBRANCH  14  18
ENDBRANCH   4   7
BRANCH   1  25
ATOM     25  N   UNL     1      -2.858  13.886  22.720  0.00  0.00    +0.000 N 
BRANCH  25  27
ATOM     26  C   UNL     1      -3.127  15.695  24.833  0.00  0.00    +0.000 C 
ATOM     27  S   UNL     1      -2.066  15.199  23.470  0.00  0.00    +0.000 S 
ATOM     28  O   UNL     1      -2.050  16.291  22.519  0.00  0.00    +0.000 OA
ATOM     29  O   UNL     1      -0.824  14.714  24.038  0.00  0.00    +0.000 OA
ENDBRANCH  25  27
BRANCH  25  30
ATOM     30  C   UNL     1      -3.732  14.251  21.542  0.00  0.00    +0.000 C 
BRANCH  30  31
ATOM     31  C   UNL     1      -4.958  13.373  21.396  0.00  0.00    +0.000 A 
ATOM     32  C   UNL     1      -5.905  13.273  22.416  0.00  0.00    +0.000 A 
ATOM     33  C   UNL     1      -6.946  12.365  22.280  0.00  0.00    +0.000 A 
ATOM     34  N   UNL     1      -7.118  11.569  21.204  0.00  0.00    +0.000 NA
ATOM     35  C   UNL     1      -6.234  11.724  20.199  0.00  0.00    +0.000 A 
ATOM     36  C   UNL     1      -5.174  12.620  20.233  0.00  0.00    +0.000 A 
ENDBRANCH  30  31
ENDBRANCH  25  30
ENDBRANCH   1  25
TORSDOF 6
ENDMDL
MODEL 9
REMARK VINA RESULT:      -8.6      1.692      3.527
REMARK  Name = 
REMARK  7 active torsions:
REMARK  status: ('A' for Active; 'I' for Inactive)
REMARK    1  A    between atoms: C_1  and  S_2
REMARK    2  A    between atoms: S_2  and  N_5
REMARK    3  A    between atoms: N_5  and  C_6
REMARK    4  A    between atoms: N_5  and  C_13
REMARK    5  A    between atoms: C_6  and  C_7
REMARK    6  A    between atoms: C_16  and  N_17
REMARK    7  A    between atoms: N_24  and  C_25
REMARK                            x       y       z     vdW  Elec       q    Type
REMARK                         _______ _______ _______ _____ _____    ______ ____
ROOT
ATOM      1  C   UNL     1       0.024  11.419  19.980  0.00  0.00    +0.000 A 
ATOM      2  C   UNL     1       0.450  10.783  21.145  0.00  0.00    +0.000 A 
ATOM      3  C   UNL     1       1.086   9.537  21.075  0.00  0.00    +0.000 A 
ATOM      4  C   UNL     1       1.272   8.892  19.845  0.00  0.00    +0.000 A 
ATOM      5  C   UNL     1       0.914   9.601  18.687  0.00  0.00    +0.000 A 
ATOM      6  C   UNL     1       0.291  10.848  18.744  0.00  0.00    +0.000 A 
ENDROOT
BRANCH   4   7
ATOM      7  N   UNL     1       1.793   7.584  19.816  0.00  0.00    +0.000 N 
ATOM      8  C   UNL     1       2.702   7.009  18.913  0.00  0.00    +0.000 A 
ATOM      9  N   UNL     1       3.459   7.837  18.160  0.00  0.00    +0.000 NA
ATOM     10  C   UNL     1       4.278   7.349  17.214  0.00  0.00    +0.000 A 
ATOM     11  C   UNL     1       4.337   5.987  17.034  0.00  0.00    +0.000 A 
ATOM     12  C   UNL     1       5.006   5.090  16.193  0.00  0.00    +0.000 A 
ATOM     13  N   UNL     1       4.699   3.823  16.469  0.00  0.00    +0.000 NA
ATOM     14  N   UNL     1       3.792   3.913  17.475  0.00  0.00    +0.000 N 
ATOM     15  C   UNL     1       3.541   5.209  17.868  0.00  0.00    +0.000 A 
ATOM     16  N   UNL     1       2.714   5.658  18.830  0.00  0.00    +0.000 NA
ATOM     17  H   UNL     1       1.214   6.857  20.204  0.00  0.00    +0.000 HD
BRANCH  14  18
ATOM     18  C   UNL     1       3.214   2.684  18.028  0.00  0.00    +0.000 C 
ATOM     19  C   UNL     1       3.962   2.209  19.291  0.00  0.00    +0.000 C 
ATOM     20  C   UNL     1       3.667   2.955  20.594  0.00  0.00    +0.000 C 
ATOM     21  C   UNL     1       2.423   2.484  21.336  0.00  0.00    +0.000 C 
ATOM     22  C   UNL     1       1.097   2.661  20.607  0.00  0.00    +0.000 C 
ATOM     23  C   UNL     1       1.014   1.997  19.234  0.00  0.00    +0.000 C 
ATOM     24  C   UNL     1       1.686   2.822  18.140  0.00  0.00    +0.000 C 
ENDBRANCH  14  18
ENDBRANCH   4   7
BRANCH   1  25
ATOM     25  N   UNL     1      -0.668  12.670  20.105  0.00  0.00    +0.000 N 
BRANCH  25  27
ATOM     26  C   UNL     1      -0.564  15.439  20.471  0.00  0.00    +0.000 C 
ATOM     27  S   UNL     1       0.214  14.052  19.633  0.00  0.00    +0.000 S 
ATOM     28  O   UNL     1       0.000  14.234  18.212  0.00  0.00    +0.000 OA
ATOM     29  O   UNL     1       1.562  13.928  20.152  0.00  0.00    +0.000 OA
ENDBRANCH  25  27
BRANCH  25  30
ATOM     30  C   UNL     1      -2.101  12.628  19.625  0.00  0.00    +0.000 C 
BRANCH  30  31
ATOM     31  C   UNL     1      -3.123  12.676  20.743  0.00  0.00    +0.000 A 
ATOM     32  C   UNL     1      -2.735  12.627  22.082  0.00  0.00    +0.000 A 
ATOM     33  C   UNL     1      -3.714  12.555  23.063  0.00  0.00    +0.000 A 
ATOM     34  N   UNL     1      -5.039  12.544  22.807  0.00  0.00    +0.000 NA
ATOM     35  C   UNL     1      -5.399  12.659  21.514  0.00  0.00    +0.000 A 
ATOM     36  C   UNL     1      -4.494  12.758  20.465  0.00  0.00    +0.000 A 
ENDBRANCH  30  31
ENDBRANCH  25  30
ENDBRANCH   1  25
TORSDOF 6
ENDMDL
