MODEL 1
REMARK VINA RESULT:      -7.9      0.000      0.000
REMARK  Name = 
REMARK  7 active torsions:
REMARK  status: ('A' for Active; 'I' for Inactive)
REMARK    1  A    between atoms: C_1  and  C_2
REMARK    2  A    between atoms: C_8  and  C_9
REMARK    3  A    between atoms: C_14  and  C_15
REMARK    4  A    between atoms: N_23  and  C_24
REMARK    5  A    between atoms: C_24  and  C_25
REMARK    6  A    between atoms: C_25  and  C_26
REMARK    7  A    between atoms: C_26  and  N_27
REMARK                            x       y       z     vdW  Elec       q    Type
REMARK                         _______ _______ _______ _____ _____    ______ ____
ROOT
ATOM      1  C   UNL     1       2.374   7.644  18.534  0.00  0.00    +0.000 C 
ATOM      2  O   UNL     1       2.298   7.802  19.749  0.00  0.00    +0.000 OA
ATOM      3  N   UNL     1       1.656   8.358  17.603  0.00  0.00    +0.000 N 
ATOM      4  C   UNL     1       0.749   9.356  17.973  0.00  0.00    +0.000 A 
ATOM      5  C   UNL     1       1.033  10.277  18.956  0.00  0.00    +0.000 A 
ATOM      6  C   UNL     1       0.057  11.214  19.227  0.00  0.00    +0.000 A 
ATOM      7  N   UNL     1      -1.122  11.201  18.565  0.00  0.00    +0.000 NA
ATOM      8  C   UNL     1      -1.301  10.273  17.618  0.00  0.00    +0.000 A 
ATOM      9  N   UNL     1      -2.486  10.200  16.896  0.00  0.00    +0.000 N 
ATOM     10  N   UNL     1      -0.393   9.353  17.280  0.00  0.00    +0.000 NA
ATOM     11  H   UNL     1       1.437   7.913  16.722  0.00  0.00    +0.000 HD
ATOM     12  H   UNL     1      -3.000   9.398  17.256  0.00  0.00    +0.000 HD
ENDROOT
BRANCH   1  20
ATOM     13  C   UNL     1       1.619   4.678  18.773  0.00  0.00    +0.000 C 
ATOM     14  C   UNL     1       2.851   5.176  18.072  0.00  0.00    +0.000 A 
ATOM     15  C   UNL     1       3.664   4.240  17.406  0.00  0.00    +0.000 A 
ATOM     16  C   UNL     1       4.805   4.649  16.719  0.00  0.00    +0.000 A 
ATOM     17  F   UNL     1       5.539   3.740  16.064  0.00  0.00    +0.000 F 
ATOM     18  C   UNL     1       5.183   5.982  16.691  0.00  0.00    +0.000 A 
ATOM     19  C   UNL     1       4.389   6.926  17.339  0.00  0.00    +0.000 A 
ATOM     20  C   UNL     1       3.221   6.536  18.020  0.00  0.00    +0.000 A 
ENDBRANCH   1  20
BRANCH   6  21
ATOM     21  C   UNL     1       0.239  12.277  20.232  0.00  0.00    +0.000 A 
ATOM     22  C   UNL     1      -0.840  12.896  20.882  0.00  0.00    +0.000 A 
ATOM     23  C   UNL     1      -0.631  13.939  21.787  0.00  0.00    +0.000 A 
ATOM     24  C   UNL     1       0.669  14.341  22.033  0.00  0.00    +0.000 A 
ATOM     25  N   UNL     1       1.744  13.761  21.462  0.00  0.00    +0.000 NA
ATOM     26  C   UNL     1       1.503  12.749  20.585  0.00  0.00    +0.000 A 
ENDBRANCH   6  21
BRANCH   9  27
ATOM     27  C   UNL     1      -3.270  11.420  16.830  0.00  0.00    +0.000 C 
BRANCH  27  28
ATOM     28  C   UNL     1      -4.700  11.131  17.299  0.00  0.00    +0.000 C 
BRANCH  28  29
ATOM     29  C   UNL     1      -4.890  11.511  18.763  0.00  0.00    +0.000 C 
BRANCH  29  30
ATOM     30  N   UNL     1      -6.044  12.398  18.995  0.00  0.00    +0.000 NA
ATOM     31  C   UNL     1      -5.882  13.301  20.161  0.00  0.00    +0.000 C 
ATOM     32  C   UNL     1      -5.873  12.566  21.510  0.00  0.00    +0.000 C 
ATOM     33  O   UNL     1      -7.076  11.806  21.688  0.00  0.00    +0.000 OA
ATOM     34  C   UNL     1      -7.274  10.885  20.607  0.00  0.00    +0.000 C 
ATOM     35  C   UNL     1      -7.267  11.595  19.240  0.00  0.00    +0.000 C 
ENDBRANCH  29  30
ENDBRANCH  28  29
ENDBRANCH  27  28
ENDBRANCH   9  27
TORSDOF 6
ENDMDL
MODEL 2
REMARK VINA RESULT:      -7.8      2.007      4.102
REMARK  Name = 
REMARK  7 active torsions:
REMARK  status: ('A' for Active; 'I' for Inactive)
REMARK    1  A    between atoms: C_1  and  C_2
REMARK    2  A    between atoms: C_8  and  C_9
REMARK    3  A    between atoms: C_14  and  C_15
REMARK    4  A    between atoms: N_23  and  C_24
REMARK    5  A    between atoms: C_24  and  C_25
REMARK    6  A    between atoms: C_25  and  C_26
REMARK    7  A    between atoms: C_26  and  N_27
REMARK                            x       y       z     vdW  Elec       q    Type
REMARK                         _______ _______ _______ _____ _____    ______ ____
ROOT
ATOM      1  C   UNL     1       2.210   8.038  18.319  0.00  0.00    +0.000 C 
ATOM      2  O   UNL     1       1.890   8.373  17.182  0.00  0.00    +0.000 OA
ATOM      3  N   UNL     1       1.742   8.624  19.472  0.00  0.00    +0.000 N 
ATOM      4  C   UNL     1       0.835   9.688  19.447  0.00  0.00    +0.000 A 
ATOM      5  C   UNL     1      -0.247   9.708  18.597  0.00  0.00    +0.000 A 
ATOM      6  C   UNL     1      -1.071  10.813  18.671  0.00  0.00    +0.000 A 
ATOM      7  N   UNL     1      -0.801  11.826  19.525  0.00  0.00    +0.000 NA
ATOM      8  C   UNL     1       0.269  11.710  20.319  0.00  0.00    +0.000 A 
ATOM      9  N   UNL     1       0.606  12.710  21.223  0.00  0.00    +0.000 N 
ATOM     10  N   UNL     1       1.094  10.660  20.326  0.00  0.00    +0.000 NA
ATOM     11  H   UNL     1       2.335   8.612  20.291  0.00  0.00    +0.000 HD
ATOM     12  H   UNL     1       1.411  13.197  20.834  0.00  0.00    +0.000 HD
ENDROOT
BRANCH   1  20
ATOM     13  C   UNL     1       1.996   5.712  20.313  0.00  0.00    +0.000 C 
ATOM     14  C   UNL     1       3.134   5.887  19.347  0.00  0.00    +0.000 A 
ATOM     15  C   UNL     1       4.116   4.882  19.284  0.00  0.00    +0.000 A 
ATOM     16  C   UNL     1       5.180   4.980  18.390  0.00  0.00    +0.000 A 
ATOM     17  F   UNL     1       6.080   3.990  18.328  0.00  0.00    +0.000 F 
ATOM     18  C   UNL     1       5.313   6.078  17.555  0.00  0.00    +0.000 A 
ATOM     19  C   UNL     1       4.348   7.083  17.596  0.00  0.00    +0.000 A 
ATOM     20  C   UNL     1       3.254   6.991  18.477  0.00  0.00    +0.000 A 
ENDBRANCH   1  20
BRANCH   6  21
ATOM     21  C   UNL     1      -2.282  10.952  17.842  0.00  0.00    +0.000 A 
ATOM     22  C   UNL     1      -2.327  10.554  16.495  0.00  0.00    +0.000 A 
ATOM     23  C   UNL     1      -3.474  10.754  15.726  0.00  0.00    +0.000 A 
ATOM     24  C   UNL     1      -4.570  11.347  16.325  0.00  0.00    +0.000 A 
ATOM     25  N   UNL     1      -4.594  11.719  17.621  0.00  0.00    +0.000 NA
ATOM     26  C   UNL     1      -3.458  11.510  18.341  0.00  0.00    +0.000 A 
ENDBRANCH   6  21
BRANCH   9  27
ATOM     27  C   UNL     1      -0.472  13.589  21.635  0.00  0.00    +0.000 C 
BRANCH  27  28
ATOM     28  C   UNL     1      -1.240  12.941  22.793  0.00  0.00    +0.000 C 
BRANCH  28  29
ATOM     29  C   UNL     1      -2.724  12.808  22.467  0.00  0.00    +0.000 C 
BRANCH  29  30
ATOM     30  N   UNL     1      -3.568  13.801  23.155  0.00  0.00    +0.000 NA
ATOM     31  C   UNL     1      -3.793  13.507  24.591  0.00  0.00    +0.000 C 
ATOM     32  C   UNL     1      -4.652  12.256  24.833  0.00  0.00    +0.000 C 
ATOM     33  O   UNL     1      -5.928  12.378  24.190  0.00  0.00    +0.000 OA
ATOM     34  C   UNL     1      -5.780  12.629  22.786  0.00  0.00    +0.000 C 
ATOM     35  C   UNL     1      -4.905  13.868  22.515  0.00  0.00    +0.000 C 
ENDBRANCH  29  30
ENDBRANCH  28  29
ENDBRANCH  27  28
ENDBRANCH   9  27
TORSDOF 6
ENDMDL
MODEL 3
REMARK VINA RESULT:      -7.8      2.279      4.351
REMARK  Name = 
REMARK  7 active torsions:
REMARK  status: ('A' for Active; 'I' for Inactive)
REMARK    1  A    between atoms: C_1  and  C_2
REMARK    2  A    between atoms: C_8  and  C_9
REMARK    3  A    between atoms: C_14  and  C_15
REMARK    4  A    between atoms: N_23  and  C_24
REMARK    5  A    between atoms: C_24  and  C_25
REMARK    6  A    between atoms: C_25  and  C_26
REMARK    7  A    between atoms: C_26  and  N_27
REMARK                            x       y       z     vdW  Elec       q    Type
REMARK                         _______ _______ _______ _____ _____    ______ ____
ROOT
ATOM      1  C   UNL     1       2.368   8.035  18.263  0.00  0.00    +0.000 C 
ATOM      2  O   UNL     1       2.108   8.464  17.142  0.00  0.00    +0.000 OA
ATOM      3  N   UNL     1       1.795   8.485  19.429  0.00  0.00    +0.000 N 
ATOM      4  C   UNL     1       0.838   9.504  19.438  0.00  0.00    +0.000 A 
ATOM      5  C   UNL     1      -0.186   9.557  18.519  0.00  0.00    +0.000 A 
ATOM      6  C   UNL     1      -1.068  10.612  18.637  0.00  0.00    +0.000 A 
ATOM      7  N   UNL     1      -0.909  11.548  19.599  0.00  0.00    +0.000 NA
ATOM      8  C   UNL     1       0.111  11.404  20.453  0.00  0.00    +0.000 A 
ATOM      9  N   UNL     1       0.335  12.327  21.468  0.00  0.00    +0.000 N 
ATOM     10  N   UNL     1       0.987  10.397  20.421  0.00  0.00    +0.000 NA
ATOM     11  H   UNL     1       2.332   8.421  20.283  0.00  0.00    +0.000 HD
ATOM     12  H   UNL     1       1.137  12.886  21.184  0.00  0.00    +0.000 HD
ENDROOT
BRANCH   1  20
ATOM     13  C   UNL     1       2.223   5.625  20.160  0.00  0.00    +0.000 C 
ATOM     14  C   UNL     1       3.366   5.885  19.220  0.00  0.00    +0.000 A 
ATOM     15  C   UNL     1       4.390   4.924  19.134  0.00  0.00    +0.000 A 
ATOM     16  C   UNL     1       5.461   5.100  18.261  0.00  0.00    +0.000 A 
ATOM     17  F   UNL     1       6.403   4.152  18.174  0.00  0.00    +0.000 F 
ATOM     18  C   UNL     1       5.560   6.235  17.472  0.00  0.00    +0.000 A 
ATOM     19  C   UNL     1       4.554   7.197  17.537  0.00  0.00    +0.000 A 
ATOM     20  C   UNL     1       3.453   7.026  18.396  0.00  0.00    +0.000 A 
ENDBRANCH   1  20
BRANCH   6  21
ATOM     21  C   UNL     1      -2.227  10.775  17.740  0.00  0.00    +0.000 A 
ATOM     22  C   UNL     1      -2.279  10.200  16.460  0.00  0.00    +0.000 A 
ATOM     23  C   UNL     1      -3.370  10.425  15.617  0.00  0.00    +0.000 A 
ATOM     24  C   UNL     1      -4.402  11.220  16.078  0.00  0.00    +0.000 A 
ATOM     25  N   UNL     1      -4.419  11.770  17.309  0.00  0.00    +0.000 NA
ATOM     26  C   UNL     1      -3.340  11.532  18.104  0.00  0.00    +0.000 A 
ENDBRANCH   6  21
BRANCH   9  27
ATOM     27  C   UNL     1      -0.813  13.113  21.883  0.00  0.00    +0.000 C 
BRANCH  27  28
ATOM     28  C   UNL     1      -1.429  12.486  23.138  0.00  0.00    +0.000 C 
BRANCH  28  29
ATOM     29  C   UNL     1      -2.953  12.511  23.079  0.00  0.00    +0.000 C 
BRANCH  29  30
ATOM     30  N   UNL     1      -3.586  12.835  24.369  0.00  0.00    +0.000 NA
ATOM     31  C   UNL     1      -5.033  12.514  24.426  0.00  0.00    +0.000 C 
ATOM     32  C   UNL     1      -5.894  13.399  23.510  0.00  0.00    +0.000 C 
ATOM     33  O   UNL     1      -5.724  14.786  23.832  0.00  0.00    +0.000 OA
ATOM     34  C   UNL     1      -4.344  15.171  23.760  0.00  0.00    +0.000 C 
ATOM     35  C   UNL     1      -3.456  14.285  24.655  0.00  0.00    +0.000 C 
ENDBRANCH  29  30
ENDBRANCH  28  29
ENDBRANCH  27  28
ENDBRANCH   9  27
TORSDOF 6
ENDMDL
MODEL 4
REMARK VINA RESULT:      -7.7      1.809      3.924
REMARK  Name = 
REMARK  7 active torsions:
REMARK  status: ('A' for Active; 'I' for Inactive)
REMARK    1  A    between atoms: C_1  and  C_2
REMARK    2  A    between atoms: C_8  and  C_9
REMARK    3  A    between atoms: C_14  and  C_15
REMARK    4  A    between atoms: N_23  and  C_24
REMARK    5  A    between atoms: C_24  and  C_25
REMARK    6  A    between atoms: C_25  and  C_26
REMARK    7  A    between atoms: C_26  and  N_27
REMARK                            x       y       z     vdW  Elec       q    Type
REMARK                         _______ _______ _______ _____ _____    ______ ____
ROOT
ATOM      1  C   UNL     1       2.208   8.111  18.305  0.00  0.00    +0.000 C 
ATOM      2  O   UNL     1       1.943   8.559  17.193  0.00  0.00    +0.000 OA
ATOM      3  N   UNL     1       1.673   8.571  19.485  0.00  0.00    +0.000 N 
ATOM      4  C   UNL     1       0.755   9.625  19.521  0.00  0.00    +0.000 A 
ATOM      5  C   UNL     1      -0.283   9.724  18.622  0.00  0.00    +0.000 A 
ATOM      6  C   UNL     1      -1.123  10.810  18.765  0.00  0.00    +0.000 A 
ATOM      7  N   UNL     1      -0.911  11.731  19.732  0.00  0.00    +0.000 NA
ATOM      8  C   UNL     1       0.118  11.542  20.565  0.00  0.00    +0.000 A 
ATOM      9  N   UNL     1       0.395  12.447  21.583  0.00  0.00    +0.000 N 
ATOM     10  N   UNL     1       0.956  10.503  20.508  0.00  0.00    +0.000 NA
ATOM     11  H   UNL     1       2.224   8.480  20.329  0.00  0.00    +0.000 HD
ATOM     12  H   UNL     1       1.212  12.978  21.288  0.00  0.00    +0.000 HD
ENDROOT
BRANCH   1  20
ATOM     13  C   UNL     1       2.068   5.760  20.275  0.00  0.00    +0.000 C 
ATOM     14  C   UNL     1       3.168   5.947  19.268  0.00  0.00    +0.000 A 
ATOM     15  C   UNL     1       4.147   4.942  19.156  0.00  0.00    +0.000 A 
ATOM     16  C   UNL     1       5.176   5.051  18.223  0.00  0.00    +0.000 A 
ATOM     17  F   UNL     1       6.072   4.062  18.114  0.00  0.00    +0.000 F 
ATOM     18  C   UNL     1       5.277   6.159  17.398  0.00  0.00    +0.000 A 
ATOM     19  C   UNL     1       4.316   7.164  17.488  0.00  0.00    +0.000 A 
ATOM     20  C   UNL     1       3.256   7.061  18.409  0.00  0.00    +0.000 A 
ENDBRANCH   1  20
BRANCH   6  21
ATOM     21  C   UNL     1      -2.292  11.023  17.892  0.00  0.00    +0.000 A 
ATOM     22  C   UNL     1      -3.493  11.580  18.360  0.00  0.00    +0.000 A 
ATOM     23  C   UNL     1      -4.598  11.714  17.516  0.00  0.00    +0.000 A 
ATOM     24  C   UNL     1      -4.476  11.292  16.205  0.00  0.00    +0.000 A 
ATOM     25  N   UNL     1      -3.338  10.780  15.695  0.00  0.00    +0.000 NA
ATOM     26  C   UNL     1      -2.282  10.663  16.545  0.00  0.00    +0.000 A 
ENDBRANCH   6  21
BRANCH   9  27
ATOM     27  C   UNL     1      -0.715  13.270  22.026  0.00  0.00    +0.000 C 
BRANCH  27  28
ATOM     28  C   UNL     1      -1.438  12.569  23.181  0.00  0.00    +0.000 C 
BRANCH  28  29
ATOM     29  C   UNL     1      -2.912  12.351  22.860  0.00  0.00    +0.000 C 
BRANCH  29  30
ATOM     30  N   UNL     1      -3.650  13.601  22.608  0.00  0.00    +0.000 NA
ATOM     31  C   UNL     1      -4.640  13.938  23.660  0.00  0.00    +0.000 C 
ATOM     32  C   UNL     1      -5.830  12.967  23.716  0.00  0.00    +0.000 C 
ATOM     33  O   UNL     1      -6.509  12.915  22.453  0.00  0.00    +0.000 OA
ATOM     34  C   UNL     1      -5.611  12.558  21.394  0.00  0.00    +0.000 C 
ATOM     35  C   UNL     1      -4.397  13.506  21.330  0.00  0.00    +0.000 C 
ENDBRANCH  29  30
ENDBRANCH  28  29
ENDBRANCH  27  28
ENDBRANCH   9  27
TORSDOF 6
ENDMDL
MODEL 5
REMARK VINA RESULT:      -7.7      1.918      4.130
REMARK  Name = 
REMARK  7 active torsions:
REMARK  status: ('A' for Active; 'I' for Inactive)
REMARK    1  A    between atoms: C_1  and  C_2
REMARK    2  A    between atoms: C_8  and  C_9
REMARK    3  A    between atoms: C_14  and  C_15
REMARK    4  A    between atoms: N_23  and  C_24
REMARK    5  A    between atoms: C_24  and  C_25
REMARK    6  A    between atoms: C_25  and  C_26
REMARK    7  A    between atoms: C_26  and  N_27
REMARK                            x       y       z     vdW  Elec       q    Type
REMARK                         _______ _______ _______ _____ _____    ______ ____
ROOT
ATOM      1  C   UNL     1       1.990   8.241  18.391  0.00  0.00    +0.000 C 
ATOM      2  O   UNL     1       1.571   8.468  17.260  0.00  0.00    +0.000 OA
ATOM      3  N   UNL     1       1.661   8.970  19.511  0.00  0.00    +0.000 N 
ATOM      4  C   UNL     1       0.797  10.067  19.453  0.00  0.00    +0.000 A 
ATOM      5  C   UNL     1      -0.364  10.048  18.713  0.00  0.00    +0.000 A 
ATOM      6  C   UNL     1      -1.134  11.193  18.740  0.00  0.00    +0.000 A 
ATOM      7  N   UNL     1      -0.743  12.277  19.447  0.00  0.00    +0.000 NA
ATOM      8  C   UNL     1       0.396  12.196  20.144  0.00  0.00    +0.000 A 
ATOM      9  N   UNL     1       0.858  13.270  20.894  0.00  0.00    +0.000 N 
ATOM     10  N   UNL     1       1.178  11.114  20.190  0.00  0.00    +0.000 NA
ATOM     11  H   UNL     1       2.332   9.018  20.266  0.00  0.00    +0.000 HD
ATOM     12  H   UNL     1       1.638  13.673  20.379  0.00  0.00    +0.000 HD
ENDROOT
BRANCH   1  20
ATOM     13  C   UNL     1       1.786   6.038  20.520  0.00  0.00    +0.000 C 
ATOM     14  C   UNL     1       2.886   6.119  19.500  0.00  0.00    +0.000 A 
ATOM     15  C   UNL     1       3.831   5.079  19.454  0.00  0.00    +0.000 A 
ATOM     16  C   UNL     1       4.858   5.089  18.513  0.00  0.00    +0.000 A 
ATOM     17  F   UNL     1       5.722   4.067  18.470  0.00  0.00    +0.000 F 
ATOM     18  C   UNL     1       4.991   6.134  17.613  0.00  0.00    +0.000 A 
ATOM     19  C   UNL     1       4.063   7.173  17.637  0.00  0.00    +0.000 A 
ATOM     20  C   UNL     1       3.005   7.169  18.565  0.00  0.00    +0.000 A 
ENDBRANCH   1  20
BRANCH   6  21
ATOM     21  C   UNL     1      -2.416  11.299  18.020  0.00  0.00    +0.000 A 
ATOM     22  C   UNL     1      -2.547  10.979  16.659  0.00  0.00    +0.000 A 
ATOM     23  C   UNL     1      -3.765  11.147  15.996  0.00  0.00    +0.000 A 
ATOM     24  C   UNL     1      -4.841  11.629  16.717  0.00  0.00    +0.000 A 
ATOM     25  N   UNL     1      -4.781  11.922  18.031  0.00  0.00    +0.000 NA
ATOM     26  C   UNL     1      -3.579  11.747  18.645  0.00  0.00    +0.000 A 
ENDBRANCH   6  21
BRANCH   9  27
ATOM     27  C   UNL     1      -0.140  14.239  21.307  0.00  0.00    +0.000 C 
BRANCH  27  28
ATOM     28  C   UNL     1      -0.946  13.669  22.479  0.00  0.00    +0.000 C 
BRANCH  28  29
ATOM     29  C   UNL     1      -2.444  13.862  22.267  0.00  0.00    +0.000 C 
BRANCH  29  30
ATOM     30  N   UNL     1      -3.205  12.599  22.263  0.00  0.00    +0.000 NA
ATOM     31  C   UNL     1      -4.631  12.759  21.889  0.00  0.00    +0.000 C 
ATOM     32  C   UNL     1      -5.456  13.530  22.931  0.00  0.00    +0.000 C 
ATOM     33  O   UNL     1      -5.392  12.888  24.213  0.00  0.00    +0.000 OA
ATOM     34  C   UNL     1      -4.035  12.736  24.649  0.00  0.00    +0.000 C 
ATOM     35  C   UNL     1      -3.181  11.982  23.612  0.00  0.00    +0.000 C 
ENDBRANCH  29  30
ENDBRANCH  28  29
ENDBRANCH  27  28
ENDBRANCH   9  27
TORSDOF 6
ENDMDL
MODEL 6
REMARK VINA RESULT:      -7.6      2.696      5.751
REMARK  Name = 
REMARK  7 active torsions:
REMARK  status: ('A' for Active; 'I' for Inactive)
REMARK    1  A    between atoms: C_1  and  C_2
REMARK    2  A    between atoms: C_8  and  C_9
REMARK    3  A    between atoms: C_14  and  C_15
REMARK    4  A    between atoms: N_23  and  C_24
REMARK    5  A    between atoms: C_24  and  C_25
REMARK    6  A    between atoms: C_25  and  C_26
REMARK    7  A    between atoms: C_26  and  N_27
REMARK                            x       y       z     vdW  Elec       q    Type
REMARK                         _______ _______ _______ _____ _____    ______ ____
ROOT
ATOM      1  C   UNL     1       1.930   8.311  18.383  0.00  0.00    +0.000 C 
ATOM      2  O   UNL     1       1.520   8.619  17.267  0.00  0.00    +0.000 OA
ATOM      3  N   UNL     1       1.596   8.959  19.548  0.00  0.00    +0.000 N 
ATOM      4  C   UNL     1       0.736  10.061  19.563  0.00  0.00    +0.000 A 
ATOM      5  C   UNL     1      -0.420  10.099  18.816  0.00  0.00    +0.000 A 
ATOM      6  C   UNL     1      -1.187  11.242  18.920  0.00  0.00    +0.000 A 
ATOM      7  N   UNL     1      -0.797  12.272  19.705  0.00  0.00    +0.000 NA
ATOM      8  C   UNL     1       0.337  12.137  20.402  0.00  0.00    +0.000 A 
ATOM      9  N   UNL     1       0.798  13.154  21.229  0.00  0.00    +0.000 N 
ATOM     10  N   UNL     1       1.115  11.052  20.375  0.00  0.00    +0.000 NA
ATOM     11  H   UNL     1       2.262   8.951  20.310  0.00  0.00    +0.000 HD
ATOM     12  H   UNL     1       1.582  13.589  20.749  0.00  0.00    +0.000 HD
ENDROOT
BRANCH   1  20
ATOM     13  C   UNL     1       1.808   6.072  20.480  0.00  0.00    +0.000 C 
ATOM     14  C   UNL     1       2.857   6.160  19.407  0.00  0.00    +0.000 A 
ATOM     15  C   UNL     1       3.787   5.111  19.296  0.00  0.00    +0.000 A 
ATOM     16  C   UNL     1       4.766   5.128  18.305  0.00  0.00    +0.000 A 
ATOM     17  F   UNL     1       5.615   4.098  18.200  0.00  0.00    +0.000 F 
ATOM     18  C   UNL     1       4.865   6.188  17.418  0.00  0.00    +0.000 A 
ATOM     19  C   UNL     1       3.951   7.236  17.506  0.00  0.00    +0.000 A 
ATOM     20  C   UNL     1       2.941   7.225  18.486  0.00  0.00    +0.000 A 
ENDBRANCH   1  20
BRANCH   6  21
ATOM     21  C   UNL     1      -2.463  11.404  18.200  0.00  0.00    +0.000 A 
ATOM     22  C   UNL     1      -3.638  11.841  18.833  0.00  0.00    +0.000 A 
ATOM     23  C   UNL     1      -4.842  11.928  18.131  0.00  0.00    +0.000 A 
ATOM     24  C   UNL     1      -4.846  11.580  16.793  0.00  0.00    +0.000 A 
ATOM     25  N   UNL     1      -3.742  11.185  16.127  0.00  0.00    +0.000 NA
ATOM     26  C   UNL     1      -2.586  11.111  16.843  0.00  0.00    +0.000 A 
ENDBRANCH   6  21
BRANCH   9  27
ATOM     27  C   UNL     1      -0.201  14.094  21.703  0.00  0.00    +0.000 C 
BRANCH  27  28
ATOM     28  C   UNL     1       0.445  15.473  21.881  0.00  0.00    +0.000 C 
BRANCH  28  29
ATOM     29  C   UNL     1       1.548  15.705  20.854  0.00  0.00    +0.000 C 
BRANCH  29  30
ATOM     30  N   UNL     1       1.111  15.488  19.463  0.00  0.00    +0.000 NA
ATOM     31  C   UNL     1       2.224  15.243  18.514  0.00  0.00    +0.000 C 
ATOM     32  C   UNL     1       3.122  16.471  18.293  0.00  0.00    +0.000 C 
ATOM     33  O   UNL     1       2.356  17.586  17.816  0.00  0.00    +0.000 OA
ATOM     34  C   UNL     1       1.279  17.898  18.710  0.00  0.00    +0.000 C 
ATOM     35  C   UNL     1       0.376  16.676  18.965  0.00  0.00    +0.000 C 
ENDBRANCH  29  30
ENDBRANCH  28  29
ENDBRANCH  27  28
ENDBRANCH   9  27
TORSDOF 6
ENDMDL
MODEL 7
REMARK VINA RESULT:      -7.6      0.846      1.247
REMARK  Name = 
REMARK  7 active torsions:
REMARK  status: ('A' for Active; 'I' for Inactive)
REMARK    1  A    between atoms: C_1  and  C_2
REMARK    2  A    between atoms: C_8  and  C_9
REMARK    3  A    between atoms: C_14  and  C_15
REMARK    4  A    between atoms: N_23  and  C_24
REMARK    5  A    between atoms: C_24  and  C_25
REMARK    6  A    between atoms: C_25  and  C_26
REMARK    7  A    between atoms: C_26  and  N_27
REMARK                            x       y       z     vdW  Elec       q    Type
REMARK                         _______ _______ _______ _____ _____    ______ ____
ROOT
ATOM      1  C   UNL     1       2.451   7.529  18.562  0.00  0.00    +0.000 C 
ATOM      2  O   UNL     1       2.221   7.561  19.768  0.00  0.00    +0.000 OA
ATOM      3  N   UNL     1       1.819   8.308  17.622  0.00  0.00    +0.000 N 
ATOM      4  C   UNL     1       0.826   9.230  17.968  0.00  0.00    +0.000 A 
ATOM      5  C   UNL     1       0.944  10.056  19.063  0.00  0.00    +0.000 A 
ATOM      6  C   UNL     1      -0.103  10.925  19.297  0.00  0.00    +0.000 A 
ATOM      7  N   UNL     1      -1.191  10.936  18.494  0.00  0.00    +0.000 NA
ATOM      8  C   UNL     1      -1.208  10.103  17.448  0.00  0.00    +0.000 A 
ATOM      9  N   UNL     1      -2.292  10.061  16.580  0.00  0.00    +0.000 N 
ATOM     10  N   UNL     1      -0.222   9.256  17.141  0.00  0.00    +0.000 NA
ATOM     11  H   UNL     1       1.729   7.946  16.681  0.00  0.00    +0.000 HD
ATOM     12  H   UNL     1      -2.806   9.208  16.793  0.00  0.00    +0.000 HD
ENDROOT
BRANCH   1  20
ATOM     13  C   UNL     1       1.840   4.522  18.476  0.00  0.00    +0.000 C 
ATOM     14  C   UNL     1       3.109   5.135  17.955  0.00  0.00    +0.000 A 
ATOM     15  C   UNL     1       4.038   4.299  17.308  0.00  0.00    +0.000 A 
ATOM     16  C   UNL     1       5.220   4.818  16.784  0.00  0.00    +0.000 A 
ATOM     17  F   UNL     1       6.068   4.005  16.142  0.00  0.00    +0.000 F 
ATOM     18  C   UNL     1       5.525   6.164  16.907  0.00  0.00    +0.000 A 
ATOM     19  C   UNL     1       4.617   7.012  17.539  0.00  0.00    +0.000 A 
ATOM     20  C   UNL     1       3.407   6.510  18.054  0.00  0.00    +0.000 A 
ENDBRANCH   1  20
BRANCH   6  21
ATOM     21  C   UNL     1      -0.095  11.886  20.415  0.00  0.00    +0.000 A 
ATOM     22  C   UNL     1      -1.164  12.004  21.318  0.00  0.00    +0.000 A 
ATOM     23  C   UNL     1      -1.145  12.966  22.330  0.00  0.00    +0.000 A 
ATOM     24  C   UNL     1      -0.043  13.795  22.425  0.00  0.00    +0.000 A 
ATOM     25  N   UNL     1       1.024  13.706  21.606  0.00  0.00    +0.000 NA
ATOM     26  C   UNL     1       0.972  12.758  20.631  0.00  0.00    +0.000 A 
ENDBRANCH   6  21
BRANCH   9  27
ATOM     27  C   UNL     1      -3.120  11.252  16.532  0.00  0.00    +0.000 C 
BRANCH  27  28
ATOM     28  C   UNL     1      -4.472  10.957  17.191  0.00  0.00    +0.000 C 
BRANCH  28  29
ATOM     29  C   UNL     1      -4.689  11.829  18.422  0.00  0.00    +0.000 C 
BRANCH  29  30
ATOM     30  N   UNL     1      -5.912  11.491  19.174  0.00  0.00    +0.000 NA
ATOM     31  C   UNL     1      -7.167  11.780  18.439  0.00  0.00    +0.000 C 
ATOM     32  C   UNL     1      -7.425  13.280  18.230  0.00  0.00    +0.000 C 
ATOM     33  O   UNL     1      -7.463  13.974  19.486  0.00  0.00    +0.000 OA
ATOM     34  C   UNL     1      -6.257  13.763  20.232  0.00  0.00    +0.000 C 
ATOM     35  C   UNL     1      -5.966  12.264  20.438  0.00  0.00    +0.000 C 
ENDBRANCH  29  30
ENDBRANCH  28  29
ENDBRANCH  27  28
ENDBRANCH   9  27
TORSDOF 6
ENDMDL
MODEL 8
REMARK VINA RESULT:      -7.6      1.959      4.254
REMARK  Name = 
REMARK  7 active torsions:
REMARK  status: ('A' for Active; 'I' for Inactive)
REMARK    1  A    between atoms: C_1  and  C_2
REMARK    2  A    between atoms: C_8  and  C_9
REMARK    3  A    between atoms: C_14  and  C_15
REMARK    4  A    between atoms: N_23  and  C_24
REMARK    5  A    between atoms: C_24  and  C_25
REMARK    6  A    between atoms: C_25  and  C_26
REMARK    7  A    between atoms: C_26  and  N_27
REMARK                            x       y       z     vdW  Elec       q    Type
REMARK                         _______ _______ _______ _____ _____    ______ ____
ROOT
ATOM      1  C   UNL     1       1.932   8.325  18.318  0.00  0.00    +0.000 C 
ATOM      2  O   UNL     1       1.436   8.451  17.202  0.00  0.00    +0.000 OA
ATOM      3  N   UNL     1       1.703   9.170  19.379  0.00  0.00    +0.000 N 
ATOM      4  C   UNL     1       0.861  10.281  19.274  0.00  0.00    +0.000 A 
ATOM      5  C   UNL     1      -0.351  10.222  18.624  0.00  0.00    +0.000 A 
ATOM      6  C   UNL     1      -1.092  11.386  18.591  0.00  0.00    +0.000 A 
ATOM      7  N   UNL     1      -0.627  12.523  19.155  0.00  0.00    +0.000 NA
ATOM      8  C   UNL     1       0.559  12.478  19.774  0.00  0.00    +0.000 A 
ATOM      9  N   UNL     1       1.098  13.607  20.378  0.00  0.00    +0.000 N 
ATOM     10  N   UNL     1       1.318  11.384  19.872  0.00  0.00    +0.000 NA
ATOM     11  H   UNL     1       2.429   9.272  20.076  0.00  0.00    +0.000 HD
ATOM     12  H   UNL     1       1.846  13.935  19.770  0.00  0.00    +0.000 HD
ENDROOT
BRANCH   1  20
ATOM     13  C   UNL     1       1.721   6.217  20.540  0.00  0.00    +0.000 C 
ATOM     14  C   UNL     1       2.811   6.239  19.506  0.00  0.00    +0.000 A 
ATOM     15  C   UNL     1       3.740   5.183  19.494  0.00  0.00    +0.000 A 
ATOM     16  C   UNL     1       4.757   5.139  18.542  0.00  0.00    +0.000 A 
ATOM     17  F   UNL     1       5.605   4.103  18.533  0.00  0.00    +0.000 F 
ATOM     18  C   UNL     1       4.894   6.144  17.597  0.00  0.00    +0.000 A 
ATOM     19  C   UNL     1       3.981   7.196  17.587  0.00  0.00    +0.000 A 
ATOM     20  C   UNL     1       2.934   7.246  18.526  0.00  0.00    +0.000 A 
ENDBRANCH   1  20
BRANCH   6  21
ATOM     21  C   UNL     1      -2.421  11.458  17.957  0.00  0.00    +0.000 A 
ATOM     22  C   UNL     1      -3.581  11.807  18.668  0.00  0.00    +0.000 A 
ATOM     23  C   UNL     1      -4.831  11.808  18.045  0.00  0.00    +0.000 A 
ATOM     24  C   UNL     1      -4.897  11.466  16.707  0.00  0.00    +0.000 A 
ATOM     25  N   UNL     1      -3.813  11.155  15.968  0.00  0.00    +0.000 NA
ATOM     26  C   UNL     1      -2.611  11.162  16.607  0.00  0.00    +0.000 A 
ENDBRANCH   6  21
BRANCH   9  27
ATOM     27  C   UNL     1       0.154  14.641  20.761  0.00  0.00    +0.000 C 
BRANCH  27  28
ATOM     28  C   UNL     1       0.126  14.761  22.288  0.00  0.00    +0.000 C 
BRANCH  28  29
ATOM     29  C   UNL     1      -1.228  14.347  22.852  0.00  0.00    +0.000 C 
BRANCH  29  30
ATOM     30  N   UNL     1      -2.040  13.556  21.910  0.00  0.00    +0.000 NA
ATOM     31  C   UNL     1      -3.424  14.061  21.738  0.00  0.00    +0.000 C 
ATOM     32  C   UNL     1      -4.296  13.904  22.993  0.00  0.00    +0.000 C 
ATOM     33  O   UNL     1      -4.362  12.531  23.402  0.00  0.00    +0.000 OA
ATOM     34  C   UNL     1      -3.052  11.990  23.621  0.00  0.00    +0.000 C 
ATOM     35  C   UNL     1      -2.151  12.154  22.382  0.00  0.00    +0.000 C 
ENDBRANCH  29  30
ENDBRANCH  28  29
ENDBRANCH  27  28
ENDBRANCH   9  27
TORSDOF 6
ENDMDL
MODEL 9
REMARK VINA RESULT:      -7.5      2.674      5.763
REMARK  Name = 
REMARK  7 active torsions:
REMARK  status: ('A' for Active; 'I' for Inactive)
REMARK    1  A    between atoms: C_1  and  C_2
REMARK    2  A    between atoms: C_8  and  C_9
REMARK    3  A    between atoms: C_14  and  C_15
REMARK    4  A    between atoms: N_23  and  C_24
REMARK    5  A    between atoms: C_24  and  C_25
REMARK    6  A    between atoms: C_25  and  C_26
REMARK    7  A    between atoms: C_26  and  N_27
REMARK                            x       y       z     vdW  Elec       q    Type
REMARK                         _______ _______ _______ _____ _____    ______ ____
ROOT
ATOM      1  C   UNL     1       2.071   8.236  18.377  0.00  0.00    +0.000 C 
ATOM      2  O   UNL     1       1.731   8.623  17.263  0.00  0.00    +0.000 OA
ATOM      3  N   UNL     1       1.621   8.766  19.564  0.00  0.00    +0.000 N 
ATOM      4  C   UNL     1       0.711   9.826  19.604  0.00  0.00    +0.000 A 
ATOM      5  C   UNL     1      -0.387   9.881  18.775  0.00  0.00    +0.000 A 
ATOM      6  C   UNL     1      -1.213  10.979  18.914  0.00  0.00    +0.000 A 
ATOM      7  N   UNL     1      -0.931  11.951  19.811  0.00  0.00    +0.000 NA
ATOM      8  C   UNL     1       0.153  11.802  20.580  0.00  0.00    +0.000 A 
ATOM      9  N   UNL     1       0.502  12.761  21.524  0.00  0.00    +0.000 N 
ATOM     10  N   UNL     1       0.981  10.757  20.524  0.00  0.00    +0.000 NA
ATOM     11  H   UNL     1       2.228   8.718  20.372  0.00  0.00    +0.000 HD
ATOM     12  H   UNL     1       1.298  13.269  21.144  0.00  0.00    +0.000 HD
ENDROOT
BRANCH   1  20
ATOM     13  C   UNL     1       1.941   5.866  20.325  0.00  0.00    +0.000 C 
ATOM     14  C   UNL     1       3.038   6.064  19.317  0.00  0.00    +0.000 A 
ATOM     15  C   UNL     1       4.017   5.062  19.191  0.00  0.00    +0.000 A 
ATOM     16  C   UNL     1       5.043   5.181  18.256  0.00  0.00    +0.000 A 
ATOM     17  F   UNL     1       5.940   4.195  18.134  0.00  0.00    +0.000 F 
ATOM     18  C   UNL     1       5.140   6.298  17.441  0.00  0.00    +0.000 A 
ATOM     19  C   UNL     1       4.178   7.300  17.545  0.00  0.00    +0.000 A 
ATOM     20  C   UNL     1       3.121   7.187  18.468  0.00  0.00    +0.000 A 
ENDBRANCH   1  20
BRANCH   6  21
ATOM     21  C   UNL     1      -2.438  11.151  18.113  0.00  0.00    +0.000 A 
ATOM     22  C   UNL     1      -2.519  10.771  16.764  0.00  0.00    +0.000 A 
ATOM     23  C   UNL     1      -3.679  11.003  16.021  0.00  0.00    +0.000 A 
ATOM     24  C   UNL     1      -4.750  11.608  16.652  0.00  0.00    +0.000 A 
ATOM     25  N   UNL     1      -4.739  11.964  17.952  0.00  0.00    +0.000 NA
ATOM     26  C   UNL     1      -3.592  11.725  18.645  0.00  0.00    +0.000 A 
ENDBRANCH   6  21
BRANCH   9  27
ATOM     27  C   UNL     1      -0.572  13.615  21.995  0.00  0.00    +0.000 C 
BRANCH  27  28
ATOM     28  C   UNL     1      -0.096  15.072  22.002  0.00  0.00    +0.000 C 
BRANCH  28  29
ATOM     29  C   UNL     1       0.249  15.548  20.596  0.00  0.00    +0.000 C 
BRANCH  29  30
ATOM     30  N   UNL     1       1.615  15.192  20.172  0.00  0.00    +0.000 NA
ATOM     31  C   UNL     1       2.676  15.998  20.823  0.00  0.00    +0.000 C 
ATOM     32  C   UNL     1       2.673  17.474  20.397  0.00  0.00    +0.000 C 
ATOM     33  O   UNL     1       2.817  17.597  18.975  0.00  0.00    +0.000 OA
ATOM     34  C   UNL     1       1.796  16.866  18.284  0.00  0.00    +0.000 C 
ATOM     35  C   UNL     1       1.765  15.386  18.709  0.00  0.00    +0.000 C 
ENDBRANCH  29  30
ENDBRANCH  28  29
ENDBRANCH  27  28
ENDBRANCH   9  27
TORSDOF 6
ENDMDL
