MODEL 1
REMARK VINA RESULT:      -7.0      0.000      0.000
REMARK  Name = 
REMARK  7 active torsions:
REMARK  status: ('A' for Active; 'I' for Inactive)
REMARK    1  A    between atoms: C_1  and  C_2
REMARK    2  A    between atoms: C_2  and  C_3
REMARK    3  A    between atoms: C_2  and  C_4
REMARK    4  A    between atoms: C_2  and  C_5
REMARK    5  A    between atoms: C_8  and  C_9
REMARK    6  A    between atoms: N_11  and  C_12
REMARK    7  A    between atoms: C_15  and  C_16
REMARK                            x       y       z     vdW  Elec       q    Type
REMARK                         _______ _______ _______ _____ _____    ______ ____
ROOT
ATOM      1  C   UNL     1       1.273   8.919  19.609  0.00  0.00    +0.000 C 
ATOM      2  O   UNL     1       0.584   9.510  18.783  0.00  0.00    +0.000 OA
ATOM      3  N   UNL     1       1.308   9.173  20.970  0.00  0.00    +0.000 N 
ATOM      4  H   UNL     1       2.057   8.750  21.505  0.00  0.00    +0.000 HD
ENDROOT
BRANCH   1   8
ATOM      5  C   UNL     1       3.916   5.968  17.893  0.00  0.00    +0.000 A 
ATOM      6  C   UNL     1       3.713   7.226  17.308  0.00  0.00    +0.000 A 
ATOM      7  C   UNL     1       2.871   8.170  17.897  0.00  0.00    +0.000 A 
ATOM      8  C   UNL     1       2.212   7.888  19.096  0.00  0.00    +0.000 A 
ATOM      9  C   UNL     1       2.399   6.650  19.708  0.00  0.00    +0.000 A 
ATOM     10  C   UNL     1       3.245   5.701  19.107  0.00  0.00    +0.000 A 
BRANCH   5  12
ATOM     11  C   UNL     1       4.144   3.522  17.101  0.00  0.00    +0.000 C 
ATOM     12  C   UNL     1       4.822   4.906  17.240  0.00  0.00    +0.000 C 
ATOM     13  C   UNL     1       6.099   4.699  18.081  0.00  0.00    +0.000 C 
ATOM     14  C   UNL     1       5.222   5.361  15.821  0.00  0.00    +0.000 C 
ENDBRANCH   5  12
ENDBRANCH   1   8
BRANCH   3  15
ATOM     15  C   UNL     1       0.526  10.156  21.625  0.00  0.00    +0.000 A 
ATOM     16  C   UNL     1      -0.465   9.857  22.559  0.00  0.00    +0.000 A 
ATOM     17  C   UNL     1      -1.245  10.873  23.113  0.00  0.00    +0.000 A 
ATOM     18  C   UNL     1      -1.017  12.193  22.737  0.00  0.00    +0.000 A 
ATOM     19  N   UNL     1      -0.022  12.519  21.860  0.00  0.00    +0.000 NA
ATOM     20  C   UNL     1       0.717  11.502  21.338  0.00  0.00    +0.000 A 
BRANCH  18  21
ATOM     21  C   UNL     1      -1.913  13.292  23.298  0.00  0.00    +0.000 C 
ATOM     22  F   UNL     1      -1.275  14.099  24.200  0.00  0.00    +0.000 F 
ATOM     23  F   UNL     1      -2.395  14.135  22.341  0.00  0.00    +0.000 F 
ATOM     24  F   UNL     1      -3.003  12.807  23.961  0.00  0.00    +0.000 F 
ENDBRANCH  18  21
ENDBRANCH   3  15
TORSDOF 4
ENDMDL
MODEL 2
REMARK VINA RESULT:      -7.0      5.836      9.490
REMARK  Name = 
REMARK  7 active torsions:
REMARK  status: ('A' for Active; 'I' for Inactive)
REMARK    1  A    between atoms: C_1  and  C_2
REMARK    2  A    between atoms: C_2  and  C_3
REMARK    3  A    between atoms: C_2  and  C_4
REMARK    4  A    between atoms: C_2  and  C_5
REMARK    5  A    between atoms: C_8  and  C_9
REMARK    6  A    between atoms: N_11  and  C_12
REMARK    7  A    between atoms: C_15  and  C_16
REMARK                            x       y       z     vdW  Elec       q    Type
REMARK                         _______ _______ _______ _____ _____    ______ ____
ROOT
ATOM      1  C   UNL     1       1.966   8.696  18.295  0.00  0.00    +0.000 C 
ATOM      2  O   UNL     1       2.059   9.139  17.154  0.00  0.00    +0.000 OA
ATOM      3  N   UNL     1       2.530   7.519  18.759  0.00  0.00    +0.000 N 
ATOM      4  H   UNL     1       2.216   7.174  19.658  0.00  0.00    +0.000 HD
ENDROOT
BRANCH   1   8
ATOM      5  C   UNL     1      -0.440  11.089  20.963  0.00  0.00    +0.000 A 
ATOM      6  C   UNL     1      -0.307  11.387  19.599  0.00  0.00    +0.000 A 
ATOM      7  C   UNL     1       0.458  10.582  18.754  0.00  0.00    +0.000 A 
ATOM      8  C   UNL     1       1.108   9.448  19.246  0.00  0.00    +0.000 A 
ATOM      9  C   UNL     1       0.989   9.119  20.596  0.00  0.00    +0.000 A 
ATOM     10  C   UNL     1       0.220   9.937  21.442  0.00  0.00    +0.000 A 
BRANCH   5  12
ATOM     11  C   UNL     1      -2.606  12.451  21.307  0.00  0.00    +0.000 C 
ATOM     12  C   UNL     1      -1.260  11.984  21.913  0.00  0.00    +0.000 C 
ATOM     13  C   UNL     1      -0.464  13.256  22.273  0.00  0.00    +0.000 C 
ATOM     14  C   UNL     1      -1.587  11.211  23.208  0.00  0.00    +0.000 C 
ENDBRANCH   5  12
ENDBRANCH   1   8
BRANCH   3  15
ATOM     15  C   UNL     1       3.328   6.646  17.979  0.00  0.00    +0.000 A 
ATOM     16  C   UNL     1       3.067   5.285  17.835  0.00  0.00    +0.000 A 
ATOM     17  C   UNL     1       3.937   4.471  17.106  0.00  0.00    +0.000 A 
ATOM     18  C   UNL     1       5.063   5.032  16.513  0.00  0.00    +0.000 A 
ATOM     19  N   UNL     1       5.317   6.371  16.598  0.00  0.00    +0.000 NA
ATOM     20  C   UNL     1       4.449   7.134  17.317  0.00  0.00    +0.000 A 
BRANCH  18  21
ATOM     21  C   UNL     1       6.042   4.127  15.771  0.00  0.00    +0.000 C 
ATOM     22  F   UNL     1       6.077   4.361  14.424  0.00  0.00    +0.000 F 
ATOM     23  F   UNL     1       7.331   4.270  16.193  0.00  0.00    +0.000 F 
ATOM     24  F   UNL     1       5.745   2.802  15.897  0.00  0.00    +0.000 F 
ENDBRANCH  18  21
ENDBRANCH   3  15
TORSDOF 4
ENDMDL
MODEL 3
REMARK VINA RESULT:      -7.0      5.928      9.509
REMARK  Name = 
REMARK  7 active torsions:
REMARK  status: ('A' for Active; 'I' for Inactive)
REMARK    1  A    between atoms: C_1  and  C_2
REMARK    2  A    between atoms: C_2  and  C_3
REMARK    3  A    between atoms: C_2  and  C_4
REMARK    4  A    between atoms: C_2  and  C_5
REMARK    5  A    between atoms: C_8  and  C_9
REMARK    6  A    between atoms: N_11  and  C_12
REMARK    7  A    between atoms: C_15  and  C_16
REMARK                            x       y       z     vdW  Elec       q    Type
REMARK                         _______ _______ _______ _____ _____    ______ ____
ROOT
ATOM      1  C   UNL     1       2.180   7.465  19.586  0.00  0.00    +0.000 C 
ATOM      2  O   UNL     1       2.402   6.484  20.289  0.00  0.00    +0.000 OA
ATOM      3  N   UNL     1       2.728   7.713  18.338  0.00  0.00    +0.000 N 
ATOM      4  H   UNL     1       2.615   8.643  17.955  0.00  0.00    +0.000 HD
ENDROOT
BRANCH   1   8
ATOM      5  C   UNL     1      -0.226  10.701  21.128  0.00  0.00    +0.000 A 
ATOM      6  C   UNL     1       0.229  10.668  19.803  0.00  0.00    +0.000 A 
ATOM      7  C   UNL     1       0.986   9.598  19.323  0.00  0.00    +0.000 A 
ATOM      8  C   UNL     1       1.304   8.521  20.154  0.00  0.00    +0.000 A 
ATOM      9  C   UNL     1       0.858   8.518  21.476  0.00  0.00    +0.000 A 
ATOM     10  C   UNL     1       0.101   9.602  21.953  0.00  0.00    +0.000 A 
BRANCH   5  12
ATOM     11  C   UNL     1      -1.714  11.593  23.039  0.00  0.00    +0.000 C 
ATOM     12  C   UNL     1      -1.040  11.889  21.678  0.00  0.00    +0.000 C 
ATOM     13  C   UNL     1      -2.164  12.271  20.693  0.00  0.00    +0.000 C 
ATOM     14  C   UNL     1      -0.114  13.106  21.884  0.00  0.00    +0.000 C 
ENDBRANCH   5  12
ENDBRANCH   1   8
BRANCH   3  15
ATOM     15  C   UNL     1       3.627   6.846  17.667  0.00  0.00    +0.000 A 
ATOM     16  C   UNL     1       3.464   5.463  17.609  0.00  0.00    +0.000 A 
ATOM     17  C   UNL     1       4.428   4.663  16.990  0.00  0.00    +0.000 A 
ATOM     18  C   UNL     1       5.547   5.259  16.418  0.00  0.00    +0.000 A 
ATOM     19  N   UNL     1       5.706   6.616  16.419  0.00  0.00    +0.000 NA
ATOM     20  C   UNL     1       4.750   7.363  17.033  0.00  0.00    +0.000 A 
BRANCH  18  21
ATOM     21  C   UNL     1       6.625   4.376  15.799  0.00  0.00    +0.000 C 
ATOM     22  F   UNL     1       7.188   4.920  14.677  0.00  0.00    +0.000 F 
ATOM     23  F   UNL     1       7.669   4.131  16.641  0.00  0.00    +0.000 F 
ATOM     24  F   UNL     1       6.157   3.156  15.408  0.00  0.00    +0.000 F 
ENDBRANCH  18  21
ENDBRANCH   3  15
TORSDOF 4
ENDMDL
MODEL 4
REMARK VINA RESULT:      -7.0      0.426      1.545
REMARK  Name = 
REMARK  7 active torsions:
REMARK  status: ('A' for Active; 'I' for Inactive)
REMARK    1  A    between atoms: C_1  and  C_2
REMARK    2  A    between atoms: C_2  and  C_3
REMARK    3  A    between atoms: C_2  and  C_4
REMARK    4  A    between atoms: C_2  and  C_5
REMARK    5  A    between atoms: C_8  and  C_9
REMARK    6  A    between atoms: N_11  and  C_12
REMARK    7  A    between atoms: C_15  and  C_16
REMARK                            x       y       z     vdW  Elec       q    Type
REMARK                         _______ _______ _______ _____ _____    ______ ____
ROOT
ATOM      1  C   UNL     1       1.371   8.883  19.456  0.00  0.00    +0.000 C 
ATOM      2  O   UNL     1       0.885   9.654  18.634  0.00  0.00    +0.000 OA
ATOM      3  N   UNL     1       1.260   8.987  20.832  0.00  0.00    +0.000 N 
ATOM      4  H   UNL     1       1.866   8.402  21.395  0.00  0.00    +0.000 HD
ENDROOT
BRANCH   1   8
ATOM      5  C   UNL     1       3.909   5.638  18.164  0.00  0.00    +0.000 A 
ATOM      6  C   UNL     1       3.108   5.556  19.312  0.00  0.00    +0.000 A 
ATOM      7  C   UNL     1       2.279   6.611  19.694  0.00  0.00    +0.000 A 
ATOM      8  C   UNL     1       2.218   7.781  18.933  0.00  0.00    +0.000 A 
ATOM      9  C   UNL     1       2.994   7.891  17.780  0.00  0.00    +0.000 A 
ATOM     10  C   UNL     1       3.831   6.826  17.404  0.00  0.00    +0.000 A 
BRANCH   5  12
ATOM     11  C   UNL     1       5.091   4.422  16.219  0.00  0.00    +0.000 C 
ATOM     12  C   UNL     1       4.849   4.491  17.745  0.00  0.00    +0.000 C 
ATOM     13  C   UNL     1       4.257   3.130  18.169  0.00  0.00    +0.000 C 
ATOM     14  C   UNL     1       6.226   4.672  18.417  0.00  0.00    +0.000 C 
ENDBRANCH   5  12
ENDBRANCH   1   8
BRANCH   3  15
ATOM     15  C   UNL     1       0.542  10.005  21.508  0.00  0.00    +0.000 A 
ATOM     16  C   UNL     1      -0.384   9.753  22.519  0.00  0.00    +0.000 A 
ATOM     17  C   UNL     1      -1.107  10.801  23.092  0.00  0.00    +0.000 A 
ATOM     18  C   UNL     1      -0.887  12.103  22.656  0.00  0.00    +0.000 A 
ATOM     19  N   UNL     1       0.048  12.383  21.700  0.00  0.00    +0.000 NA
ATOM     20  C   UNL     1       0.732  11.337  21.162  0.00  0.00    +0.000 A 
BRANCH  18  21
ATOM     21  C   UNL     1      -1.724  13.236  23.242  0.00  0.00    +0.000 C 
ATOM     22  F   UNL     1      -2.144  14.138  22.303  0.00  0.00    +0.000 F 
ATOM     23  F   UNL     1      -2.862  12.802  23.855  0.00  0.00    +0.000 F 
ATOM     24  F   UNL     1      -1.050  13.974  24.170  0.00  0.00    +0.000 F 
ENDBRANCH  18  21
ENDBRANCH   3  15
TORSDOF 4
ENDMDL
MODEL 5
REMARK VINA RESULT:      -7.0      5.921      9.506
REMARK  Name = 
REMARK  7 active torsions:
REMARK  status: ('A' for Active; 'I' for Inactive)
REMARK    1  A    between atoms: C_1  and  C_2
REMARK    2  A    between atoms: C_2  and  C_3
REMARK    3  A    between atoms: C_2  and  C_4
REMARK    4  A    between atoms: C_2  and  C_5
REMARK    5  A    between atoms: C_8  and  C_9
REMARK    6  A    between atoms: N_11  and  C_12
REMARK    7  A    between atoms: C_15  and  C_16
REMARK                            x       y       z     vdW  Elec       q    Type
REMARK                         _______ _______ _______ _____ _____    ______ ____
ROOT
ATOM      1  C   UNL     1       2.184   7.488  19.594  0.00  0.00    +0.000 C 
ATOM      2  O   UNL     1       2.407   6.505  20.294  0.00  0.00    +0.000 OA
ATOM      3  N   UNL     1       2.724   7.734  18.343  0.00  0.00    +0.000 N 
ATOM      4  H   UNL     1       2.612   8.665  17.961  0.00  0.00    +0.000 HD
ENDROOT
BRANCH   1   8
ATOM      5  C   UNL     1      -0.215  10.729  21.135  0.00  0.00    +0.000 A 
ATOM      6  C   UNL     1       0.128  10.626  19.779  0.00  0.00    +0.000 A 
ATOM      7  C   UNL     1       0.886   9.555  19.304  0.00  0.00    +0.000 A 
ATOM      8  C   UNL     1       1.316   8.546  20.169  0.00  0.00    +0.000 A 
ATOM      9  C   UNL     1       0.983   8.614  21.522  0.00  0.00    +0.000 A 
ATOM     10  C   UNL     1       0.225   9.698  21.995  0.00  0.00    +0.000 A 
BRANCH   5  12
ATOM     11  C   UNL     1      -0.165  13.172  21.966  0.00  0.00    +0.000 C 
ATOM     12  C   UNL     1      -1.028  11.920  21.678  0.00  0.00    +0.000 C 
ATOM     13  C   UNL     1      -1.722  11.537  23.003  0.00  0.00    +0.000 C 
ATOM     14  C   UNL     1      -2.101  12.334  20.649  0.00  0.00    +0.000 C 
ENDBRANCH   5  12
ENDBRANCH   1   8
BRANCH   3  15
ATOM     15  C   UNL     1       3.615   6.865  17.665  0.00  0.00    +0.000 A 
ATOM     16  C   UNL     1       3.436   5.485  17.588  0.00  0.00    +0.000 A 
ATOM     17  C   UNL     1       4.392   4.681  16.964  0.00  0.00    +0.000 A 
ATOM     18  C   UNL     1       5.521   5.270  16.405  0.00  0.00    +0.000 A 
ATOM     19  N   UNL     1       5.698   6.624  16.424  0.00  0.00    +0.000 NA
ATOM     20  C   UNL     1       4.748   7.376  17.043  0.00  0.00    +0.000 A 
BRANCH  18  21
ATOM     21  C   UNL     1       6.591   4.381  15.779  0.00  0.00    +0.000 C 
ATOM     22  F   UNL     1       7.647   4.140  16.614  0.00  0.00    +0.000 F 
ATOM     23  F   UNL     1       6.126   3.149  15.423  0.00  0.00    +0.000 F 
ATOM     24  F   UNL     1       7.141   4.919  14.652  0.00  0.00    +0.000 F 
ENDBRANCH  18  21
ENDBRANCH   3  15
TORSDOF 4
ENDMDL
MODEL 6
REMARK VINA RESULT:      -7.0      5.940      9.517
REMARK  Name = 
REMARK  7 active torsions:
REMARK  status: ('A' for Active; 'I' for Inactive)
REMARK    1  A    between atoms: C_1  and  C_2
REMARK    2  A    between atoms: C_2  and  C_3
REMARK    3  A    between atoms: C_2  and  C_4
REMARK    4  A    between atoms: C_2  and  C_5
REMARK    5  A    between atoms: C_8  and  C_9
REMARK    6  A    between atoms: N_11  and  C_12
REMARK    7  A    between atoms: C_15  and  C_16
REMARK                            x       y       z     vdW  Elec       q    Type
REMARK                         _______ _______ _______ _____ _____    ______ ____
ROOT
ATOM      1  C   UNL     1       2.194   7.451  19.538  0.00  0.00    +0.000 C 
ATOM      2  O   UNL     1       2.386   6.446  20.216  0.00  0.00    +0.000 OA
ATOM      3  N   UNL     1       2.768   7.725  18.308  0.00  0.00    +0.000 N 
ATOM      4  H   UNL     1       2.678   8.669  17.951  0.00  0.00    +0.000 HD
ENDROOT
BRANCH   1   8
ATOM      5  C   UNL     1      -0.194  10.683  21.117  0.00  0.00    +0.000 A 
ATOM      6  C   UNL     1       0.199  10.626  19.772  0.00  0.00    +0.000 A 
ATOM      7  C   UNL     1       0.951   9.557  19.283  0.00  0.00    +0.000 A 
ATOM      8  C   UNL     1       1.327   8.506  20.123  0.00  0.00    +0.000 A 
ATOM      9  C   UNL     1       0.944   8.528  21.464  0.00  0.00    +0.000 A 
ATOM     10  C   UNL     1       0.191   9.610  21.951  0.00  0.00    +0.000 A 
BRANCH   5  12
ATOM     11  C   UNL     1      -2.170  12.304  20.760  0.00  0.00    +0.000 C 
ATOM     12  C   UNL     1      -1.002  11.870  21.677  0.00  0.00    +0.000 C 
ATOM     13  C   UNL     1      -0.090  13.102  21.858  0.00  0.00    +0.000 C 
ATOM     14  C   UNL     1      -1.612  11.490  23.043  0.00  0.00    +0.000 C 
ENDBRANCH   5  12
ENDBRANCH   1   8
BRANCH   3  15
ATOM     15  C   UNL     1       3.663   6.862  17.628  0.00  0.00    +0.000 A 
ATOM     16  C   UNL     1       3.521   5.476  17.594  0.00  0.00    +0.000 A 
ATOM     17  C   UNL     1       4.481   4.682  16.963  0.00  0.00    +0.000 A 
ATOM     18  C   UNL     1       5.575   5.287  16.353  0.00  0.00    +0.000 A 
ATOM     19  N   UNL     1       5.714   6.645  16.330  0.00  0.00    +0.000 NA
ATOM     20  C   UNL     1       4.761   7.387  16.957  0.00  0.00    +0.000 A 
BRANCH  18  21
ATOM     21  C   UNL     1       6.651   4.411  15.719  0.00  0.00    +0.000 C 
ATOM     22  F   UNL     1       6.180   3.196  15.302  0.00  0.00    +0.000 F 
ATOM     23  F   UNL     1       7.221   4.973  14.615  0.00  0.00    +0.000 F 
ATOM     24  F   UNL     1       7.677   4.123  16.571  0.00  0.00    +0.000 F 
ENDBRANCH  18  21
ENDBRANCH   3  15
TORSDOF 4
ENDMDL
MODEL 7
REMARK VINA RESULT:      -6.9      1.537      2.332
REMARK  Name = 
REMARK  7 active torsions:
REMARK  status: ('A' for Active; 'I' for Inactive)
REMARK    1  A    between atoms: C_1  and  C_2
REMARK    2  A    between atoms: C_2  and  C_3
REMARK    3  A    between atoms: C_2  and  C_4
REMARK    4  A    between atoms: C_2  and  C_5
REMARK    5  A    between atoms: C_8  and  C_9
REMARK    6  A    between atoms: N_11  and  C_12
REMARK    7  A    between atoms: C_15  and  C_16
REMARK                            x       y       z     vdW  Elec       q    Type
REMARK                         _______ _______ _______ _____ _____    ______ ____
ROOT
ATOM      1  C   UNL     1       2.066   7.376  19.885  0.00  0.00    +0.000 C 
ATOM      2  O   UNL     1       1.485   6.653  20.689  0.00  0.00    +0.000 OA
ATOM      3  N   UNL     1       1.830   8.726  19.687  0.00  0.00    +0.000 N 
ATOM      4  H   UNL     1       2.238   9.155  18.865  0.00  0.00    +0.000 HD
ENDROOT
BRANCH   1   8
ATOM      5  C   UNL     1       5.102   5.473  17.476  0.00  0.00    +0.000 A 
ATOM      6  C   UNL     1       4.729   4.988  18.738  0.00  0.00    +0.000 A 
ATOM      7  C   UNL     1       3.728   5.609  19.486  0.00  0.00    +0.000 A 
ATOM      8  C   UNL     1       3.060   6.731  18.990  0.00  0.00    +0.000 A 
ATOM      9  C   UNL     1       3.401   7.234  17.734  0.00  0.00    +0.000 A 
ATOM     10  C   UNL     1       4.414   6.606  16.989  0.00  0.00    +0.000 A 
BRANCH   5  12
ATOM     11  C   UNL     1       7.484   4.478  17.487  0.00  0.00    +0.000 C 
ATOM     12  C   UNL     1       6.225   4.813  16.652  0.00  0.00    +0.000 C 
ATOM     13  C   UNL     1       6.676   5.752  15.513  0.00  0.00    +0.000 C 
ATOM     14  C   UNL     1       5.717   3.490  16.042  0.00  0.00    +0.000 C 
ENDBRANCH   5  12
ENDBRANCH   1   8
BRANCH   3  15
ATOM     15  C   UNL     1       0.880   9.492  20.408  0.00  0.00    +0.000 A 
ATOM     16  C   UNL     1      -0.197  10.143  19.810  0.00  0.00    +0.000 A 
ATOM     17  C   UNL     1      -1.055  10.939  20.573  0.00  0.00    +0.000 A 
ATOM     18  C   UNL     1      -0.834  11.065  21.941  0.00  0.00    +0.000 A 
ATOM     19  N   UNL     1       0.186  10.400  22.559  0.00  0.00    +0.000 NA
ATOM     20  C   UNL     1       1.003   9.636  21.784  0.00  0.00    +0.000 A 
BRANCH  18  21
ATOM     21  C   UNL     1      -1.736  11.984  22.758  0.00  0.00    +0.000 C 
ATOM     22  F   UNL     1      -2.501  11.314  23.673  0.00  0.00    +0.000 F 
ATOM     23  F   UNL     1      -1.046  12.913  23.480  0.00  0.00    +0.000 F 
ATOM     24  F   UNL     1      -2.624  12.681  21.992  0.00  0.00    +0.000 F 
ENDBRANCH  18  21
ENDBRANCH   3  15
TORSDOF 4
ENDMDL
MODEL 8
REMARK VINA RESULT:      -6.9      5.909      9.569
REMARK  Name = 
REMARK  7 active torsions:
REMARK  status: ('A' for Active; 'I' for Inactive)
REMARK    1  A    between atoms: C_1  and  C_2
REMARK    2  A    between atoms: C_2  and  C_3
REMARK    3  A    between atoms: C_2  and  C_4
REMARK    4  A    between atoms: C_2  and  C_5
REMARK    5  A    between atoms: C_8  and  C_9
REMARK    6  A    between atoms: N_11  and  C_12
REMARK    7  A    between atoms: C_15  and  C_16
REMARK                            x       y       z     vdW  Elec       q    Type
REMARK                         _______ _______ _______ _____ _____    ______ ____
ROOT
ATOM      1  C   UNL     1       2.108   8.710  18.223  0.00  0.00    +0.000 C 
ATOM      2  O   UNL     1       2.192   9.159  17.084  0.00  0.00    +0.000 OA
ATOM      3  N   UNL     1       2.709   7.552  18.687  0.00  0.00    +0.000 N 
ATOM      4  H   UNL     1       2.402   7.194  19.583  0.00  0.00    +0.000 HD
ENDROOT
BRANCH   1   8
ATOM      5  C   UNL     1      -0.377  11.013  20.898  0.00  0.00    +0.000 A 
ATOM      6  C   UNL     1      -0.178  11.375  19.559  0.00  0.00    +0.000 A 
ATOM      7  C   UNL     1       0.612  10.600  18.709  0.00  0.00    +0.000 A 
ATOM      8  C   UNL     1       1.220   9.430  19.171  0.00  0.00    +0.000 A 
ATOM      9  C   UNL     1       1.034   9.037  20.496  0.00  0.00    +0.000 A 
ATOM     10  C   UNL     1       0.242   9.826  21.348  0.00  0.00    +0.000 A 
BRANCH   5  12
ATOM     11  C   UNL     1      -1.600  11.146  23.167  0.00  0.00    +0.000 C 
ATOM     12  C   UNL     1      -1.225  11.875  21.855  0.00  0.00    +0.000 C 
ATOM     13  C   UNL     1      -2.548  12.288  21.175  0.00  0.00    +0.000 C 
ATOM     14  C   UNL     1      -0.442  13.145  22.247  0.00  0.00    +0.000 C 
ENDBRANCH   5  12
ENDBRANCH   1   8
BRANCH   3  15
ATOM     15  C   UNL     1       3.540   6.709  17.908  0.00  0.00    +0.000 A 
ATOM     16  C   UNL     1       4.660   7.162  17.211  0.00  0.00    +0.000 A 
ATOM     17  C   UNL     1       5.393   6.287  16.406  0.00  0.00    +0.000 A 
ATOM     18  C   UNL     1       5.006   4.954  16.315  0.00  0.00    +0.000 A 
ATOM     19  N   UNL     1       3.942   4.474  17.024  0.00  0.00    +0.000 NA
ATOM     20  C   UNL     1       3.249   5.355  17.796  0.00  0.00    +0.000 A 
BRANCH  18  21
ATOM     21  C   UNL     1       5.773   4.019  15.386  0.00  0.00    +0.000 C 
ATOM     22  F   UNL     1       5.712   2.708  15.771  0.00  0.00    +0.000 F 
ATOM     23  F   UNL     1       5.312   4.038  14.103  0.00  0.00    +0.000 F 
ATOM     24  F   UNL     1       7.105   4.309  15.316  0.00  0.00    +0.000 F 
ENDBRANCH  18  21
ENDBRANCH   3  15
TORSDOF 4
ENDMDL
MODEL 9
REMARK VINA RESULT:      -6.9      4.622      9.489
REMARK  Name = 
REMARK  7 active torsions:
REMARK  status: ('A' for Active; 'I' for Inactive)
REMARK    1  A    between atoms: C_1  and  C_2
REMARK    2  A    between atoms: C_2  and  C_3
REMARK    3  A    between atoms: C_2  and  C_4
REMARK    4  A    between atoms: C_2  and  C_5
REMARK    5  A    between atoms: C_8  and  C_9
REMARK    6  A    between atoms: N_11  and  C_12
REMARK    7  A    between atoms: C_15  and  C_16
REMARK                            x       y       z     vdW  Elec       q    Type
REMARK                         _______ _______ _______ _____ _____    ______ ____
ROOT
ATOM      1  C   UNL     1       0.264  10.807  21.017  0.00  0.00    +0.000 C 
ATOM      2  O   UNL     1       1.361  11.275  21.307  0.00  0.00    +0.000 OA
ATOM      3  N   UNL     1       0.035   9.739  20.165  0.00  0.00    +0.000 N 
ATOM      4  H   UNL     1      -0.918   9.580  19.862  0.00  0.00    +0.000 HD
ENDROOT
BRANCH   1   8
ATOM      5  C   UNL     1      -3.269  12.595  22.736  0.00  0.00    +0.000 A 
ATOM      6  C   UNL     1      -2.392  11.795  23.483  0.00  0.00    +0.000 A 
ATOM      7  C   UNL     1      -1.244  11.249  22.907  0.00  0.00    +0.000 A 
ATOM      8  C   UNL     1      -0.932  11.493  21.568  0.00  0.00    +0.000 A 
ATOM      9  C   UNL     1      -1.780  12.291  20.800  0.00  0.00    +0.000 A 
ATOM     10  C   UNL     1      -2.937  12.834  21.384  0.00  0.00    +0.000 A 
BRANCH   5  12
ATOM     11  C   UNL     1      -4.437  14.686  23.698  0.00  0.00    +0.000 C 
ATOM     12  C   UNL     1      -4.555  13.182  23.352  0.00  0.00    +0.000 C 
ATOM     13  C   UNL     1      -4.909  12.445  24.660  0.00  0.00    +0.000 C 
ATOM     14  C   UNL     1      -5.725  13.035  22.358  0.00  0.00    +0.000 C 
ENDBRANCH   5  12
ENDBRANCH   1   8
BRANCH   3  15
ATOM     15  C   UNL     1       1.051   9.003  19.505  0.00  0.00    +0.000 A 
ATOM     16  C   UNL     1       1.496   9.289  18.216  0.00  0.00    +0.000 A 
ATOM     17  C   UNL     1       2.451   8.477  17.601  0.00  0.00    +0.000 A 
ATOM     18  C   UNL     1       2.968   7.386  18.291  0.00  0.00    +0.000 A 
ATOM     19  N   UNL     1       2.584   7.111  19.573  0.00  0.00    +0.000 NA
ATOM     20  C   UNL     1       1.650   7.921  20.140  0.00  0.00    +0.000 A 
BRANCH  18  21
ATOM     21  C   UNL     1       3.965   6.468  17.592  0.00  0.00    +0.000 C 
ATOM     22  F   UNL     1       5.050   6.160  18.367  0.00  0.00    +0.000 F 
ATOM     23  F   UNL     1       3.429   5.267  17.232  0.00  0.00    +0.000 F 
ATOM     24  F   UNL     1       4.482   7.010  16.452  0.00  0.00    +0.000 F 
ENDBRANCH  18  21
ENDBRANCH   3  15
TORSDOF 4
ENDMDL
