MODEL 1
REMARK VINA RESULT:      -7.1      0.000      0.000
REMARK  Name = 
REMARK  8 active torsions:
REMARK  status: ('A' for Active; 'I' for Inactive)
REMARK    1  A    between atoms: C_1  and  C_2
REMARK    2  A    between atoms: C_2  and  O_3
REMARK    3  A    between atoms: O_3  and  C_4
REMARK    4  A    between atoms: C_4  and  C_6
REMARK    5  A    between atoms: C_9  and  N_10
REMARK    6  A    between atoms: N_10  and  C_11
REMARK    7  A    between atoms: C_11  and  C_12
REMARK    8  A    between atoms: C_19  and  C_20
REMARK                            x       y       z     vdW  Elec       q    Type
REMARK                         _______ _______ _______ _____ _____    ______ ____
ROOT
ATOM      1  C   UNL     1       5.557   4.964  16.572  0.00  0.00    +0.000 C 
ATOM      2  C   UNL     1       4.306   4.074  16.644  0.00  0.00    +0.000 C 
ATOM      3  C   UNL     1       3.370   4.552  17.761  0.00  0.00    +0.000 C 
ATOM      4  C   UNL     1       3.962   5.774  18.511  0.00  0.00    +0.000 C 
ATOM      5  C   UNL     1       4.175   6.898  17.458  0.00  0.00    +0.000 C 
ATOM      6  C   UNL     1       5.108   6.421  16.330  0.00  0.00    +0.000 C 
ATOM      7  C   UNL     1       5.364   5.404  19.057  0.00  0.00    +0.000 C 
ATOM      8  C   UNL     1       6.281   4.921  17.933  0.00  0.00    +0.000 C 
ENDROOT
BRANCH   1   9
ATOM      9  C   UNL     1       6.499   4.505  15.467  0.00  0.00    +0.000 C 
ATOM     10  O   UNL     1       7.692   4.769  15.414  0.00  0.00    +0.000 OA
BRANCH   9  11
ATOM     11  O   UNL     1       5.801   3.850  14.498  0.00  0.00    +0.000 OA
BRANCH  11  13
ATOM     12  C   UNL     1       5.417   3.283  12.216  0.00  0.00    +0.000 C 
ATOM     13  C   UNL     1       6.415   3.860  13.203  0.00  0.00    +0.000 C 
ENDBRANCH  11  13
ENDBRANCH   9  11
ENDBRANCH   1   9
BRANCH   4  14
ATOM     14  N   UNL     1       3.080   6.274  19.587  0.00  0.00    +0.000 NA
ATOM     15  H   UNL     1       3.662   6.604  20.363  0.00  0.00    +0.000 HD
BRANCH  14  16
ATOM     16  C   UNL     1       2.239   7.409  19.160  0.00  0.00    +0.000 C 
BRANCH  16  17
ATOM     17  C   UNL     1       1.570   8.090  20.351  0.00  0.00    +0.000 C 
ATOM     18  O   UNL     1       1.556   7.538  21.452  0.00  0.00    +0.000 OA
ATOM     19  N   UNL     1       1.014   9.338  20.166  0.00  0.00    +0.000 N 
ATOM     20  C   UNL     1       0.502  10.109  21.280  0.00  0.00    +0.000 C 
ATOM     21  C   UNL     1      -0.754  10.749  20.731  0.00  0.00    +0.000 C 
ATOM     22  F   UNL     1      -1.003  11.929  21.343  0.00  0.00    +0.000 F 
ATOM     23  C   UNL     1      -0.445  10.982  19.258  0.00  0.00    +0.000 C 
ATOM     24  C   UNL     1       0.611   9.930  18.888  0.00  0.00    +0.000 C 
BRANCH  24  25
ATOM     25  C   UNL     1       1.737  10.569  18.174  0.00  0.00    +0.000 C 
ATOM     26  N   UNL     1       2.624  11.071  17.619  0.00  0.00    +0.000 NA
ENDBRANCH  24  25
ENDBRANCH  16  17
ENDBRANCH  14  16
ENDBRANCH   4  14
TORSDOF 7
ENDMDL
MODEL 2
REMARK VINA RESULT:      -7.0      0.713      1.450
REMARK  Name = 
REMARK  8 active torsions:
REMARK  status: ('A' for Active; 'I' for Inactive)
REMARK    1  A    between atoms: C_1  and  C_2
REMARK    2  A    between atoms: C_2  and  O_3
REMARK    3  A    between atoms: O_3  and  C_4
REMARK    4  A    between atoms: C_4  and  C_6
REMARK    5  A    between atoms: C_9  and  N_10
REMARK    6  A    between atoms: N_10  and  C_11
REMARK    7  A    between atoms: C_11  and  C_12
REMARK    8  A    between atoms: C_19  and  C_20
REMARK                            x       y       z     vdW  Elec       q    Type
REMARK                         _______ _______ _______ _____ _____    ______ ____
ROOT
ATOM      1  C   UNL     1       5.971   5.116  15.927  0.00  0.00    +0.000 C 
ATOM      2  C   UNL     1       6.829   5.148  17.202  0.00  0.00    +0.000 C 
ATOM      3  C   UNL     1       5.972   5.523  18.417  0.00  0.00    +0.000 C 
ATOM      4  C   UNL     1       4.498   5.786  18.011  0.00  0.00    +0.000 C 
ATOM      5  C   UNL     1       3.967   4.483  17.348  0.00  0.00    +0.000 C 
ATOM      6  C   UNL     1       4.828   4.097  16.132  0.00  0.00    +0.000 C 
ATOM      7  C   UNL     1       4.459   6.886  16.923  0.00  0.00    +0.000 C 
ATOM      8  C   UNL     1       5.326   6.502  15.722  0.00  0.00    +0.000 C 
ENDROOT
BRANCH   1   9
ATOM      9  C   UNL     1       6.805   4.745  14.708  0.00  0.00    +0.000 C 
ATOM     10  O   UNL     1       7.694   5.439  14.235  0.00  0.00    +0.000 OA
BRANCH   9  11
ATOM     11  O   UNL     1       6.348   3.585  14.162  0.00  0.00    +0.000 OA
BRANCH  11  13
ATOM     12  C   UNL     1       4.983   3.530  12.210  0.00  0.00    +0.000 C 
ATOM     13  C   UNL     1       6.409   3.527  12.732  0.00  0.00    +0.000 C 
ENDBRANCH  11  13
ENDBRANCH   9  11
ENDBRANCH   1   9
BRANCH   4  14
ATOM     14  N   UNL     1       3.636   6.134  19.161  0.00  0.00    +0.000 NA
ATOM     15  H   UNL     1       4.204   6.619  19.862  0.00  0.00    +0.000 HD
BRANCH  14  16
ATOM     16  C   UNL     1       2.527   7.037  18.796  0.00  0.00    +0.000 C 
BRANCH  16  17
ATOM     17  C   UNL     1       1.816   7.579  20.033  0.00  0.00    +0.000 C 
ATOM     18  O   UNL     1       1.827   6.938  21.084  0.00  0.00    +0.000 OA
ATOM     19  N   UNL     1       1.195   8.808  19.947  0.00  0.00    +0.000 N 
ATOM     20  C   UNL     1       0.638   9.455  21.117  0.00  0.00    +0.000 C 
ATOM     21  C   UNL     1      -0.648  10.071  20.611  0.00  0.00    +0.000 C 
ATOM     22  F   UNL     1      -0.964  11.181  21.316  0.00  0.00    +0.000 F 
ATOM     23  C   UNL     1      -0.345  10.443  19.165  0.00  0.00    +0.000 C 
ATOM     24  C   UNL     1       0.768   9.482  18.719  0.00  0.00    +0.000 C 
BRANCH  24  25
ATOM     25  C   UNL     1       1.862  10.238  18.071  0.00  0.00    +0.000 C 
ATOM     26  N   UNL     1       2.720  10.836  17.567  0.00  0.00    +0.000 NA
ENDBRANCH  24  25
ENDBRANCH  16  17
ENDBRANCH  14  16
ENDBRANCH   4  14
TORSDOF 7
ENDMDL
MODEL 3
REMARK VINA RESULT:      -7.0      1.454      2.433
REMARK  Name = 
REMARK  8 active torsions:
REMARK  status: ('A' for Active; 'I' for Inactive)
REMARK    1  A    between atoms: C_1  and  C_2
REMARK    2  A    between atoms: C_2  and  O_3
REMARK    3  A    between atoms: O_3  and  C_4
REMARK    4  A    between atoms: C_4  and  C_6
REMARK    5  A    between atoms: C_9  and  N_10
REMARK    6  A    between atoms: N_10  and  C_11
REMARK    7  A    between atoms: C_11  and  C_12
REMARK    8  A    between atoms: C_19  and  C_20
REMARK                            x       y       z     vdW  Elec       q    Type
REMARK                         _______ _______ _______ _____ _____    ______ ____
ROOT
ATOM      1  C   UNL     1       5.490   4.920  17.200  0.00  0.00    +0.000 C 
ATOM      2  C   UNL     1       5.644   4.907  18.730  0.00  0.00    +0.000 C 
ATOM      3  C   UNL     1       4.410   5.524  19.399  0.00  0.00    +0.000 C 
ATOM      4  C   UNL     1       3.376   6.005  18.347  0.00  0.00    +0.000 C 
ATOM      5  C   UNL     1       2.976   4.764  17.500  0.00  0.00    +0.000 C 
ATOM      6  C   UNL     1       4.212   4.136  16.831  0.00  0.00    +0.000 C 
ATOM      7  C   UNL     1       4.061   7.002  17.380  0.00  0.00    +0.000 C 
ATOM      8  C   UNL     1       5.295   6.375  16.728  0.00  0.00    +0.000 C 
ENDROOT
BRANCH   1   9
ATOM      9  C   UNL     1       6.707   4.310  16.518  0.00  0.00    +0.000 C 
ATOM     10  O   UNL     1       7.860   4.438  16.905  0.00  0.00    +0.000 OA
BRANCH   9  11
ATOM     11  O   UNL     1       6.337   3.695  15.361  0.00  0.00    +0.000 OA
BRANCH  11  13
ATOM     12  C   UNL     1       6.103   3.655  12.990  0.00  0.00    +0.000 C 
ATOM     13  C   UNL     1       6.762   4.357  14.164  0.00  0.00    +0.000 C 
ENDBRANCH  11  13
ENDBRANCH   9  11
ENDBRANCH   1   9
BRANCH   4  14
ATOM     14  N   UNL     1       2.162   6.591  18.955  0.00  0.00    +0.000 NA
ATOM     15  H   UNL     1       1.915   6.045  19.787  0.00  0.00    +0.000 HD
BRANCH  14  16
ATOM     16  C   UNL     1       2.354   7.987  19.391  0.00  0.00    +0.000 C 
BRANCH  16  17
ATOM     17  C   UNL     1       1.528   8.956  18.549  0.00  0.00    +0.000 C 
ATOM     18  O   UNL     1       1.695   9.014  17.330  0.00  0.00    +0.000 OA
ATOM     19  N   UNL     1       0.582   9.734  19.182  0.00  0.00    +0.000 N 
ATOM     20  C   UNL     1      -0.343  10.558  18.431  0.00  0.00    +0.000 C 
ATOM     21  C   UNL     1      -0.442  11.827  19.249  0.00  0.00    +0.000 C 
ATOM     22  F   UNL     1      -1.651  12.412  19.090  0.00  0.00    +0.000 F 
ATOM     23  C   UNL     1      -0.275  11.361  20.690  0.00  0.00    +0.000 C 
ATOM     24  C   UNL     1       0.539  10.060  20.610  0.00  0.00    +0.000 C 
BRANCH  24  25
ATOM     25  C   UNL     1      -0.109   9.005  21.419  0.00  0.00    +0.000 C 
ATOM     26  N   UNL     1      -0.622   8.177  22.049  0.00  0.00    +0.000 NA
ENDBRANCH  24  25
ENDBRANCH  16  17
ENDBRANCH  14  16
ENDBRANCH   4  14
TORSDOF 7
ENDMDL
MODEL 4
REMARK VINA RESULT:      -6.9      3.454      4.517
REMARK  Name = 
REMARK  8 active torsions:
REMARK  status: ('A' for Active; 'I' for Inactive)
REMARK    1  A    between atoms: C_1  and  C_2
REMARK    2  A    between atoms: C_2  and  O_3
REMARK    3  A    between atoms: O_3  and  C_4
REMARK    4  A    between atoms: C_4  and  C_6
REMARK    5  A    between atoms: C_9  and  N_10
REMARK    6  A    between atoms: N_10  and  C_11
REMARK    7  A    between atoms: C_11  and  C_12
REMARK    8  A    between atoms: C_19  and  C_20
REMARK                            x       y       z     vdW  Elec       q    Type
REMARK                         _______ _______ _______ _____ _____    ______ ____
ROOT
ATOM      1  C   UNL     1       6.549   5.237  15.414  0.00  0.00    +0.000 C 
ATOM      2  C   UNL     1       6.254   3.984  16.253  0.00  0.00    +0.000 C 
ATOM      3  C   UNL     1       5.526   4.362  17.548  0.00  0.00    +0.000 C 
ATOM      4  C   UNL     1       5.319   5.896  17.654  0.00  0.00    +0.000 C 
ATOM      5  C   UNL     1       4.489   6.331  16.412  0.00  0.00    +0.000 C 
ATOM      6  C   UNL     1       5.212   5.947  15.109  0.00  0.00    +0.000 C 
ATOM      7  C   UNL     1       6.692   6.603  17.541  0.00  0.00    +0.000 C 
ATOM      8  C   UNL     1       7.409   6.208  16.249  0.00  0.00    +0.000 C 
ENDROOT
BRANCH   1   9
ATOM      9  C   UNL     1       7.272   4.881  14.123  0.00  0.00    +0.000 C 
ATOM     10  O   UNL     1       8.106   5.587  13.573  0.00  0.00    +0.000 OA
BRANCH   9  11
ATOM     11  O   UNL     1       6.780   3.717  13.615  0.00  0.00    +0.000 OA
BRANCH  11  13
ATOM     12  C   UNL     1       5.183   3.214  11.919  0.00  0.00    +0.000 C 
ATOM     13  C   UNL     1       6.591   3.711  12.195  0.00  0.00    +0.000 C 
ENDBRANCH  11  13
ENDBRANCH   9  11
ENDBRANCH   1   9
BRANCH   4  14
ATOM     14  N   UNL     1       4.604   6.299  18.884  0.00  0.00    +0.000 NA
ATOM     15  H   UNL     1       5.025   7.164  19.239  0.00  0.00    +0.000 HD
BRANCH  14  16
ATOM     16  C   UNL     1       3.173   6.573  18.655  0.00  0.00    +0.000 C 
BRANCH  16  17
ATOM     17  C   UNL     1       2.323   6.155  19.852  0.00  0.00    +0.000 C 
ATOM     18  O   UNL     1       1.863   7.008  20.612  0.00  0.00    +0.000 OA
ATOM     19  N   UNL     1       2.067   4.813  20.038  0.00  0.00    +0.000 N 
ATOM     20  C   UNL     1       1.144   4.355  21.056  0.00  0.00    +0.000 C 
ATOM     21  C   UNL     1       1.806   3.114  21.613  0.00  0.00    +0.000 C 
ATOM     22  F   UNL     1       0.885   2.237  22.072  0.00  0.00    +0.000 F 
ATOM     23  C   UNL     1       2.546   2.515  20.423  0.00  0.00    +0.000 C 
ATOM     24  C   UNL     1       2.835   3.696  19.483  0.00  0.00    +0.000 C 
BRANCH  24  25
ATOM     25  C   UNL     1       2.431   3.355  18.101  0.00  0.00    +0.000 C 
ATOM     26  N   UNL     1       2.118   3.092  17.015  0.00  0.00    +0.000 NA
ENDBRANCH  24  25
ENDBRANCH  16  17
ENDBRANCH  14  16
ENDBRANCH   4  14
TORSDOF 7
ENDMDL
MODEL 5
REMARK VINA RESULT:      -6.9      1.449      2.156
REMARK  Name = 
REMARK  8 active torsions:
REMARK  status: ('A' for Active; 'I' for Inactive)
REMARK    1  A    between atoms: C_1  and  C_2
REMARK    2  A    between atoms: C_2  and  O_3
REMARK    3  A    between atoms: O_3  and  C_4
REMARK    4  A    between atoms: C_4  and  C_6
REMARK    5  A    between atoms: C_9  and  N_10
REMARK    6  A    between atoms: N_10  and  C_11
REMARK    7  A    between atoms: C_11  and  C_12
REMARK    8  A    between atoms: C_19  and  C_20
REMARK                            x       y       z     vdW  Elec       q    Type
REMARK                         _______ _______ _______ _____ _____    ______ ____
ROOT
ATOM      1  C   UNL     1       5.511   4.892  17.217  0.00  0.00    +0.000 C 
ATOM      2  C   UNL     1       4.288   4.036  16.850  0.00  0.00    +0.000 C 
ATOM      3  C   UNL     1       3.011   4.644  17.441  0.00  0.00    +0.000 C 
ATOM      4  C   UNL     1       3.319   5.926  18.258  0.00  0.00    +0.000 C 
ATOM      5  C   UNL     1       4.004   6.931  17.289  0.00  0.00    +0.000 C 
ATOM      6  C   UNL     1       5.283   6.324  16.686  0.00  0.00    +0.000 C 
ATOM      7  C   UNL     1       4.356   5.591  19.358  0.00  0.00    +0.000 C 
ATOM      8  C   UNL     1       5.620   4.978  18.753  0.00  0.00    +0.000 C 
ENDROOT
BRANCH   1   9
ATOM      9  C   UNL     1       6.791   4.305  16.637  0.00  0.00    +0.000 C 
ATOM     10  O   UNL     1       7.910   4.478  17.100  0.00  0.00    +0.000 OA
BRANCH   9  11
ATOM     11  O   UNL     1       6.522   3.649  15.475  0.00  0.00    +0.000 OA
BRANCH  11  13
ATOM     12  C   UNL     1       6.121   3.710  13.126  0.00  0.00    +0.000 C 
ATOM     13  C   UNL     1       6.842   4.377  14.284  0.00  0.00    +0.000 C 
ENDBRANCH  11  13
ENDBRANCH   9  11
ENDBRANCH   1   9
BRANCH   4  14
ATOM     14  N   UNL     1       2.108   6.551  18.831  0.00  0.00    +0.000 NA
ATOM     15  H   UNL     1       1.773   5.968  19.605  0.00  0.00    +0.000 HD
BRANCH  14  16
ATOM     16  C   UNL     1       2.358   7.898  19.377  0.00  0.00    +0.000 C 
BRANCH  16  17
ATOM     17  C   UNL     1       1.610   8.970  18.588  0.00  0.00    +0.000 C 
ATOM     18  O   UNL     1       1.793   9.087  17.376  0.00  0.00    +0.000 OA
ATOM     19  N   UNL     1       0.714   9.774  19.261  0.00  0.00    +0.000 N 
ATOM     20  C   UNL     1      -0.144  10.703  18.555  0.00  0.00    +0.000 C 
ATOM     21  C   UNL     1      -0.163  11.926  19.446  0.00  0.00    +0.000 C 
ATOM     22  F   UNL     1      -1.326  12.603  19.315  0.00  0.00    +0.000 F 
ATOM     23  C   UNL     1      -0.043  11.366  20.858  0.00  0.00    +0.000 C 
ATOM     24  C   UNL     1       0.679  10.019  20.705  0.00  0.00    +0.000 C 
BRANCH  24  25
ATOM     25  C   UNL     1      -0.049   8.966  21.447  0.00  0.00    +0.000 C 
ATOM     26  N   UNL     1      -0.614   8.139  22.032  0.00  0.00    +0.000 NA
ENDBRANCH  24  25
ENDBRANCH  16  17
ENDBRANCH  14  16
ENDBRANCH   4  14
TORSDOF 7
ENDMDL
MODEL 6
REMARK VINA RESULT:      -6.9      0.390      1.304
REMARK  Name = 
REMARK  8 active torsions:
REMARK  status: ('A' for Active; 'I' for Inactive)
REMARK    1  A    between atoms: C_1  and  C_2
REMARK    2  A    between atoms: C_2  and  O_3
REMARK    3  A    between atoms: O_3  and  C_4
REMARK    4  A    between atoms: C_4  and  C_6
REMARK    5  A    between atoms: C_9  and  N_10
REMARK    6  A    between atoms: N_10  and  C_11
REMARK    7  A    between atoms: C_11  and  C_12
REMARK    8  A    between atoms: C_19  and  C_20
REMARK                            x       y       z     vdW  Elec       q    Type
REMARK                         _______ _______ _______ _____ _____    ______ ____
ROOT
ATOM      1  C   UNL     1       5.499   4.893  16.783  0.00  0.00    +0.000 C 
ATOM      2  C   UNL     1       5.176   6.356  16.440  0.00  0.00    +0.000 C 
ATOM      3  C   UNL     1       4.136   6.919  17.417  0.00  0.00    +0.000 C 
ATOM      4  C   UNL     1       3.691   5.850  18.449  0.00  0.00    +0.000 C 
ATOM      5  C   UNL     1       4.967   5.393  19.212  0.00  0.00    +0.000 C 
ATOM      6  C   UNL     1       6.017   4.834  18.236  0.00  0.00    +0.000 C 
ATOM      7  C   UNL     1       3.155   4.608  17.695  0.00  0.00    +0.000 C 
ATOM      8  C   UNL     1       4.200   4.064  16.719  0.00  0.00    +0.000 C 
ENDROOT
BRANCH   1   9
ATOM      9  C   UNL     1       6.531   4.316  15.823  0.00  0.00    +0.000 C 
ATOM     10  O   UNL     1       7.730   4.555  15.862  0.00  0.00    +0.000 OA
BRANCH   9  11
ATOM     11  O   UNL     1       5.914   3.584  14.855  0.00  0.00    +0.000 OA
BRANCH  11  13
ATOM     12  C   UNL     1       6.177   3.233  12.513  0.00  0.00    +0.000 C 
ATOM     13  C   UNL     1       5.798   4.238  13.586  0.00  0.00    +0.000 C 
ENDBRANCH  11  13
ENDBRANCH   9  11
ENDBRANCH   1   9
BRANCH   4  14
ATOM     14  N   UNL     1       2.700   6.361  19.419  0.00  0.00    +0.000 NA
ATOM     15  H   UNL     1       3.133   6.387  20.348  0.00  0.00    +0.000 HD
BRANCH  14  16
ATOM     16  C   UNL     1       2.245   7.730  19.111  0.00  0.00    +0.000 C 
BRANCH  16  17
ATOM     17  C   UNL     1       1.476   8.341  20.279  0.00  0.00    +0.000 C 
ATOM     18  O   UNL     1       1.390   7.737  21.348  0.00  0.00    +0.000 OA
ATOM     19  N   UNL     1       0.911   9.589  20.112  0.00  0.00    +0.000 N 
ATOM     20  C   UNL     1       0.304  10.297  21.220  0.00  0.00    +0.000 C 
ATOM     21  C   UNL     1      -0.919  10.943  20.608  0.00  0.00    +0.000 C 
ATOM     22  F   UNL     1      -1.236  12.088  21.254  0.00  0.00    +0.000 F 
ATOM     23  C   UNL     1      -0.507  11.253  19.175  0.00  0.00    +0.000 C 
ATOM     24  C   UNL     1       0.594  10.235  18.836  0.00  0.00    +0.000 C 
BRANCH  24  25
ATOM     25  C   UNL     1       1.758  10.926  18.240  0.00  0.00    +0.000 C 
ATOM     26  N   UNL     1       2.668  11.470  17.767  0.00  0.00    +0.000 NA
ENDBRANCH  24  25
ENDBRANCH  16  17
ENDBRANCH  14  16
ENDBRANCH   4  14
TORSDOF 7
ENDMDL
MODEL 7
REMARK VINA RESULT:      -6.9      0.858      1.467
REMARK  Name = 
REMARK  8 active torsions:
REMARK  status: ('A' for Active; 'I' for Inactive)
REMARK    1  A    between atoms: C_1  and  C_2
REMARK    2  A    between atoms: C_2  and  O_3
REMARK    3  A    between atoms: O_3  and  C_4
REMARK    4  A    between atoms: C_4  and  C_6
REMARK    5  A    between atoms: C_9  and  N_10
REMARK    6  A    between atoms: N_10  and  C_11
REMARK    7  A    between atoms: C_11  and  C_12
REMARK    8  A    between atoms: C_19  and  C_20
REMARK                            x       y       z     vdW  Elec       q    Type
REMARK                         _______ _______ _______ _____ _____    ______ ____
ROOT
ATOM      1  C   UNL     1       5.483   5.067  17.356  0.00  0.00    +0.000 C 
ATOM      2  C   UNL     1       5.588   5.035  18.889  0.00  0.00    +0.000 C 
ATOM      3  C   UNL     1       4.318   5.613  19.526  0.00  0.00    +0.000 C 
ATOM      4  C   UNL     1       3.308   6.085  18.448  0.00  0.00    +0.000 C 
ATOM      5  C   UNL     1       2.965   4.849  17.570  0.00  0.00    +0.000 C 
ATOM      6  C   UNL     1       4.236   4.260  16.933  0.00  0.00    +0.000 C 
ATOM      7  C   UNL     1       4.000   7.113  17.519  0.00  0.00    +0.000 C 
ATOM      8  C   UNL     1       5.269   6.525  16.898  0.00  0.00    +0.000 C 
ENDROOT
BRANCH   1   9
ATOM      9  C   UNL     1       6.736   4.497  16.704  0.00  0.00    +0.000 C 
ATOM     10  O   UNL     1       7.880   4.729  17.070  0.00  0.00    +0.000 OA
BRANCH   9  11
ATOM     11  O   UNL     1       6.403   3.779  15.596  0.00  0.00    +0.000 OA
BRANCH  11  13
ATOM     12  C   UNL     1       5.701   3.921  13.323  0.00  0.00    +0.000 C 
ATOM     13  C   UNL     1       6.701   4.421  14.351  0.00  0.00    +0.000 C 
ENDBRANCH  11  13
ENDBRANCH   9  11
ENDBRANCH   1   9
BRANCH   4  14
ATOM     14  N   UNL     1       2.062   6.635  19.025  0.00  0.00    +0.000 NA
ATOM     15  H   UNL     1       1.959   6.280  19.981  0.00  0.00    +0.000 HD
BRANCH  14  16
ATOM     16  C   UNL     1       2.064   8.108  19.102  0.00  0.00    +0.000 C 
BRANCH  16  17
ATOM     17  C   UNL     1       1.385   8.603  20.377  0.00  0.00    +0.000 C 
ATOM     18  O   UNL     1       1.355   7.889  21.379  0.00  0.00    +0.000 OA
ATOM     19  N   UNL     1       0.838   9.869  20.379  0.00  0.00    +0.000 N 
ATOM     20  C   UNL     1       0.319  10.464  21.594  0.00  0.00    +0.000 C 
ATOM     21  C   UNL     1      -0.927  11.189  21.136  0.00  0.00    +0.000 C 
ATOM     22  F   UNL     1      -1.177  12.263  21.919  0.00  0.00    +0.000 F 
ATOM     23  C   UNL     1      -0.601  11.644  19.719  0.00  0.00    +0.000 C 
ATOM     24  C   UNL     1       0.454  10.652  19.203  0.00  0.00    +0.000 C 
BRANCH  24  25
ATOM     25  C   UNL     1       1.592  11.386  18.607  0.00  0.00    +0.000 C 
ATOM     26  N   UNL     1       2.481  11.967  18.141  0.00  0.00    +0.000 NA
ENDBRANCH  24  25
ENDBRANCH  16  17
ENDBRANCH  14  16
ENDBRANCH   4  14
TORSDOF 7
ENDMDL
MODEL 8
REMARK VINA RESULT:      -6.8      4.078      5.152
REMARK  Name = 
REMARK  8 active torsions:
REMARK  status: ('A' for Active; 'I' for Inactive)
REMARK    1  A    between atoms: C_1  and  C_2
REMARK    2  A    between atoms: C_2  and  O_3
REMARK    3  A    between atoms: O_3  and  C_4
REMARK    4  A    between atoms: C_4  and  C_6
REMARK    5  A    between atoms: C_9  and  N_10
REMARK    6  A    between atoms: N_10  and  C_11
REMARK    7  A    between atoms: C_11  and  C_12
REMARK    8  A    between atoms: C_19  and  C_20
REMARK                            x       y       z     vdW  Elec       q    Type
REMARK                         _______ _______ _______ _____ _____    ______ ____
ROOT
ATOM      1  C   UNL     1       6.543   4.890  15.562  0.00  0.00    +0.000 C 
ATOM      2  C   UNL     1       5.923   6.277  15.794  0.00  0.00    +0.000 C 
ATOM      3  C   UNL     1       5.399   6.397  17.230  0.00  0.00    +0.000 C 
ATOM      4  C   UNL     1       5.620   5.085  18.026  0.00  0.00    +0.000 C 
ATOM      5  C   UNL     1       7.149   4.801  18.024  0.00  0.00    +0.000 C 
ATOM      6  C   UNL     1       7.683   4.687  16.585  0.00  0.00    +0.000 C 
ATOM      7  C   UNL     1       4.949   3.912  17.269  0.00  0.00    +0.000 C 
ATOM      8  C   UNL     1       5.476   3.811  15.836  0.00  0.00    +0.000 C 
ENDROOT
BRANCH   1   9
ATOM      9  C   UNL     1       7.070   4.751  14.140  0.00  0.00    +0.000 C 
ATOM     10  O   UNL     1       7.781   5.572  13.577  0.00  0.00    +0.000 OA
BRANCH   9  11
ATOM     11  O   UNL     1       6.549   3.638  13.554  0.00  0.00    +0.000 OA
BRANCH  11  13
ATOM     12  C   UNL     1       5.024   3.247  11.766  0.00  0.00    +0.000 C 
ATOM     13  C   UNL     1       6.423   3.711  12.129  0.00  0.00    +0.000 C 
ENDBRANCH  11  13
ENDBRANCH   9  11
ENDBRANCH   1   9
BRANCH   4  14
ATOM     14  N   UNL     1       5.142   5.168  19.423  0.00  0.00    +0.000 NA
ATOM     15  H   UNL     1       5.866   5.618  19.991  0.00  0.00    +0.000 HD
BRANCH  14  16
ATOM     16  C   UNL     1       3.913   5.972  19.564  0.00  0.00    +0.000 C 
BRANCH  16  17
ATOM     17  C   UNL     1       2.764   5.387  18.747  0.00  0.00    +0.000 C 
ATOM     18  O   UNL     1       2.257   6.042  17.836  0.00  0.00    +0.000 OA
ATOM     19  N   UNL     1       2.337   4.109  19.037  0.00  0.00    +0.000 N 
ATOM     20  C   UNL     1       1.362   3.432  18.206  0.00  0.00    +0.000 C 
ATOM     21  C   UNL     1       0.487   2.699  19.199  0.00  0.00    +0.000 C 
ATOM     22  F   UNL     1      -0.031   1.577  18.652  0.00  0.00    +0.000 F 
ATOM     23  C   UNL     1       1.431   2.335  20.338  0.00  0.00    +0.000 C 
ATOM     24  C   UNL     1       2.555   3.382  20.290  0.00  0.00    +0.000 C 
BRANCH  24  25
ATOM     25  C   UNL     1       3.874   2.715  20.343  0.00  0.00    +0.000 C 
ATOM     26  N   UNL     1       4.906   2.186  20.383  0.00  0.00    +0.000 NA
ENDBRANCH  24  25
ENDBRANCH  16  17
ENDBRANCH  14  16
ENDBRANCH   4  14
TORSDOF 7
ENDMDL
MODEL 9
REMARK VINA RESULT:      -6.6      3.668      4.896
REMARK  Name = 
REMARK  8 active torsions:
REMARK  status: ('A' for Active; 'I' for Inactive)
REMARK    1  A    between atoms: C_1  and  C_2
REMARK    2  A    between atoms: C_2  and  O_3
REMARK    3  A    between atoms: O_3  and  C_4
REMARK    4  A    between atoms: C_4  and  C_6
REMARK    5  A    between atoms: C_9  and  N_10
REMARK    6  A    between atoms: N_10  and  C_11
REMARK    7  A    between atoms: C_11  and  C_12
REMARK    8  A    between atoms: C_19  and  C_20
REMARK                            x       y       z     vdW  Elec       q    Type
REMARK                         _______ _______ _______ _____ _____    ______ ____
ROOT
ATOM      1  C   UNL     1       6.401   5.174  15.095  0.00  0.00    +0.000 C 
ATOM      2  C   UNL     1       5.513   6.419  14.933  0.00  0.00    +0.000 C 
ATOM      3  C   UNL     1       4.767   6.720  16.238  0.00  0.00    +0.000 C 
ATOM      4  C   UNL     1       5.099   5.674  17.334  0.00  0.00    +0.000 C 
ATOM      5  C   UNL     1       6.637   5.722  17.561  0.00  0.00    +0.000 C 
ATOM      6  C   UNL     1       7.392   5.427  16.252  0.00  0.00    +0.000 C 
ATOM      7  C   UNL     1       4.771   4.258  16.802  0.00  0.00    +0.000 C 
ATOM      8  C   UNL     1       5.516   3.976  15.495  0.00  0.00    +0.000 C 
ENDROOT
BRANCH   1   9
ATOM      9  C   UNL     1       7.151   4.859  13.808  0.00  0.00    +0.000 C 
ATOM     10  O   UNL     1       7.879   5.644  13.216  0.00  0.00    +0.000 OA
BRANCH   9  11
ATOM     11  O   UNL     1       6.812   3.620  13.358  0.00  0.00    +0.000 OA
BRANCH  11  13
ATOM     12  C   UNL     1       5.427   2.619  11.697  0.00  0.00    +0.000 C 
ATOM     13  C   UNL     1       6.621   3.524  11.942  0.00  0.00    +0.000 C 
ENDBRANCH  11  13
ENDBRANCH   9  11
ENDBRANCH   1   9
BRANCH   4  14
ATOM     14  N   UNL     1       4.410   5.941  18.615  0.00  0.00    +0.000 NA
ATOM     15  H   UNL     1       4.730   6.844  18.978  0.00  0.00    +0.000 HD
BRANCH  14  16
ATOM     16  C   UNL     1       2.943   6.023  18.474  0.00  0.00    +0.000 C 
BRANCH  16  17
ATOM     17  C   UNL     1       2.235   5.698  19.786  0.00  0.00    +0.000 C 
ATOM     18  O   UNL     1       1.814   6.605  20.504  0.00  0.00    +0.000 OA
ATOM     19  N   UNL     1       2.057   4.373  20.124  0.00  0.00    +0.000 N 
ATOM     20  C   UNL     1       1.259   3.987  21.270  0.00  0.00    +0.000 C 
ATOM     21  C   UNL     1       2.027   2.831  21.873  0.00  0.00    +0.000 C 
ATOM     22  F   UNL     1       1.194   1.973  22.505  0.00  0.00    +0.000 F 
ATOM     23  C   UNL     1       2.672   2.142  20.677  0.00  0.00    +0.000 C 
ATOM     24  C   UNL     1       2.815   3.233  19.603  0.00  0.00    +0.000 C 
BRANCH  24  25
ATOM     25  C   UNL     1       2.293   2.742  18.309  0.00  0.00    +0.000 C 
ATOM     26  N   UNL     1       1.887   2.352  17.294  0.00  0.00    +0.000 NA
ENDBRANCH  24  25
ENDBRANCH  16  17
ENDBRANCH  14  16
ENDBRANCH   4  14
TORSDOF 7
ENDMDL
