MODEL 1
REMARK VINA RESULT:      -7.1      0.000      0.000
REMARK  Name = 
REMARK  6 active torsions:
REMARK  status: ('A' for Active; 'I' for Inactive)
REMARK    1  A    between atoms: C_1  and  C_2
REMARK    2  A    between atoms: C_5  and  C_6
REMARK    3  A    between atoms: C_6  and  N_7
REMARK    4  A    between atoms: C_11  and  O_12
REMARK    5  A    between atoms: C_11  and  C_13
REMARK    6  A    between atoms: N_22  and  C_23
REMARK                            x       y       z     vdW  Elec       q    Type
REMARK                         _______ _______ _______ _____ _____    ______ ____
ROOT
ATOM      1  N   UNL     1       2.093   7.415  18.754  0.00  0.00    +0.000 NA
ATOM      2  C   UNL     1       1.969   7.701  20.184  0.00  0.00    +0.000 C 
ATOM      3  C   UNL     1       0.844   8.621  20.664  0.00  0.00    +0.000 C 
ATOM      4  C   UNL     1       1.034  10.072  20.232  0.00  0.00    +0.000 C 
ATOM      5  C   UNL     1       0.557  10.415  18.807  0.00  0.00    +0.000 C 
ATOM      6  C   UNL     1       0.640   9.251  17.809  0.00  0.00    +0.000 C 
ATOM      7  C   UNL     1       1.985   8.521  17.804  0.00  0.00    +0.000 C 
ENDROOT
BRANCH   5   8
ATOM      8  C   UNL     1      -0.871  10.985  18.793  0.00  0.00    +0.000 A 
ATOM      9  C   UNL     1      -1.816  10.605  17.819  0.00  0.00    +0.000 A 
ATOM     10  C   UNL     1      -3.123  11.100  17.841  0.00  0.00    +0.000 A 
ATOM     11  C   UNL     1      -3.504  11.982  18.843  0.00  0.00    +0.000 A 
ATOM     12  F   UNL     1      -4.759  12.443  18.876  0.00  0.00    +0.000 F 
ATOM     13  C   UNL     1      -2.604  12.379  19.816  0.00  0.00    +0.000 A 
ATOM     14  C   UNL     1      -1.298  11.885  19.789  0.00  0.00    +0.000 A 
ENDBRANCH   5   8
BRANCH   5  15
ATOM     15  O   UNL     1       1.463  11.430  18.321  0.00  0.00    +0.000 OA
ATOM     16  H   UNL     1       1.822  11.883  19.101  0.00  0.00    +0.000 HD
ENDBRANCH   5  15
BRANCH   1  17
ATOM     17  C   UNL     1       3.255   6.542  18.460  0.00  0.00    +0.000 C 
BRANCH  17  22
ATOM     18  C   UNL     1       3.604   1.489  18.320  0.00  0.00    +0.000 C 
ATOM     19  C   UNL     1       3.066   2.868  18.163  0.00  0.00    +0.000 A 
ATOM     20  N   UNL     1       1.882   3.164  17.672  0.00  0.00    +0.000 NA
ATOM     21  C   UNL     1       1.804   4.526  17.704  0.00  0.00    +0.000 A 
ATOM     22  C   UNL     1       2.944   5.091  18.251  0.00  0.00    +0.000 A 
ATOM     23  N   UNL     1       3.756   4.010  18.511  0.00  0.00    +0.000 N 
ATOM     24  C   UNL     1       5.106   4.010  19.030  0.00  0.00    +0.000 C 
ENDBRANCH  17  22
ENDBRANCH   1  17
TORSDOF 4
ENDMDL
MODEL 2
REMARK VINA RESULT:      -7.1      0.118      1.011
REMARK  Name = 
REMARK  6 active torsions:
REMARK  status: ('A' for Active; 'I' for Inactive)
REMARK    1  A    between atoms: C_1  and  C_2
REMARK    2  A    between atoms: C_5  and  C_6
REMARK    3  A    between atoms: C_6  and  N_7
REMARK    4  A    between atoms: C_11  and  O_12
REMARK    5  A    between atoms: C_11  and  C_13
REMARK    6  A    between atoms: N_22  and  C_23
REMARK                            x       y       z     vdW  Elec       q    Type
REMARK                         _______ _______ _______ _____ _____    ______ ____
ROOT
ATOM      1  N   UNL     1       2.046   7.423  18.850  0.00  0.00    +0.000 NA
ATOM      2  C   UNL     1       1.941   7.746  20.275  0.00  0.00    +0.000 C 
ATOM      3  C   UNL     1       0.803   8.652  20.749  0.00  0.00    +0.000 C 
ATOM      4  C   UNL     1       0.950  10.095  20.274  0.00  0.00    +0.000 C 
ATOM      5  C   UNL     1       0.440  10.387  18.849  0.00  0.00    +0.000 C 
ATOM      6  C   UNL     1       0.534   9.198  17.882  0.00  0.00    +0.000 C 
ATOM      7  C   UNL     1       1.896   8.500  17.873  0.00  0.00    +0.000 C 
ENDROOT
BRANCH   5   8
ATOM      8  C   UNL     1      -1.001  10.923  18.845  0.00  0.00    +0.000 A 
ATOM      9  C   UNL     1      -1.448  11.864  19.794  0.00  0.00    +0.000 A 
ATOM     10  C   UNL     1      -2.749  12.374  19.755  0.00  0.00    +0.000 A 
ATOM     11  C   UNL     1      -3.620  11.951  18.760  0.00  0.00    +0.000 A 
ATOM     12  F   UNL     1      -4.860  12.452  18.711  0.00  0.00    +0.000 F 
ATOM     13  C   UNL     1      -3.217  11.029  17.812  0.00  0.00    +0.000 A 
ATOM     14  C   UNL     1      -1.918  10.518  17.855  0.00  0.00    +0.000 A 
ENDBRANCH   5   8
BRANCH   5  15
ATOM     15  O   UNL     1       1.314  11.409  18.320  0.00  0.00    +0.000 OA
ATOM     16  H   UNL     1       0.763  12.189  18.149  0.00  0.00    +0.000 HD
ENDBRANCH   5  15
BRANCH   1  17
ATOM     17  C   UNL     1       3.223   6.570  18.560  0.00  0.00    +0.000 C 
BRANCH  17  22
ATOM     18  C   UNL     1       3.615   1.527  18.261  0.00  0.00    +0.000 C 
ATOM     19  C   UNL     1       3.073   2.907  18.132  0.00  0.00    +0.000 A 
ATOM     20  N   UNL     1       1.905   3.213  17.610  0.00  0.00    +0.000 NA
ATOM     21  C   UNL     1       1.815   4.572  17.685  0.00  0.00    +0.000 A 
ATOM     22  C   UNL     1       2.931   5.125  18.291  0.00  0.00    +0.000 A 
ATOM     23  N   UNL     1       3.742   4.041  18.542  0.00  0.00    +0.000 N 
ATOM     24  C   UNL     1       5.072   4.032  19.109  0.00  0.00    +0.000 C 
ENDBRANCH  17  22
ENDBRANCH   1  17
TORSDOF 4
ENDMDL
MODEL 3
REMARK VINA RESULT:      -7.1      1.014      1.179
REMARK  Name = 
REMARK  6 active torsions:
REMARK  status: ('A' for Active; 'I' for Inactive)
REMARK    1  A    between atoms: C_1  and  C_2
REMARK    2  A    between atoms: C_5  and  C_6
REMARK    3  A    between atoms: C_6  and  N_7
REMARK    4  A    between atoms: C_11  and  O_12
REMARK    5  A    between atoms: C_11  and  C_13
REMARK    6  A    between atoms: N_22  and  C_23
REMARK                            x       y       z     vdW  Elec       q    Type
REMARK                         _______ _______ _______ _____ _____    ______ ____
ROOT
ATOM      1  N   UNL     1       2.272   7.435  19.137  0.00  0.00    +0.000 NA
ATOM      2  C   UNL     1       1.834   7.809  20.484  0.00  0.00    +0.000 C 
ATOM      3  C   UNL     1       0.540   8.608  20.649  0.00  0.00    +0.000 C 
ATOM      4  C   UNL     1       0.647  10.035  20.121  0.00  0.00    +0.000 C 
ATOM      5  C   UNL     1       0.428  10.206  18.605  0.00  0.00    +0.000 C 
ATOM      6  C   UNL     1       0.839   8.993  17.760  0.00  0.00    +0.000 C 
ATOM      7  C   UNL     1       2.232   8.445  18.080  0.00  0.00    +0.000 C 
ENDROOT
BRANCH   5   8
ATOM      8  C   UNL     1      -1.023  10.585  18.265  0.00  0.00    +0.000 A 
ATOM      9  C   UNL     1      -1.734   9.953  17.225  0.00  0.00    +0.000 A 
ATOM     10  C   UNL     1      -3.066  10.278  16.954  0.00  0.00    +0.000 A 
ATOM     11  C   UNL     1      -3.707  11.239  17.724  0.00  0.00    +0.000 A 
ATOM     12  F   UNL     1      -4.988  11.538  17.476  0.00  0.00    +0.000 F 
ATOM     13  C   UNL     1      -3.042  11.880  18.752  0.00  0.00    +0.000 A 
ATOM     14  C   UNL     1      -1.710  11.557  19.020  0.00  0.00    +0.000 A 
ENDBRANCH   5   8
BRANCH   5  15
ATOM     15  O   UNL     1       1.293  11.291  18.202  0.00  0.00    +0.000 OA
ATOM     16  H   UNL     1       1.750  11.599  19.001  0.00  0.00    +0.000 HD
ENDBRANCH   5  15
BRANCH   1  17
ATOM     17  C   UNL     1       3.559   6.701  19.156  0.00  0.00    +0.000 C 
BRANCH  17  22
ATOM     18  C   UNL     1       2.869   1.756  18.296  0.00  0.00    +0.000 C 
ATOM     19  C   UNL     1       3.271   3.175  18.103  0.00  0.00    +0.000 A 
ATOM     20  N   UNL     1       3.861   3.652  17.028  0.00  0.00    +0.000 NA
ATOM     21  C   UNL     1       4.052   4.980  17.275  0.00  0.00    +0.000 A 
ATOM     22  C   UNL     1       3.548   5.348  18.511  0.00  0.00    +0.000 A 
ATOM     23  N   UNL     1       3.078   4.167  19.041  0.00  0.00    +0.000 N 
ATOM     24  C   UNL     1       2.500   3.940  20.347  0.00  0.00    +0.000 C 
ENDBRANCH  17  22
ENDBRANCH   1  17
TORSDOF 4
ENDMDL
MODEL 4
REMARK VINA RESULT:      -7.0      1.016      1.162
REMARK  Name = 
REMARK  6 active torsions:
REMARK  status: ('A' for Active; 'I' for Inactive)
REMARK    1  A    between atoms: C_1  and  C_2
REMARK    2  A    between atoms: C_5  and  C_6
REMARK    3  A    between atoms: C_6  and  N_7
REMARK    4  A    between atoms: C_11  and  O_12
REMARK    5  A    between atoms: C_11  and  C_13
REMARK    6  A    between atoms: N_22  and  C_23
REMARK                            x       y       z     vdW  Elec       q    Type
REMARK                         _______ _______ _______ _____ _____    ______ ____
ROOT
ATOM      1  N   UNL     1       2.218   7.318  19.245  0.00  0.00    +0.000 NA
ATOM      2  C   UNL     1       1.837   7.764  20.587  0.00  0.00    +0.000 C 
ATOM      3  C   UNL     1       0.590   8.634  20.754  0.00  0.00    +0.000 C 
ATOM      4  C   UNL     1       0.755  10.033  20.169  0.00  0.00    +0.000 C 
ATOM      5  C   UNL     1       0.505  10.160  18.653  0.00  0.00    +0.000 C 
ATOM      6  C   UNL     1       0.831   8.896  17.845  0.00  0.00    +0.000 C 
ATOM      7  C   UNL     1       2.202   8.289  18.151  0.00  0.00    +0.000 C 
ENDROOT
BRANCH   5   8
ATOM      8  C   UNL     1      -0.934  10.600  18.336  0.00  0.00    +0.000 A 
ATOM      9  C   UNL     1      -1.675  10.025  17.284  0.00  0.00    +0.000 A 
ATOM     10  C   UNL     1      -2.996  10.405  17.032  0.00  0.00    +0.000 A 
ATOM     11  C   UNL     1      -3.596  11.366  17.834  0.00  0.00    +0.000 A 
ATOM     12  F   UNL     1      -4.866  11.719  17.605  0.00  0.00    +0.000 F 
ATOM     13  C   UNL     1      -2.901  11.954  18.875  0.00  0.00    +0.000 A 
ATOM     14  C   UNL     1      -1.580  11.575  19.123  0.00  0.00    +0.000 A 
ENDBRANCH   5   8
BRANCH   5  15
ATOM     15  O   UNL     1       1.413  11.183  18.188  0.00  0.00    +0.000 OA
ATOM     16  H   UNL     1       1.762  10.882  17.334  0.00  0.00    +0.000 HD
ENDBRANCH   5  15
BRANCH   1  17
ATOM     17  C   UNL     1       3.467   6.519  19.259  0.00  0.00    +0.000 C 
BRANCH  17  22
ATOM     18  C   UNL     1       3.507   1.550  18.272  0.00  0.00    +0.000 C 
ATOM     19  C   UNL     1       3.281   2.845  18.970  0.00  0.00    +0.000 A 
ATOM     20  N   UNL     1       2.729   2.975  20.157  0.00  0.00    +0.000 NA
ATOM     21  C   UNL     1       2.713   4.316  20.407  0.00  0.00    +0.000 A 
ATOM     22  C   UNL     1       3.291   5.036  19.375  0.00  0.00    +0.000 A 
ATOM     23  N   UNL     1       3.622   4.074  18.447  0.00  0.00    +0.000 N 
ATOM     24  C   UNL     1       4.201   4.260  17.134  0.00  0.00    +0.000 C 
ENDBRANCH  17  22
ENDBRANCH   1  17
TORSDOF 4
ENDMDL
MODEL 5
REMARK VINA RESULT:      -7.0      1.041      1.538
REMARK  Name = 
REMARK  6 active torsions:
REMARK  status: ('A' for Active; 'I' for Inactive)
REMARK    1  A    between atoms: C_1  and  C_2
REMARK    2  A    between atoms: C_5  and  C_6
REMARK    3  A    between atoms: C_6  and  N_7
REMARK    4  A    between atoms: C_11  and  O_12
REMARK    5  A    between atoms: C_11  and  C_13
REMARK    6  A    between atoms: N_22  and  C_23
REMARK                            x       y       z     vdW  Elec       q    Type
REMARK                         _______ _______ _______ _____ _____    ______ ____
ROOT
ATOM      1  N   UNL     1       2.248   7.249  19.261  0.00  0.00    +0.000 NA
ATOM      2  C   UNL     1       1.898   7.720  20.602  0.00  0.00    +0.000 C 
ATOM      3  C   UNL     1       0.662   8.605  20.780  0.00  0.00    +0.000 C 
ATOM      4  C   UNL     1       0.827   9.992  20.168  0.00  0.00    +0.000 C 
ATOM      5  C   UNL     1       0.547  10.095  18.655  0.00  0.00    +0.000 C 
ATOM      6  C   UNL     1       0.846   8.815  17.863  0.00  0.00    +0.000 C 
ATOM      7  C   UNL     1       2.217   8.202  18.151  0.00  0.00    +0.000 C 
ENDROOT
BRANCH   5   8
ATOM      8  C   UNL     1      -0.894  10.543  18.360  0.00  0.00    +0.000 A 
ATOM      9  C   UNL     1      -1.547  11.517  19.141  0.00  0.00    +0.000 A 
ATOM     10  C   UNL     1      -2.842  11.944  18.837  0.00  0.00    +0.000 A 
ATOM     11  C   UNL     1      -3.503  11.404  17.742  0.00  0.00    +0.000 A 
ATOM     12  F   UNL     1      -4.736  11.824  17.440  0.00  0.00    +0.000 F 
ATOM     13  C   UNL     1      -2.895  10.445  16.953  0.00  0.00    +0.000 A 
ATOM     14  C   UNL     1      -1.601  10.017  17.260  0.00  0.00    +0.000 A 
ENDBRANCH   5   8
BRANCH   5  15
ATOM     15  O   UNL     1       1.454  11.102  18.154  0.00  0.00    +0.000 OA
ATOM     16  H   UNL     1       0.912  11.772  17.708  0.00  0.00    +0.000 HD
ENDBRANCH   5  15
BRANCH   1  17
ATOM     17  C   UNL     1       3.490   6.440  19.263  0.00  0.00    +0.000 C 
BRANCH  17  22
ATOM     18  C   UNL     1       3.554   1.454  18.366  0.00  0.00    +0.000 C 
ATOM     19  C   UNL     1       3.303   2.761  19.031  0.00  0.00    +0.000 A 
ATOM     20  N   UNL     1       2.699   2.914  20.190  0.00  0.00    +0.000 NA
ATOM     21  C   UNL     1       2.677   4.259  20.416  0.00  0.00    +0.000 A 
ATOM     22  C   UNL     1       3.304   4.959  19.397  0.00  0.00    +0.000 A 
ATOM     23  N   UNL     1       3.671   3.980  18.501  0.00  0.00    +0.000 N 
ATOM     24  C   UNL     1       4.308   4.140  17.213  0.00  0.00    +0.000 C 
ENDBRANCH  17  22
ENDBRANCH   1  17
TORSDOF 4
ENDMDL
MODEL 6
REMARK VINA RESULT:      -7.0      1.034      1.573
REMARK  Name = 
REMARK  6 active torsions:
REMARK  status: ('A' for Active; 'I' for Inactive)
REMARK    1  A    between atoms: C_1  and  C_2
REMARK    2  A    between atoms: C_5  and  C_6
REMARK    3  A    between atoms: C_6  and  N_7
REMARK    4  A    between atoms: C_11  and  O_12
REMARK    5  A    between atoms: C_11  and  C_13
REMARK    6  A    between atoms: N_22  and  C_23
REMARK                            x       y       z     vdW  Elec       q    Type
REMARK                         _______ _______ _______ _____ _____    ______ ____
ROOT
ATOM      1  N   UNL     1       2.258   7.428  19.212  0.00  0.00    +0.000 NA
ATOM      2  C   UNL     1       1.817   7.811  20.555  0.00  0.00    +0.000 C 
ATOM      3  C   UNL     1       0.517   8.603  20.712  0.00  0.00    +0.000 C 
ATOM      4  C   UNL     1       0.615  10.026  20.170  0.00  0.00    +0.000 C 
ATOM      5  C   UNL     1       0.396  10.182  18.653  0.00  0.00    +0.000 C 
ATOM      6  C   UNL     1       0.817   8.963  17.819  0.00  0.00    +0.000 C 
ATOM      7  C   UNL     1       2.212   8.427  18.146  0.00  0.00    +0.000 C 
ENDROOT
BRANCH   5   8
ATOM      8  C   UNL     1      -1.057  10.547  18.309  0.00  0.00    +0.000 A 
ATOM      9  C   UNL     1      -1.788  11.486  19.064  0.00  0.00    +0.000 A 
ATOM     10  C   UNL     1      -3.095  11.839  18.716  0.00  0.00    +0.000 A 
ATOM     11  C   UNL     1      -3.688  11.259  17.603  0.00  0.00    +0.000 A 
ATOM     12  F   UNL     1      -4.932  11.610  17.259  0.00  0.00    +0.000 F 
ATOM     13  C   UNL     1      -3.002  10.334  16.838  0.00  0.00    +0.000 A 
ATOM     14  C   UNL     1      -1.697   9.980  17.189  0.00  0.00    +0.000 A 
ENDBRANCH   5   8
BRANCH   5  15
ATOM     15  O   UNL     1       1.255  11.269  18.241  0.00  0.00    +0.000 OA
ATOM     16  H   UNL     1       1.893  11.411  18.958  0.00  0.00    +0.000 HD
ENDBRANCH   5  15
BRANCH   1  17
ATOM     17  C   UNL     1       3.550   6.702  19.239  0.00  0.00    +0.000 C 
BRANCH  17  22
ATOM     18  C   UNL     1       2.987   1.832  17.958  0.00  0.00    +0.000 C 
ATOM     19  C   UNL     1       3.367   3.270  17.894  0.00  0.00    +0.000 A 
ATOM     20  N   UNL     1       3.979   3.843  16.881  0.00  0.00    +0.000 NA
ATOM     21  C   UNL     1       4.136   5.150  17.241  0.00  0.00    +0.000 A 
ATOM     22  C   UNL     1       3.587   5.406  18.486  0.00  0.00    +0.000 A 
ATOM     23  N   UNL     1       3.125   4.178  18.903  0.00  0.00    +0.000 N 
ATOM     24  C   UNL     1       2.511   3.835  20.167  0.00  0.00    +0.000 C 
ENDBRANCH  17  22
ENDBRANCH   1  17
TORSDOF 4
ENDMDL
MODEL 7
REMARK VINA RESULT:      -7.0      1.463      1.696
REMARK  Name = 
REMARK  6 active torsions:
REMARK  status: ('A' for Active; 'I' for Inactive)
REMARK    1  A    between atoms: C_1  and  C_2
REMARK    2  A    between atoms: C_5  and  C_6
REMARK    3  A    between atoms: C_6  and  N_7
REMARK    4  A    between atoms: C_11  and  O_12
REMARK    5  A    between atoms: C_11  and  C_13
REMARK    6  A    between atoms: N_22  and  C_23
REMARK                            x       y       z     vdW  Elec       q    Type
REMARK                         _______ _______ _______ _____ _____    ______ ____
ROOT
ATOM      1  N   UNL     1       2.300   7.287  19.295  0.00  0.00    +0.000 NA
ATOM      2  C   UNL     1       1.832   7.706  20.618  0.00  0.00    +0.000 C 
ATOM      3  C   UNL     1       0.550   8.534  20.724  0.00  0.00    +0.000 C 
ATOM      4  C   UNL     1       0.701   9.944  20.160  0.00  0.00    +0.000 C 
ATOM      5  C   UNL     1       0.528  10.077  18.634  0.00  0.00    +0.000 C 
ATOM      6  C   UNL     1       0.939   8.832  17.835  0.00  0.00    +0.000 C 
ATOM      7  C   UNL     1       2.311   8.267  18.210  0.00  0.00    +0.000 C 
ENDROOT
BRANCH   5   8
ATOM      8  C   UNL     1      -0.905  10.473  18.243  0.00  0.00    +0.000 A 
ATOM      9  C   UNL     1      -1.583   9.856  17.173  0.00  0.00    +0.000 A 
ATOM     10  C   UNL     1      -2.900  10.197  16.853  0.00  0.00    +0.000 A 
ATOM     11  C   UNL     1      -3.559  11.160  17.604  0.00  0.00    +0.000 A 
ATOM     12  F   UNL     1      -4.826  11.475  17.310  0.00  0.00    +0.000 F 
ATOM     13  C   UNL     1      -2.927  11.788  18.661  0.00  0.00    +0.000 A 
ATOM     14  C   UNL     1      -1.609  11.448  18.977  0.00  0.00    +0.000 A 
ENDBRANCH   5   8
BRANCH   5  15
ATOM     15  O   UNL     1       1.426  11.134  18.227  0.00  0.00    +0.000 OA
ATOM     16  H   UNL     1       1.702  10.934  17.319  0.00  0.00    +0.000 HD
ENDBRANCH   5  15
BRANCH   1  17
ATOM     17  C   UNL     1       3.572   6.529  19.371  0.00  0.00    +0.000 C 
BRANCH  17  22
ATOM     18  C   UNL     1       5.499   4.231  15.287  0.00  0.00    +0.000 C 
ATOM     19  C   UNL     1       4.631   4.521  16.461  0.00  0.00    +0.000 A 
ATOM     20  N   UNL     1       3.631   3.768  16.864  0.00  0.00    +0.000 NA
ATOM     21  C   UNL     1       3.113   4.401  17.955  0.00  0.00    +0.000 A 
ATOM     22  C   UNL     1       3.818   5.554  18.260  0.00  0.00    +0.000 A 
ATOM     23  N   UNL     1       4.770   5.630  17.269  0.00  0.00    +0.000 N 
ATOM     24  C   UNL     1       5.750   6.670  17.048  0.00  0.00    +0.000 C 
ENDBRANCH  17  22
ENDBRANCH   1  17
TORSDOF 4
ENDMDL
MODEL 8
REMARK VINA RESULT:      -7.0      3.734      5.499
REMARK  Name = 
REMARK  6 active torsions:
REMARK  status: ('A' for Active; 'I' for Inactive)
REMARK    1  A    between atoms: C_1  and  C_2
REMARK    2  A    between atoms: C_5  and  C_6
REMARK    3  A    between atoms: C_6  and  N_7
REMARK    4  A    between atoms: C_11  and  O_12
REMARK    5  A    between atoms: C_11  and  C_13
REMARK    6  A    between atoms: N_22  and  C_23
REMARK                            x       y       z     vdW  Elec       q    Type
REMARK                         _______ _______ _______ _____ _____    ______ ____
ROOT
ATOM      1  N   UNL     1       4.086   4.354  16.657  0.00  0.00    +0.000 NA
ATOM      2  C   UNL     1       2.830   3.667  16.964  0.00  0.00    +0.000 C 
ATOM      3  C   UNL     1       1.717   4.437  17.679  0.00  0.00    +0.000 C 
ATOM      4  C   UNL     1       2.062   4.780  19.125  0.00  0.00    +0.000 C 
ATOM      5  C   UNL     1       2.916   6.047  19.327  0.00  0.00    +0.000 C 
ATOM      6  C   UNL     1       3.868   6.367  18.166  0.00  0.00    +0.000 C 
ATOM      7  C   UNL     1       4.707   5.178  17.694  0.00  0.00    +0.000 C 
ENDROOT
BRANCH   5   8
ATOM      8  C   UNL     1       2.058   7.287  19.628  0.00  0.00    +0.000 A 
ATOM      9  C   UNL     1       1.415   7.465  20.869  0.00  0.00    +0.000 A 
ATOM     10  C   UNL     1       0.671   8.616  21.144  0.00  0.00    +0.000 A 
ATOM     11  C   UNL     1       0.562   9.607  20.179  0.00  0.00    +0.000 A 
ATOM     12  F   UNL     1      -0.135  10.717  20.447  0.00  0.00    +0.000 F 
ATOM     13  C   UNL     1       1.178   9.468  18.949  0.00  0.00    +0.000 A 
ATOM     14  C   UNL     1       1.919   8.315  18.675  0.00  0.00    +0.000 A 
ENDBRANCH   5   8
BRANCH   5  15
ATOM     15  O   UNL     1       3.754   5.778  20.474  0.00  0.00    +0.000 OA
ATOM     16  H   UNL     1       4.240   4.960  20.281  0.00  0.00    +0.000 HD
ENDBRANCH   5  15
BRANCH   1  17
ATOM     17  C   UNL     1       5.065   3.455  16.001  0.00  0.00    +0.000 C 
BRANCH  17  22
ATOM     18  C   UNL     1       7.634   5.077  11.947  0.00  0.00    +0.000 C 
ATOM     19  C   UNL     1       7.239   4.845  13.363  0.00  0.00    +0.000 A 
ATOM     20  N   UNL     1       7.882   5.311  14.411  0.00  0.00    +0.000 NA
ATOM     21  C   UNL     1       7.190   4.859  15.496  0.00  0.00    +0.000 A 
ATOM     22  C   UNL     1       6.078   4.123  15.122  0.00  0.00    +0.000 A 
ATOM     23  N   UNL     1       6.144   4.099  13.747  0.00  0.00    +0.000 N 
ATOM     24  C   UNL     1       5.270   3.414  12.821  0.00  0.00    +0.000 C 
ENDBRANCH  17  22
ENDBRANCH   1  17
TORSDOF 4
ENDMDL
MODEL 9
REMARK VINA RESULT:      -7.0      1.471      1.977
REMARK  Name = 
REMARK  6 active torsions:
REMARK  status: ('A' for Active; 'I' for Inactive)
REMARK    1  A    between atoms: C_1  and  C_2
REMARK    2  A    between atoms: C_5  and  C_6
REMARK    3  A    between atoms: C_6  and  N_7
REMARK    4  A    between atoms: C_11  and  O_12
REMARK    5  A    between atoms: C_11  and  C_13
REMARK    6  A    between atoms: N_22  and  C_23
REMARK                            x       y       z     vdW  Elec       q    Type
REMARK                         _______ _______ _______ _____ _____    ______ ____
ROOT
ATOM      1  N   UNL     1       2.272   7.219  19.355  0.00  0.00    +0.000 NA
ATOM      2  C   UNL     1       1.838   7.690  20.672  0.00  0.00    +0.000 C 
ATOM      3  C   UNL     1       0.575   8.549  20.774  0.00  0.00    +0.000 C 
ATOM      4  C   UNL     1       0.746   9.936  20.162  0.00  0.00    +0.000 C 
ATOM      5  C   UNL     1       0.548  10.025  18.636  0.00  0.00    +0.000 C 
ATOM      6  C   UNL     1       0.917   8.746  17.870  0.00  0.00    +0.000 C 
ATOM      7  C   UNL     1       2.283   8.164  18.239  0.00  0.00    +0.000 C 
ENDROOT
BRANCH   5   8
ATOM      8  C   UNL     1      -0.883  10.440  18.258  0.00  0.00    +0.000 A 
ATOM      9  C   UNL     1      -1.577  11.446  18.959  0.00  0.00    +0.000 A 
ATOM     10  C   UNL     1      -2.863  11.842  18.580  0.00  0.00    +0.000 A 
ATOM     11  C   UNL     1      -3.471  11.238  17.488  0.00  0.00    +0.000 A 
ATOM     12  F   UNL     1      -4.694  11.628  17.113  0.00  0.00    +0.000 F 
ATOM     13  C   UNL     1      -2.821  10.247  16.775  0.00  0.00    +0.000 A 
ATOM     14  C   UNL     1      -1.538   9.850  17.158  0.00  0.00    +0.000 A 
ENDBRANCH   5   8
BRANCH   5  15
ATOM     15  O   UNL     1       1.461  11.048  18.179  0.00  0.00    +0.000 OA
ATOM     16  H   UNL     1       2.204  10.592  17.753  0.00  0.00    +0.000 HD
ENDBRANCH   5  15
BRANCH   1  17
ATOM     17  C   UNL     1       3.528   6.435  19.433  0.00  0.00    +0.000 C 
BRANCH  17  22
ATOM     18  C   UNL     1       5.457   4.306  15.260  0.00  0.00    +0.000 C 
ATOM     19  C   UNL     1       4.600   4.539  16.453  0.00  0.00    +0.000 A 
ATOM     20  N   UNL     1       3.627   3.747  16.850  0.00  0.00    +0.000 NA
ATOM     21  C   UNL     1       3.108   4.335  17.966  0.00  0.00    +0.000 A 
ATOM     22  C   UNL     1       3.785   5.499  18.292  0.00  0.00    +0.000 A 
ATOM     23  N   UNL     1       4.720   5.629  17.290  0.00  0.00    +0.000 N 
ATOM     24  C   UNL     1       5.666   6.703  17.084  0.00  0.00    +0.000 C 
ENDBRANCH  17  22
ENDBRANCH   1  17
TORSDOF 4
ENDMDL
