MODEL 1
REMARK VINA RESULT:      -7.1      0.000      0.000
REMARK  Name = 
REMARK  12 active torsions:
REMARK  status: ('A' for Active; 'I' for Inactive)
REMARK    1  A    between atoms: C_1  and  N_2
REMARK    2  A    between atoms: N_2  and  C_3
REMARK    3  A    between atoms: C_3  and  N_8
REMARK    4  A    between atoms: C_4  and  N_5
REMARK    5  A    between atoms: N_8  and  C_9
REMARK    6  A    between atoms: C_9  and  C_10
REMARK    7  A    between atoms: C_10  and  S_11
REMARK    8  A    between atoms: S_11  and  C_12
REMARK    9  A    between atoms: C_12  and  C_13
REMARK   10  A    between atoms: C_16  and  C_17
REMARK   11  A    between atoms: C_17  and  N_18
REMARK   12  A    between atoms: N_18  and  C_19
REMARK                            x       y       z     vdW  Elec       q    Type
REMARK                         _______ _______ _______ _____ _____    ______ ____
ROOT
ATOM      1  C   UNL     1       7.298   5.517  16.986  0.00  0.00    +0.000 A 
ATOM      2  C   UNL     1       7.606   5.325  18.319  0.00  0.00    +0.000 A 
ATOM      3  C   UNL     1       7.905   6.593  18.857  0.00  0.00    +0.000 A 
ATOM      4  C   UNL     1       7.765   7.505  17.829  0.00  0.00    +0.000 A 
ATOM      5  O   UNL     1       7.388   6.853  16.682  0.00  0.00    +0.000 OA
ENDROOT
BRANCH   1   6
ATOM      6  C   UNL     1       6.920   4.565  15.889  0.00  0.00    +0.000 C 
BRANCH   6   7
ATOM      7  S   UNL     1       5.164   4.832  15.463  0.00  0.00    +0.000 S 
BRANCH   7   8
ATOM      8  C   UNL     1       4.252   3.859  16.744  0.00  0.00    +0.000 C 
BRANCH   8   9
ATOM      9  C   UNL     1       3.514   4.933  17.557  0.00  0.00    +0.000 C 
BRANCH   9  10
ATOM     10  N   UNL     1       3.754   4.977  19.002  0.00  0.00    +0.000 N 
ATOM     11  H   UNL     1       4.336   4.231  19.396  0.00  0.00    +0.000 HD
BRANCH  10  12
ATOM     12  C   UNL     1       2.873   5.539  19.930  0.00  0.00    +0.000 C 
ATOM     13  C   UNL     1       2.150   4.880  20.864  0.00  0.00    +0.000 C 
BRANCH  12  15
ATOM     14  C   UNL     1       1.619   7.631  20.581  0.00  0.00    +0.000 C 
ATOM     15  N   UNL     1       2.671   6.923  19.876  0.00  0.00    +0.000 N 
ATOM     16  H   UNL     1       3.537   7.447  19.862  0.00  0.00    +0.000 HD
ENDBRANCH  12  15
BRANCH  13  17
ATOM     17  N   UNL     1       2.122   3.456  21.027  0.00  0.00    +0.000 N 
ATOM     18  O   UNL     1       2.198   2.719  20.037  0.00  0.00    +0.000 OA
ATOM     19  O   UNL     1       1.988   3.061  22.196  0.00  0.00    +0.000 OA
ENDBRANCH  13  17
ENDBRANCH  10  12
ENDBRANCH   9  10
ENDBRANCH   8   9
ENDBRANCH   7   8
ENDBRANCH   6   7
ENDBRANCH   1   6
BRANCH   4  20
ATOM     20  C   UNL     1       7.938   8.994  17.770  0.00  0.00    +0.000 C 
BRANCH  20  21
ATOM     21  N   UNL     1       8.991   9.408  18.700  0.00  0.00    +0.000 NA
ATOM     22  H   UNL     1       9.889   9.311  18.224  0.00  0.00    +0.000 HD
BRANCH  21  23
ATOM     23  C   UNL     1       8.864  10.776  19.181  0.00  0.00    +0.000 C 
ATOM     24  C   UNL     1       9.505  11.800  18.161  0.00  0.00    +0.000 C 
ATOM     25  C   UNL     1       9.463  13.134  18.976  0.00  0.00    +0.000 C 
ATOM     26  C   UNL     1      10.149  12.580  20.201  0.00  0.00    +0.000 C 
ATOM     27  C   UNL     1      11.122  11.544  19.750  0.00  0.00    +0.000 C 
ATOM     28  C   UNL     1      11.034  11.455  18.243  0.00  0.00    +0.000 C 
ATOM     29  C   UNL     1       9.801  11.128  20.318  0.00  0.00    +0.000 C 
ENDBRANCH  21  23
ENDBRANCH  20  21
ENDBRANCH   4  20
TORSDOF 11
ENDMDL
MODEL 2
REMARK VINA RESULT:      -6.7      1.798      2.297
REMARK  Name = 
REMARK  12 active torsions:
REMARK  status: ('A' for Active; 'I' for Inactive)
REMARK    1  A    between atoms: C_1  and  N_2
REMARK    2  A    between atoms: N_2  and  C_3
REMARK    3  A    between atoms: C_3  and  N_8
REMARK    4  A    between atoms: C_4  and  N_5
REMARK    5  A    between atoms: N_8  and  C_9
REMARK    6  A    between atoms: C_9  and  C_10
REMARK    7  A    between atoms: C_10  and  S_11
REMARK    8  A    between atoms: S_11  and  C_12
REMARK    9  A    between atoms: C_12  and  C_13
REMARK   10  A    between atoms: C_16  and  C_17
REMARK   11  A    between atoms: C_17  and  N_18
REMARK   12  A    between atoms: N_18  and  C_19
REMARK                            x       y       z     vdW  Elec       q    Type
REMARK                         _______ _______ _______ _____ _____    ______ ____
ROOT
ATOM      1  C   UNL     1       6.923   6.353  17.101  0.00  0.00    +0.000 A 
ATOM      2  C   UNL     1       7.608   5.995  18.247  0.00  0.00    +0.000 A 
ATOM      3  C   UNL     1       8.234   7.162  18.732  0.00  0.00    +0.000 A 
ATOM      4  C   UNL     1       7.902   8.182  17.862  0.00  0.00    +0.000 A 
ATOM      5  O   UNL     1       7.096   7.695  16.864  0.00  0.00    +0.000 OA
ENDROOT
BRANCH   1   6
ATOM      6  C   UNL     1       6.090   5.565  16.133  0.00  0.00    +0.000 C 
BRANCH   6   7
ATOM      7  S   UNL     1       4.445   5.283  16.873  0.00  0.00    +0.000 S 
BRANCH   7   8
ATOM      8  C   UNL     1       4.669   3.733  17.856  0.00  0.00    +0.000 C 
BRANCH   8   9
ATOM      9  C   UNL     1       4.361   4.169  19.296  0.00  0.00    +0.000 C 
BRANCH   9  10
ATOM     10  N   UNL     1       3.381   5.243  19.487  0.00  0.00    +0.000 N 
ATOM     11  H   UNL     1       3.693   6.196  19.270  0.00  0.00    +0.000 HD
BRANCH  10  12
ATOM     12  C   UNL     1       2.337   5.201  20.414  0.00  0.00    +0.000 C 
ATOM     13  C   UNL     1       1.579   6.242  20.829  0.00  0.00    +0.000 C 
BRANCH  12  15
ATOM     14  C   UNL     1       1.142   2.979  20.486  0.00  0.00    +0.000 C 
ATOM     15  N   UNL     1       2.057   3.971  21.020  0.00  0.00    +0.000 N 
ATOM     16  H   UNL     1       2.872   3.547  21.443  0.00  0.00    +0.000 HD
ENDBRANCH  12  15
BRANCH  13  17
ATOM     17  N   UNL     1       1.760   7.605  20.421  0.00  0.00    +0.000 N 
ATOM     18  O   UNL     1       1.550   8.523  21.222  0.00  0.00    +0.000 OA
ATOM     19  O   UNL     1       2.097   7.760  19.237  0.00  0.00    +0.000 OA
ENDBRANCH  13  17
ENDBRANCH  10  12
ENDBRANCH   9  10
ENDBRANCH   8   9
ENDBRANCH   7   8
ENDBRANCH   6   7
ENDBRANCH   1   6
BRANCH   4  20
ATOM     20  C   UNL     1       8.251   9.641  17.838  0.00  0.00    +0.000 C 
BRANCH  20  21
ATOM     21  N   UNL     1       9.239   9.933  18.879  0.00  0.00    +0.000 NA
ATOM     22  H   UNL     1      10.159   9.671  18.524  0.00  0.00    +0.000 HD
BRANCH  21  23
ATOM     23  C   UNL     1       9.279  11.326  19.297  0.00  0.00    +0.000 C 
ATOM     24  C   UNL     1      10.122  12.200  18.284  0.00  0.00    +0.000 C 
ATOM     25  C   UNL     1      10.221  13.565  19.041  0.00  0.00    +0.000 C 
ATOM     26  C   UNL     1      10.743  12.980  20.331  0.00  0.00    +0.000 C 
ATOM     27  C   UNL     1      11.584  11.797  19.989  0.00  0.00    +0.000 C 
ATOM     28  C   UNL     1      11.578  11.649  18.483  0.00  0.00    +0.000 C 
ATOM     29  C   UNL     1      10.185  11.598  20.480  0.00  0.00    +0.000 C 
ENDBRANCH  21  23
ENDBRANCH  20  21
ENDBRANCH   4  20
TORSDOF 11
ENDMDL
MODEL 3
REMARK VINA RESULT:      -6.7      1.737      2.160
REMARK  Name = 
REMARK  12 active torsions:
REMARK  status: ('A' for Active; 'I' for Inactive)
REMARK    1  A    between atoms: C_1  and  N_2
REMARK    2  A    between atoms: N_2  and  C_3
REMARK    3  A    between atoms: C_3  and  N_8
REMARK    4  A    between atoms: C_4  and  N_5
REMARK    5  A    between atoms: N_8  and  C_9
REMARK    6  A    between atoms: C_9  and  C_10
REMARK    7  A    between atoms: C_10  and  S_11
REMARK    8  A    between atoms: S_11  and  C_12
REMARK    9  A    between atoms: C_12  and  C_13
REMARK   10  A    between atoms: C_16  and  C_17
REMARK   11  A    between atoms: C_17  and  N_18
REMARK   12  A    between atoms: N_18  and  C_19
REMARK                            x       y       z     vdW  Elec       q    Type
REMARK                         _______ _______ _______ _____ _____    ______ ____
ROOT
ATOM      1  C   UNL     1       6.674   6.574  17.371  0.00  0.00    +0.000 A 
ATOM      2  C   UNL     1       7.545   6.169  18.364  0.00  0.00    +0.000 A 
ATOM      3  C   UNL     1       8.363   7.276  18.668  0.00  0.00    +0.000 A 
ATOM      4  C   UNL     1       7.955   8.310  17.848  0.00  0.00    +0.000 A 
ATOM      5  O   UNL     1       6.917   7.888  17.055  0.00  0.00    +0.000 OA
ENDROOT
BRANCH   1   6
ATOM      6  C   UNL     1       5.589   5.856  16.624  0.00  0.00    +0.000 C 
BRANCH   6   7
ATOM      7  S   UNL     1       4.017   6.752  16.871  0.00  0.00    +0.000 S 
BRANCH   7   8
ATOM      8  C   UNL     1       3.003   5.583  17.884  0.00  0.00    +0.000 C 
BRANCH   8   9
ATOM      9  C   UNL     1       3.414   5.906  19.328  0.00  0.00    +0.000 C 
BRANCH   9  10
ATOM     10  N   UNL     1       2.981   4.983  20.382  0.00  0.00    +0.000 N 
ATOM     11  H   UNL     1       3.398   5.114  21.310  0.00  0.00    +0.000 HD
BRANCH  10  12
ATOM     12  C   UNL     1       2.540   3.677  20.153  0.00  0.00    +0.000 C 
ATOM     13  C   UNL     1       3.304   2.562  20.096  0.00  0.00    +0.000 C 
BRANCH  12  15
ATOM     14  C   UNL     1       0.632   2.700  18.819  0.00  0.00    +0.000 C 
ATOM     15  N   UNL     1       1.175   3.487  19.912  0.00  0.00    +0.000 N 
ATOM     16  H   UNL     1       0.637   3.378  20.762  0.00  0.00    +0.000 HD
ENDBRANCH  12  15
BRANCH  13  17
ATOM     17  N   UNL     1       4.733   2.538  20.209  0.00  0.00    +0.000 N 
ATOM     18  O   UNL     1       5.419   3.320  19.541  0.00  0.00    +0.000 OA
ATOM     19  O   UNL     1       5.187   1.676  20.979  0.00  0.00    +0.000 OA
ENDBRANCH  13  17
ENDBRANCH  10  12
ENDBRANCH   9  10
ENDBRANCH   8   9
ENDBRANCH   7   8
ENDBRANCH   6   7
ENDBRANCH   1   6
BRANCH   4  20
ATOM     20  C   UNL     1       8.425   9.727  17.699  0.00  0.00    +0.000 C 
BRANCH  20  21
ATOM     21  N   UNL     1       9.403  10.037  18.745  0.00  0.00    +0.000 NA
ATOM     22  H   UNL     1      10.335   9.854  18.371  0.00  0.00    +0.000 HD
BRANCH  21  23
ATOM     23  C   UNL     1       9.355  11.410  19.224  0.00  0.00    +0.000 C 
ATOM     24  C   UNL     1      10.326  12.339  18.390  0.00  0.00    +0.000 C 
ATOM     25  C   UNL     1      10.285  13.668  19.212  0.00  0.00    +0.000 C 
ATOM     26  C   UNL     1      10.616  13.031  20.540  0.00  0.00    +0.000 C 
ATOM     27  C   UNL     1      11.521  11.874  20.277  0.00  0.00    +0.000 C 
ATOM     28  C   UNL     1      11.744  11.795  18.783  0.00  0.00    +0.000 C 
ATOM     29  C   UNL     1      10.067  11.637  20.542  0.00  0.00    +0.000 C 
ENDBRANCH  21  23
ENDBRANCH  20  21
ENDBRANCH   4  20
TORSDOF 11
ENDMDL
MODEL 4
REMARK VINA RESULT:      -6.7      4.619      7.694
REMARK  Name = 
REMARK  12 active torsions:
REMARK  status: ('A' for Active; 'I' for Inactive)
REMARK    1  A    between atoms: C_1  and  N_2
REMARK    2  A    between atoms: N_2  and  C_3
REMARK    3  A    between atoms: C_3  and  N_8
REMARK    4  A    between atoms: C_4  and  N_5
REMARK    5  A    between atoms: N_8  and  C_9
REMARK    6  A    between atoms: C_9  and  C_10
REMARK    7  A    between atoms: C_10  and  S_11
REMARK    8  A    between atoms: S_11  and  C_12
REMARK    9  A    between atoms: C_12  and  C_13
REMARK   10  A    between atoms: C_16  and  C_17
REMARK   11  A    between atoms: C_17  and  N_18
REMARK   12  A    between atoms: N_18  and  C_19
REMARK                            x       y       z     vdW  Elec       q    Type
REMARK                         _______ _______ _______ _____ _____    ______ ____
ROOT
ATOM      1  C   UNL     1       2.399   6.234  19.890  0.00  0.00    +0.000 A 
ATOM      2  C   UNL     1       1.749   5.341  20.722  0.00  0.00    +0.000 A 
ATOM      3  C   UNL     1       2.416   4.106  20.598  0.00  0.00    +0.000 A 
ATOM      4  C   UNL     1       3.446   4.298  19.698  0.00  0.00    +0.000 A 
ATOM      5  O   UNL     1       3.445   5.600  19.265  0.00  0.00    +0.000 OA
ENDROOT
BRANCH   1   6
ATOM      6  C   UNL     1       2.156   7.680  19.573  0.00  0.00    +0.000 C 
BRANCH   6   7
ATOM      7  S   UNL     1       1.184   8.422  20.930  0.00  0.00    +0.000 S 
BRANCH   7   8
ATOM      8  C   UNL     1       0.912  10.162  20.369  0.00  0.00    +0.000 C 
BRANCH   8   9
ATOM      9  C   UNL     1      -0.229  10.039  19.347  0.00  0.00    +0.000 C 
BRANCH   9  10
ATOM     10  N   UNL     1      -0.241  10.982  18.224  0.00  0.00    +0.000 N 
ATOM     11  H   UNL     1       0.669  11.326  17.901  0.00  0.00    +0.000 HD
BRANCH  10  12
ATOM     12  C   UNL     1      -1.295  11.854  17.939  0.00  0.00    +0.000 C 
ATOM     13  C   UNL     1      -2.526  11.519  17.490  0.00  0.00    +0.000 C 
BRANCH  12  15
ATOM     14  C   UNL     1      -0.341  13.823  19.198  0.00  0.00    +0.000 C 
ATOM     15  N   UNL     1      -1.058  13.226  18.086  0.00  0.00    +0.000 N 
ATOM     16  H   UNL     1      -0.849  13.685  17.209  0.00  0.00    +0.000 HD
ENDBRANCH  12  15
BRANCH  13  17
ATOM     17  N   UNL     1      -2.950  10.187  17.171  0.00  0.00    +0.000 N 
ATOM     18  O   UNL     1      -3.834   9.642  17.843  0.00  0.00    +0.000 OA
ATOM     19  O   UNL     1      -2.348   9.654  16.226  0.00  0.00    +0.000 OA
ENDBRANCH  13  17
ENDBRANCH  10  12
ENDBRANCH   9  10
ENDBRANCH   8   9
ENDBRANCH   7   8
ENDBRANCH   6   7
ENDBRANCH   1   6
BRANCH   4  20
ATOM     20  C   UNL     1       4.501   3.377  19.160  0.00  0.00    +0.000 C 
BRANCH  20  21
ATOM     21  N   UNL     1       5.632   4.160  18.655  0.00  0.00    +0.000 NA
ATOM     22  H   UNL     1       6.469   3.872  19.164  0.00  0.00    +0.000 HD
BRANCH  21  23
ATOM     23  C   UNL     1       5.880   4.009  17.229  0.00  0.00    +0.000 C 
ATOM     24  C   UNL     1       7.124   4.871  16.773  0.00  0.00    +0.000 C 
ATOM     25  C   UNL     1       7.052   4.740  15.216  0.00  0.00    +0.000 C 
ATOM     26  C   UNL     1       5.608   5.165  15.099  0.00  0.00    +0.000 C 
ATOM     27  C   UNL     1       5.335   6.157  16.179  0.00  0.00    +0.000 C 
ATOM     28  C   UNL     1       6.613   6.342  16.967  0.00  0.00    +0.000 C 
ATOM     29  C   UNL     1       4.891   4.737  16.343  0.00  0.00    +0.000 C 
ENDBRANCH  21  23
ENDBRANCH  20  21
ENDBRANCH   4  20
TORSDOF 11
ENDMDL
MODEL 5
REMARK VINA RESULT:      -6.7      1.335      1.949
REMARK  Name = 
REMARK  12 active torsions:
REMARK  status: ('A' for Active; 'I' for Inactive)
REMARK    1  A    between atoms: C_1  and  N_2
REMARK    2  A    between atoms: N_2  and  C_3
REMARK    3  A    between atoms: C_3  and  N_8
REMARK    4  A    between atoms: C_4  and  N_5
REMARK    5  A    between atoms: N_8  and  C_9
REMARK    6  A    between atoms: C_9  and  C_10
REMARK    7  A    between atoms: C_10  and  S_11
REMARK    8  A    between atoms: S_11  and  C_12
REMARK    9  A    between atoms: C_12  and  C_13
REMARK   10  A    between atoms: C_16  and  C_17
REMARK   11  A    between atoms: C_17  and  N_18
REMARK   12  A    between atoms: N_18  and  C_19
REMARK                            x       y       z     vdW  Elec       q    Type
REMARK                         _______ _______ _______ _____ _____    ______ ____
ROOT
ATOM      1  C   UNL     1       7.354   5.755  17.246  0.00  0.00    +0.000 A 
ATOM      2  C   UNL     1       7.779   5.524  18.541  0.00  0.00    +0.000 A 
ATOM      3  C   UNL     1       8.197   6.765  19.062  0.00  0.00    +0.000 A 
ATOM      4  C   UNL     1       8.007   7.701  18.064  0.00  0.00    +0.000 A 
ATOM      5  O   UNL     1       7.486   7.090  16.951  0.00  0.00    +0.000 OA
ENDROOT
BRANCH   1   6
ATOM      6  C   UNL     1       6.820   4.844  16.180  0.00  0.00    +0.000 C 
BRANCH   6   7
ATOM      7  S   UNL     1       5.020   5.113  16.028  0.00  0.00    +0.000 S 
BRANCH   7   8
ATOM      8  C   UNL     1       4.498   5.548  17.748  0.00  0.00    +0.000 C 
BRANCH   8   9
ATOM      9  C   UNL     1       2.964   5.579  17.664  0.00  0.00    +0.000 C 
BRANCH   9  10
ATOM     10  N   UNL     1       2.213   4.753  18.614  0.00  0.00    +0.000 N 
ATOM     11  H   UNL     1       1.689   5.249  19.343  0.00  0.00    +0.000 HD
BRANCH  10  12
ATOM     12  C   UNL     1       2.566   3.450  18.976  0.00  0.00    +0.000 C 
ATOM     13  C   UNL     1       2.548   2.922  20.221  0.00  0.00    +0.000 C 
BRANCH  12  15
ATOM     14  C   UNL     1       3.572   1.272  18.190  0.00  0.00    +0.000 C 
ATOM     15  N   UNL     1       3.032   2.601  17.966  0.00  0.00    +0.000 N 
ATOM     16  H   UNL     1       2.471   2.645  17.125  0.00  0.00    +0.000 HD
ENDBRANCH  12  15
BRANCH  13  17
ATOM     17  N   UNL     1       2.208   3.641  21.414  0.00  0.00    +0.000 N 
ATOM     18  O   UNL     1       2.236   4.877  21.420  0.00  0.00    +0.000 OA
ATOM     19  O   UNL     1       1.930   2.934  22.395  0.00  0.00    +0.000 OA
ENDBRANCH  13  17
ENDBRANCH  10  12
ENDBRANCH   9  10
ENDBRANCH   8   9
ENDBRANCH   7   8
ENDBRANCH   6   7
ENDBRANCH   1   6
BRANCH   4  20
ATOM     20  C   UNL     1       8.254   9.179  18.006  0.00  0.00    +0.000 C 
BRANCH  20  21
ATOM     21  N   UNL     1       9.160   9.574  19.088  0.00  0.00    +0.000 NA
ATOM     22  H   UNL     1      10.115   9.372  18.789  0.00  0.00    +0.000 HD
BRANCH  21  23
ATOM     23  C   UNL     1       9.075  10.978  19.461  0.00  0.00    +0.000 C 
ATOM     24  C   UNL     1       9.716  11.902  18.350  0.00  0.00    +0.000 C 
ATOM     25  C   UNL     1       9.722  13.298  19.058  0.00  0.00    +0.000 C 
ATOM     26  C   UNL     1      10.422  12.825  20.309  0.00  0.00    +0.000 C 
ATOM     27  C   UNL     1      11.361  11.734  19.922  0.00  0.00    +0.000 C 
ATOM     28  C   UNL     1      11.238  11.528  18.428  0.00  0.00    +0.000 C 
ATOM     29  C   UNL     1      10.044  11.395  20.547  0.00  0.00    +0.000 C 
ENDBRANCH  21  23
ENDBRANCH  20  21
ENDBRANCH   4  20
TORSDOF 11
ENDMDL
MODEL 6
REMARK VINA RESULT:      -6.6      6.142      9.914
REMARK  Name = 
REMARK  12 active torsions:
REMARK  status: ('A' for Active; 'I' for Inactive)
REMARK    1  A    between atoms: C_1  and  N_2
REMARK    2  A    between atoms: N_2  and  C_3
REMARK    3  A    between atoms: C_3  and  N_8
REMARK    4  A    between atoms: C_4  and  N_5
REMARK    5  A    between atoms: N_8  and  C_9
REMARK    6  A    between atoms: C_9  and  C_10
REMARK    7  A    between atoms: C_10  and  S_11
REMARK    8  A    between atoms: S_11  and  C_12
REMARK    9  A    between atoms: C_12  and  C_13
REMARK   10  A    between atoms: C_16  and  C_17
REMARK   11  A    between atoms: C_17  and  N_18
REMARK   12  A    between atoms: N_18  and  C_19
REMARK                            x       y       z     vdW  Elec       q    Type
REMARK                         _______ _______ _______ _____ _____    ______ ____
ROOT
ATOM      1  C   UNL     1       1.131   9.520  19.423  0.00  0.00    +0.000 A 
ATOM      2  C   UNL     1       1.381   9.535  18.063  0.00  0.00    +0.000 A 
ATOM      3  C   UNL     1       2.153   8.392  17.776  0.00  0.00    +0.000 A 
ATOM      4  C   UNL     1       2.340   7.726  18.972  0.00  0.00    +0.000 A 
ATOM      5  O   UNL     1       1.713   8.409  19.983  0.00  0.00    +0.000 OA
ENDROOT
BRANCH   1   6
ATOM      6  C   UNL     1       0.390  10.462  20.325  0.00  0.00    +0.000 C 
BRANCH   6   7
ATOM      7  S   UNL     1      -0.511  11.672  19.294  0.00  0.00    +0.000 S 
BRANCH   7   8
ATOM      8  C   UNL     1      -1.702  12.450  20.475  0.00  0.00    +0.000 C 
BRANCH   8   9
ATOM      9  C   UNL     1      -3.049  12.361  19.742  0.00  0.00    +0.000 C 
BRANCH   9  10
ATOM     10  N   UNL     1      -3.136  11.467  18.584  0.00  0.00    +0.000 N 
ATOM     11  H   UNL     1      -2.273  10.988  18.305  0.00  0.00    +0.000 HD
BRANCH  10  12
ATOM     12  C   UNL     1      -4.045  11.623  17.534  0.00  0.00    +0.000 C 
ATOM     13  C   UNL     1      -3.947  11.097  16.292  0.00  0.00    +0.000 C 
BRANCH  12  15
ATOM     14  C   UNL     1      -6.531  12.058  17.485  0.00  0.00    +0.000 C 
ATOM     15  N   UNL     1      -5.158  12.442  17.758  0.00  0.00    +0.000 N 
ATOM     16  H   UNL     1      -5.079  12.991  18.604  0.00  0.00    +0.000 HD
ENDBRANCH  12  15
BRANCH  13  17
ATOM     17  N   UNL     1      -2.843  10.318  15.814  0.00  0.00    +0.000 N 
ATOM     18  O   UNL     1      -2.119   9.715  16.615  0.00  0.00    +0.000 OA
ATOM     19  O   UNL     1      -2.678  10.337  14.584  0.00  0.00    +0.000 OA
ENDBRANCH  13  17
ENDBRANCH  10  12
ENDBRANCH   9  10
ENDBRANCH   8   9
ENDBRANCH   7   8
ENDBRANCH   6   7
ENDBRANCH   1   6
BRANCH   4  20
ATOM     20  C   UNL     1       3.063   6.459  19.319  0.00  0.00    +0.000 C 
BRANCH  20  21
ATOM     21  N   UNL     1       2.136   5.515  19.948  0.00  0.00    +0.000 NA
ATOM     22  H   UNL     1       1.323   6.040  20.274  0.00  0.00    +0.000 HD
BRANCH  21  23
ATOM     23  C   UNL     1       1.680   4.446  19.072  0.00  0.00    +0.000 C 
ATOM     24  C   UNL     1       0.925   3.323  19.890  0.00  0.00    +0.000 C 
ATOM     25  C   UNL     1       0.744   2.206  18.811  0.00  0.00    +0.000 C 
ATOM     26  C   UNL     1       2.197   2.160  18.402  0.00  0.00    +0.000 C 
ATOM     27  C   UNL     1       3.020   2.464  19.608  0.00  0.00    +0.000 C 
ATOM     28  C   UNL     1       2.073   2.704  20.763  0.00  0.00    +0.000 C 
ATOM     29  C   UNL     1       2.780   3.528  18.582  0.00  0.00    +0.000 C 
ENDBRANCH  21  23
ENDBRANCH  20  21
ENDBRANCH   4  20
TORSDOF 11
ENDMDL
MODEL 7
REMARK VINA RESULT:      -6.6      1.800      2.484
REMARK  Name = 
REMARK  12 active torsions:
REMARK  status: ('A' for Active; 'I' for Inactive)
REMARK    1  A    between atoms: C_1  and  N_2
REMARK    2  A    between atoms: N_2  and  C_3
REMARK    3  A    between atoms: C_3  and  N_8
REMARK    4  A    between atoms: C_4  and  N_5
REMARK    5  A    between atoms: N_8  and  C_9
REMARK    6  A    between atoms: C_9  and  C_10
REMARK    7  A    between atoms: C_10  and  S_11
REMARK    8  A    between atoms: S_11  and  C_12
REMARK    9  A    between atoms: C_12  and  C_13
REMARK   10  A    between atoms: C_16  and  C_17
REMARK   11  A    between atoms: C_17  and  N_18
REMARK   12  A    between atoms: N_18  and  C_19
REMARK                            x       y       z     vdW  Elec       q    Type
REMARK                         _______ _______ _______ _____ _____    ______ ____
ROOT
ATOM      1  C   UNL     1       6.323   6.933  17.350  0.00  0.00    +0.000 A 
ATOM      2  C   UNL     1       7.228   6.252  18.144  0.00  0.00    +0.000 A 
ATOM      3  C   UNL     1       8.248   7.166  18.478  0.00  0.00    +0.000 A 
ATOM      4  C   UNL     1       7.922   8.365  17.876  0.00  0.00    +0.000 A 
ATOM      5  O   UNL     1       6.742   8.231  17.188  0.00  0.00    +0.000 OA
ENDROOT
BRANCH   1   6
ATOM      6  C   UNL     1       5.053   6.509  16.674  0.00  0.00    +0.000 C 
BRANCH   6   7
ATOM      7  S   UNL     1       3.639   7.216  17.588  0.00  0.00    +0.000 S 
BRANCH   7   8
ATOM      8  C   UNL     1       3.058   5.813  18.644  0.00  0.00    +0.000 C 
BRANCH   8   9
ATOM      9  C   UNL     1       2.032   5.092  17.756  0.00  0.00    +0.000 C 
BRANCH   9  10
ATOM     10  N   UNL     1       1.470   3.832  18.250  0.00  0.00    +0.000 N 
ATOM     11  H   UNL     1       0.512   3.867  18.617  0.00  0.00    +0.000 HD
BRANCH  10  12
ATOM     12  C   UNL     1       2.228   2.786  18.782  0.00  0.00    +0.000 C 
ATOM     13  C   UNL     1       2.395   2.491  20.092  0.00  0.00    +0.000 C 
BRANCH  12  15
ATOM     14  C   UNL     1       3.920   0.985  18.270  0.00  0.00    +0.000 C 
ATOM     15  N   UNL     1       2.929   1.973  17.885  0.00  0.00    +0.000 N 
ATOM     16  H   UNL     1       2.358   1.657  17.112  0.00  0.00    +0.000 HD
ENDBRANCH  12  15
BRANCH  13  17
ATOM     17  N   UNL     1       1.857   3.251  21.181  0.00  0.00    +0.000 N 
ATOM     18  O   UNL     1       2.401   3.211  22.291  0.00  0.00    +0.000 OA
ATOM     19  O   UNL     1       0.826   3.891  20.919  0.00  0.00    +0.000 OA
ENDBRANCH  13  17
ENDBRANCH  10  12
ENDBRANCH   9  10
ENDBRANCH   8   9
ENDBRANCH   7   8
ENDBRANCH   6   7
ENDBRANCH   1   6
BRANCH   4  20
ATOM     20  C   UNL     1       8.599   9.704  17.859  0.00  0.00    +0.000 C 
BRANCH  20  21
ATOM     21  N   UNL     1       9.240   9.951  19.153  0.00  0.00    +0.000 NA
ATOM     22  H   UNL     1      10.187   9.574  19.114  0.00  0.00    +0.000 HD
BRANCH  21  23
ATOM     23  C   UNL     1       9.313  11.355  19.529  0.00  0.00    +0.000 C 
ATOM     24  C   UNL     1      10.007  12.213  18.396  0.00  0.00    +0.000 C 
ATOM     25  C   UNL     1      10.181  13.597  19.103  0.00  0.00    +0.000 C 
ATOM     26  C   UNL     1      10.872  13.051  20.329  0.00  0.00    +0.000 C 
ATOM     27  C   UNL     1      11.680  11.870  19.909  0.00  0.00    +0.000 C 
ATOM     28  C   UNL     1      11.484  11.683  18.421  0.00  0.00    +0.000 C 
ATOM     29  C   UNL     1      10.358  11.667  20.580  0.00  0.00    +0.000 C 
ENDBRANCH  21  23
ENDBRANCH  20  21
ENDBRANCH   4  20
TORSDOF 11
ENDMDL
MODEL 8
REMARK VINA RESULT:      -6.6      6.094      9.440
REMARK  Name = 
REMARK  12 active torsions:
REMARK  status: ('A' for Active; 'I' for Inactive)
REMARK    1  A    between atoms: C_1  and  N_2
REMARK    2  A    between atoms: N_2  and  C_3
REMARK    3  A    between atoms: C_3  and  N_8
REMARK    4  A    between atoms: C_4  and  N_5
REMARK    5  A    between atoms: N_8  and  C_9
REMARK    6  A    between atoms: C_9  and  C_10
REMARK    7  A    between atoms: C_10  and  S_11
REMARK    8  A    between atoms: S_11  and  C_12
REMARK    9  A    between atoms: C_12  and  C_13
REMARK   10  A    between atoms: C_16  and  C_17
REMARK   11  A    between atoms: C_17  and  N_18
REMARK   12  A    between atoms: N_18  and  C_19
REMARK                            x       y       z     vdW  Elec       q    Type
REMARK                         _______ _______ _______ _____ _____    ______ ____
ROOT
ATOM      1  C   UNL     1       1.491   9.622  19.116  0.00  0.00    +0.000 A 
ATOM      2  C   UNL     1       1.915   9.154  17.887  0.00  0.00    +0.000 A 
ATOM      3  C   UNL     1       2.325   7.819  18.075  0.00  0.00    +0.000 A 
ATOM      4  C   UNL     1       2.131   7.527  19.411  0.00  0.00    +0.000 A 
ATOM      5  O   UNL     1       1.616   8.625  20.053  0.00  0.00    +0.000 OA
ENDROOT
BRANCH   1   6
ATOM      6  C   UNL     1       0.964  10.953  19.565  0.00  0.00    +0.000 C 
BRANCH   6   7
ATOM      7  S   UNL     1      -0.336  10.676  20.818  0.00  0.00    +0.000 S 
BRANCH   7   8
ATOM      8  C   UNL     1      -1.636  11.915  20.378  0.00  0.00    +0.000 C 
BRANCH   8   9
ATOM      9  C   UNL     1      -1.213  12.403  18.984  0.00  0.00    +0.000 C 
BRANCH   9  10
ATOM     10  N   UNL     1      -2.240  12.446  17.938  0.00  0.00    +0.000 N 
ATOM     11  H   UNL     1      -2.351  13.335  17.437  0.00  0.00    +0.000 HD
BRANCH  10  12
ATOM     12  C   UNL     1      -3.397  11.662  17.936  0.00  0.00    +0.000 C 
ATOM     13  C   UNL     1      -3.570  10.476  17.311  0.00  0.00    +0.000 C 
BRANCH  12  15
ATOM     14  C   UNL     1      -5.843  12.275  18.030  0.00  0.00    +0.000 C 
ATOM     15  N   UNL     1      -4.518  12.161  18.610  0.00  0.00    +0.000 N 
ATOM     16  H   UNL     1      -4.551  11.878  19.580  0.00  0.00    +0.000 HD
ENDBRANCH  12  15
BRANCH  13  17
ATOM     17  N   UNL     1      -2.594   9.833  16.481  0.00  0.00    +0.000 N 
ATOM     18  O   UNL     1      -2.891   9.488  15.331  0.00  0.00    +0.000 OA
ATOM     19  O   UNL     1      -1.491   9.640  17.016  0.00  0.00    +0.000 OA
ENDBRANCH  13  17
ENDBRANCH  10  12
ENDBRANCH   9  10
ENDBRANCH   8   9
ENDBRANCH   7   8
ENDBRANCH   6   7
ENDBRANCH   1   6
BRANCH   4  20
ATOM     20  C   UNL     1       2.370   6.286  20.218  0.00  0.00    +0.000 C 
BRANCH  20  21
ATOM     21  N   UNL     1       3.389   5.459  19.567  0.00  0.00    +0.000 NA
ATOM     22  H   UNL     1       4.293   5.681  19.987  0.00  0.00    +0.000 HD
BRANCH  21  23
ATOM     23  C   UNL     1       3.163   4.026  19.678  0.00  0.00    +0.000 C 
ATOM     24  C   UNL     1       3.524   3.285  18.329  0.00  0.00    +0.000 C 
ATOM     25  C   UNL     1       2.992   1.840  18.603  0.00  0.00    +0.000 C 
ATOM     26  C   UNL     1       1.606   2.270  19.017  0.00  0.00    +0.000 C 
ATOM     27  C   UNL     1       1.254   3.490  18.236  0.00  0.00    +0.000 C 
ATOM     28  C   UNL     1       2.428   3.818  17.340  0.00  0.00    +0.000 C 
ATOM     29  C   UNL     1       1.704   3.620  19.657  0.00  0.00    +0.000 C 
ENDBRANCH  21  23
ENDBRANCH  20  21
ENDBRANCH   4  20
TORSDOF 11
ENDMDL
MODEL 9
REMARK VINA RESULT:      -6.6      4.788      7.522
REMARK  Name = 
REMARK  12 active torsions:
REMARK  status: ('A' for Active; 'I' for Inactive)
REMARK    1  A    between atoms: C_1  and  N_2
REMARK    2  A    between atoms: N_2  and  C_3
REMARK    3  A    between atoms: C_3  and  N_8
REMARK    4  A    between atoms: C_4  and  N_5
REMARK    5  A    between atoms: N_8  and  C_9
REMARK    6  A    between atoms: C_9  and  C_10
REMARK    7  A    between atoms: C_10  and  S_11
REMARK    8  A    between atoms: S_11  and  C_12
REMARK    9  A    between atoms: C_12  and  C_13
REMARK   10  A    between atoms: C_16  and  C_17
REMARK   11  A    between atoms: C_17  and  N_18
REMARK   12  A    between atoms: N_18  and  C_19
REMARK                            x       y       z     vdW  Elec       q    Type
REMARK                         _______ _______ _______ _____ _____    ______ ____
ROOT
ATOM      1  C   UNL     1       1.689   4.508  20.095  0.00  0.00    +0.000 A 
ATOM      2  C   UNL     1       0.933   3.368  20.288  0.00  0.00    +0.000 A 
ATOM      3  C   UNL     1       1.525   2.348  19.516  0.00  0.00    +0.000 A 
ATOM      4  C   UNL     1       2.618   2.909  18.886  0.00  0.00    +0.000 A 
ATOM      5  O   UNL     1       2.727   4.230  19.240  0.00  0.00    +0.000 OA
ENDROOT
BRANCH   1   6
ATOM      6  C   UNL     1       1.560   5.908  20.620  0.00  0.00    +0.000 C 
BRANCH   6   7
ATOM      7  S   UNL     1       2.469   7.036  19.509  0.00  0.00    +0.000 S 
BRANCH   7   8
ATOM      8  C   UNL     1       1.557   8.636  19.672  0.00  0.00    +0.000 C 
BRANCH   8   9
ATOM      9  C   UNL     1       1.499   9.169  18.232  0.00  0.00    +0.000 C 
BRANCH   9  10
ATOM     10  N   UNL     1       0.742  10.401  17.991  0.00  0.00    +0.000 N 
ATOM     11  H   UNL     1       1.254  11.284  18.094  0.00  0.00    +0.000 HD
BRANCH  10  12
ATOM     12  C   UNL     1      -0.634  10.533  18.194  0.00  0.00    +0.000 C 
ATOM     13  C   UNL     1      -1.248  11.021  19.296  0.00  0.00    +0.000 C 
BRANCH  12  15
ATOM     14  C   UNL     1      -2.498  10.888  16.530  0.00  0.00    +0.000 C 
ATOM     15  N   UNL     1      -1.484  10.078  17.180  0.00  0.00    +0.000 N 
ATOM     16  H   UNL     1      -1.023   9.454  16.530  0.00  0.00    +0.000 HD
ENDBRANCH  12  15
BRANCH  13  17
ATOM     17  N   UNL     1      -0.578  11.443  20.491  0.00  0.00    +0.000 N 
ATOM     18  O   UNL     1      -1.070  11.192  21.597  0.00  0.00    +0.000 OA
ATOM     19  O   UNL     1       0.472  12.081  20.310  0.00  0.00    +0.000 OA
ENDBRANCH  13  17
ENDBRANCH  10  12
ENDBRANCH   9  10
ENDBRANCH   8   9
ENDBRANCH   7   8
ENDBRANCH   6   7
ENDBRANCH   1   6
BRANCH   4  20
ATOM     20  C   UNL     1       3.642   2.344  17.947  0.00  0.00    +0.000 C 
BRANCH  20  21
ATOM     21  N   UNL     1       4.871   3.139  18.015  0.00  0.00    +0.000 NA
ATOM     22  H   UNL     1       5.611   2.546  18.392  0.00  0.00    +0.000 HD
BRANCH  21  23
ATOM     23  C   UNL     1       5.310   3.678  16.737  0.00  0.00    +0.000 C 
ATOM     24  C   UNL     1       6.699   4.420  16.879  0.00  0.00    +0.000 C 
ATOM     25  C   UNL     1       6.847   5.096  15.476  0.00  0.00    +0.000 C 
ATOM     26  C   UNL     1       5.495   5.767  15.493  0.00  0.00    +0.000 C 
ATOM     27  C   UNL     1       5.178   6.120  16.907  0.00  0.00    +0.000 C 
ATOM     28  C   UNL     1       6.336   5.662  17.766  0.00  0.00    +0.000 C 
ATOM     29  C   UNL     1       4.555   4.910  16.284  0.00  0.00    +0.000 C 
ENDBRANCH  21  23
ENDBRANCH  20  21
ENDBRANCH   4  20
TORSDOF 11
ENDMDL
