MODEL 1
REMARK VINA RESULT:      -7.3      0.000      0.000
REMARK  Name = 
REMARK  9 active torsions:
REMARK  status: ('A' for Active; 'I' for Inactive)
REMARK    1  A    between atoms: C_1  and  O_2
REMARK    2  A    between atoms: O_2  and  C_3
REMARK    3  A    between atoms: C_6  and  N_7
REMARK    4  A    between atoms: C_8  and  C_10
REMARK    5  A    between atoms: C_10  and  S_11
REMARK    6  A    between atoms: S_11  and  C_12
REMARK    7  A    between atoms: C_15  and  C_16
REMARK    8  A    between atoms: C_24  and  O_25
REMARK    9  A    between atoms: O_25  and  C_26
REMARK                            x       y       z     vdW  Elec       q    Type
REMARK                         _______ _______ _______ _____ _____    ______ ____
ROOT
ATOM      1  N   UNL     1       2.173   4.480  19.644  0.00  0.00    +0.000 N 
ATOM      2  C   UNL     1       1.624   3.562  18.757  0.00  0.00    +0.000 C 
ATOM      3  O   UNL     1       1.030   3.846  17.718  0.00  0.00    +0.000 OA
ATOM      4  H   UNL     1       2.474   4.095  20.535  0.00  0.00    +0.000 HD
ENDROOT
BRANCH   1   8
ATOM      5  C   UNL     1       1.701   8.671  19.394  0.00  0.00    +0.000 A 
ATOM      6  C   UNL     1       2.411   7.982  18.401  0.00  0.00    +0.000 A 
ATOM      7  C   UNL     1       2.593   6.600  18.471  0.00  0.00    +0.000 A 
ATOM      8  C   UNL     1       2.107   5.883  19.557  0.00  0.00    +0.000 A 
ATOM      9  C   UNL     1       1.513   6.588  20.612  0.00  0.00    +0.000 A 
ATOM     10  C   UNL     1       1.296   7.976  20.542  0.00  0.00    +0.000 A 
BRANCH   5  12
ATOM     11  C   UNL     1       1.746  10.568  17.985  0.00  0.00    +0.000 C 
ATOM     12  O   UNL     1       1.415  10.003  19.257  0.00  0.00    +0.000 OA
ENDBRANCH   5  12
BRANCH  10  13
ATOM     13  O   UNL     1       0.655   8.457  21.657  0.00  0.00    +0.000 OA
ATOM     14  C   UNL     1       1.369   9.278  22.567  0.00  0.00    +0.000 C 
ENDBRANCH  10  13
ENDBRANCH   1   8
BRANCH   2  15
ATOM     15  C   UNL     1       1.842   2.094  19.131  0.00  0.00    +0.000 C 
BRANCH  15  16
ATOM     16  S   UNL     1       3.380   1.442  18.395  0.00  0.00    +0.000 S 
BRANCH  16  17
ATOM     17  C   UNL     1       4.393   2.901  18.283  0.00  0.00    +0.000 A 
ATOM     18  C   UNL     1       4.490   3.511  17.044  0.00  0.00    +0.000 A 
ATOM     19  C   UNL     1       5.271   4.656  16.908  0.00  0.00    +0.000 A 
ATOM     20  C   UNL     1       5.928   5.156  18.015  0.00  0.00    +0.000 A 
ATOM     21  N   UNL     1       5.830   4.537  19.219  0.00  0.00    +0.000 NA
ATOM     22  N   UNL     1       5.052   3.396  19.347  0.00  0.00    +0.000 NA
BRANCH  20  23
ATOM     23  C   UNL     1       6.742   6.360  17.959  0.00  0.00    +0.000 A 
ATOM     24  C   UNL     1       6.748   7.498  17.176  0.00  0.00    +0.000 A 
ATOM     25  C   UNL     1       7.834   8.296  17.623  0.00  0.00    +0.000 A 
ATOM     26  C   UNL     1       8.418   7.604  18.655  0.00  0.00    +0.000 A 
ATOM     27  O   UNL     1       7.765   6.435  18.869  0.00  0.00    +0.000 OA
ENDBRANCH  20  23
ENDBRANCH  16  17
ENDBRANCH  15  16
ENDBRANCH   2  15
TORSDOF 7
ENDMDL
MODEL 2
REMARK VINA RESULT:      -6.7      2.347      2.803
REMARK  Name = 
REMARK  9 active torsions:
REMARK  status: ('A' for Active; 'I' for Inactive)
REMARK    1  A    between atoms: C_1  and  O_2
REMARK    2  A    between atoms: O_2  and  C_3
REMARK    3  A    between atoms: C_6  and  N_7
REMARK    4  A    between atoms: C_8  and  C_10
REMARK    5  A    between atoms: C_10  and  S_11
REMARK    6  A    between atoms: S_11  and  C_12
REMARK    7  A    between atoms: C_15  and  C_16
REMARK    8  A    between atoms: C_24  and  O_25
REMARK    9  A    between atoms: O_25  and  C_26
REMARK                            x       y       z     vdW  Elec       q    Type
REMARK                         _______ _______ _______ _____ _____    ______ ____
ROOT
ATOM      1  N   UNL     1       2.433   6.198  20.631  0.00  0.00    +0.000 N 
ATOM      2  C   UNL     1       1.682   5.032  20.727  0.00  0.00    +0.000 C 
ATOM      3  O   UNL     1       0.538   4.887  20.298  0.00  0.00    +0.000 OA
ATOM      4  H   UNL     1       3.284   6.211  21.184  0.00  0.00    +0.000 HD
ENDROOT
BRANCH   1   8
ATOM      5  C   UNL     1       0.931   9.827  19.075  0.00  0.00    +0.000 A 
ATOM      6  C   UNL     1       1.653   8.954  18.251  0.00  0.00    +0.000 A 
ATOM      7  C   UNL     1       2.172   7.757  18.747  0.00  0.00    +0.000 A 
ATOM      8  C   UNL     1       2.017   7.429  20.088  0.00  0.00    +0.000 A 
ATOM      9  C   UNL     1       1.411   8.361  20.940  0.00  0.00    +0.000 A 
ATOM     10  C   UNL     1       0.857   9.557  20.449  0.00  0.00    +0.000 A 
BRANCH   5  12
ATOM     11  C   UNL     1      -1.079  10.781  18.277  0.00  0.00    +0.000 C 
ATOM     12  O   UNL     1       0.316  10.936  18.556  0.00  0.00    +0.000 OA
ENDBRANCH   5  12
BRANCH  10  13
ATOM     13  O   UNL     1       0.267  10.300  21.441  0.00  0.00    +0.000 OA
ATOM     14  C   UNL     1      -0.443   9.636  22.475  0.00  0.00    +0.000 C 
ENDBRANCH  10  13
ENDBRANCH   1   8
BRANCH   2  15
ATOM     15  C   UNL     1       2.400   3.855  21.391  0.00  0.00    +0.000 C 
BRANCH  15  16
ATOM     16  S   UNL     1       2.435   2.395  20.297  0.00  0.00    +0.000 S 
BRANCH  16  17
ATOM     17  C   UNL     1       3.445   2.960  18.945  0.00  0.00    +0.000 A 
ATOM     18  C   UNL     1       4.660   3.542  19.262  0.00  0.00    +0.000 A 
ATOM     19  C   UNL     1       5.485   3.999  18.238  0.00  0.00    +0.000 A 
ATOM     20  C   UNL     1       5.070   3.857  16.928  0.00  0.00    +0.000 A 
ATOM     21  N   UNL     1       3.869   3.295  16.637  0.00  0.00    +0.000 NA
ATOM     22  N   UNL     1       3.052   2.844  17.663  0.00  0.00    +0.000 NA
BRANCH  20  23
ATOM     23  C   UNL     1       5.885   4.286  15.802  0.00  0.00    +0.000 A 
ATOM     24  C   UNL     1       6.897   5.209  15.625  0.00  0.00    +0.000 A 
ATOM     25  C   UNL     1       7.262   5.160  14.255  0.00  0.00    +0.000 A 
ATOM     26  C   UNL     1       6.458   4.206  13.679  0.00  0.00    +0.000 A 
ATOM     27  O   UNL     1       5.626   3.669  14.605  0.00  0.00    +0.000 OA
ENDBRANCH  20  23
ENDBRANCH  16  17
ENDBRANCH  15  16
ENDBRANCH   2  15
TORSDOF 7
ENDMDL
MODEL 3
REMARK VINA RESULT:      -6.7      4.218      8.149
REMARK  Name = 
REMARK  9 active torsions:
REMARK  status: ('A' for Active; 'I' for Inactive)
REMARK    1  A    between atoms: C_1  and  O_2
REMARK    2  A    between atoms: O_2  and  C_3
REMARK    3  A    between atoms: C_6  and  N_7
REMARK    4  A    between atoms: C_8  and  C_10
REMARK    5  A    between atoms: C_10  and  S_11
REMARK    6  A    between atoms: S_11  and  C_12
REMARK    7  A    between atoms: C_15  and  C_16
REMARK    8  A    between atoms: C_24  and  O_25
REMARK    9  A    between atoms: O_25  and  C_26
REMARK                            x       y       z     vdW  Elec       q    Type
REMARK                         _______ _______ _______ _____ _____    ______ ____
ROOT
ATOM      1  N   UNL     1       8.155   9.848  17.787  0.00  0.00    +0.000 N 
ATOM      2  C   UNL     1       8.087   8.479  18.016  0.00  0.00    +0.000 C 
ATOM      3  O   UNL     1       8.729   7.869  18.869  0.00  0.00    +0.000 OA
ATOM      4  H   UNL     1       7.698  10.169  16.938  0.00  0.00    +0.000 HD
ENDROOT
BRANCH   1   8
ATOM      5  C   UNL     1      10.879  12.546  19.562  0.00  0.00    +0.000 A 
ATOM      6  C   UNL     1      10.225  11.587  20.347  0.00  0.00    +0.000 A 
ATOM      7  C   UNL     1       9.310  10.696  19.786  0.00  0.00    +0.000 A 
ATOM      8  C   UNL     1       8.996  10.773  18.435  0.00  0.00    +0.000 A 
ATOM      9  C   UNL     1       9.548  11.813  17.677  0.00  0.00    +0.000 A 
ATOM     10  C   UNL     1      10.495  12.700  18.222  0.00  0.00    +0.000 A 
BRANCH   5  12
ATOM     11  C   UNL     1      11.451  14.634  20.510  0.00  0.00    +0.000 C 
ATOM     12  O   UNL     1      11.868  13.332  20.091  0.00  0.00    +0.000 OA
ENDBRANCH   5  12
BRANCH  10  13
ATOM     13  O   UNL     1      10.946  13.608  17.298  0.00  0.00    +0.000 OA
ATOM     14  C   UNL     1      12.238  13.440  16.734  0.00  0.00    +0.000 C 
ENDBRANCH  10  13
ENDBRANCH   1   8
BRANCH   2  15
ATOM     15  C   UNL     1       7.087   7.726  17.135  0.00  0.00    +0.000 C 
BRANCH  15  16
ATOM     16  S   UNL     1       7.451   5.939  17.094  0.00  0.00    +0.000 S 
BRANCH  16  17
ATOM     17  C   UNL     1       6.091   5.256  18.017  0.00  0.00    +0.000 A 
ATOM     18  C   UNL     1       4.877   5.916  17.941  0.00  0.00    +0.000 A 
ATOM     19  C   UNL     1       3.785   5.420  18.646  0.00  0.00    +0.000 A 
ATOM     20  C   UNL     1       3.940   4.275  19.404  0.00  0.00    +0.000 A 
ATOM     21  N   UNL     1       5.141   3.647  19.476  0.00  0.00    +0.000 NA
ATOM     22  N   UNL     1       6.225   4.149  18.772  0.00  0.00    +0.000 NA
BRANCH  20  23
ATOM     23  C   UNL     1       2.841   3.679  20.149  0.00  0.00    +0.000 A 
ATOM     24  C   UNL     1       2.744   2.866  21.261  0.00  0.00    +0.000 A 
ATOM     25  C   UNL     1       1.362   2.617  21.466  0.00  0.00    +0.000 A 
ATOM     26  C   UNL     1       0.699   3.298  20.474  0.00  0.00    +0.000 A 
ATOM     27  O   UNL     1       1.582   3.945  19.675  0.00  0.00    +0.000 OA
ENDBRANCH  20  23
ENDBRANCH  16  17
ENDBRANCH  15  16
ENDBRANCH   2  15
TORSDOF 7
ENDMDL
MODEL 4
REMARK VINA RESULT:      -6.7      2.495      6.796
REMARK  Name = 
REMARK  9 active torsions:
REMARK  status: ('A' for Active; 'I' for Inactive)
REMARK    1  A    between atoms: C_1  and  O_2
REMARK    2  A    between atoms: O_2  and  C_3
REMARK    3  A    between atoms: C_6  and  N_7
REMARK    4  A    between atoms: C_8  and  C_10
REMARK    5  A    between atoms: C_10  and  S_11
REMARK    6  A    between atoms: S_11  and  C_12
REMARK    7  A    between atoms: C_15  and  C_16
REMARK    8  A    between atoms: C_24  and  O_25
REMARK    9  A    between atoms: O_25  and  C_26
REMARK                            x       y       z     vdW  Elec       q    Type
REMARK                         _______ _______ _______ _____ _____    ______ ____
ROOT
ATOM      1  N   UNL     1       3.889   4.779  18.109  0.00  0.00    +0.000 N 
ATOM      2  C   UNL     1       2.613   4.251  17.949  0.00  0.00    +0.000 C 
ATOM      3  O   UNL     1       2.207   3.666  16.946  0.00  0.00    +0.000 OA
ATOM      4  H   UNL     1       4.011   5.379  18.918  0.00  0.00    +0.000 HD
ENDROOT
BRANCH   1   8
ATOM      5  C   UNL     1       6.919   5.083  15.179  0.00  0.00    +0.000 A 
ATOM      6  C   UNL     1       5.966   4.058  15.103  0.00  0.00    +0.000 A 
ATOM      7  C   UNL     1       4.966   3.929  16.067  0.00  0.00    +0.000 A 
ATOM      8  C   UNL     1       4.923   4.795  17.153  0.00  0.00    +0.000 A 
ATOM      9  C   UNL     1       5.950   5.736  17.300  0.00  0.00    +0.000 A 
ATOM     10  C   UNL     1       6.946   5.898  16.321  0.00  0.00    +0.000 A 
BRANCH   5  12
ATOM     11  C   UNL     1       7.418   4.778  12.890  0.00  0.00    +0.000 C 
ATOM     12  O   UNL     1       7.818   5.285  14.166  0.00  0.00    +0.000 OA
ENDBRANCH   5  12
BRANCH  10  13
ATOM     13  O   UNL     1       7.822   6.907  16.635  0.00  0.00    +0.000 OA
ATOM     14  C   UNL     1       7.417   7.919  17.545  0.00  0.00    +0.000 C 
ENDBRANCH  10  13
ENDBRANCH   1   8
BRANCH   2  15
ATOM     15  C   UNL     1       1.696   4.403  19.165  0.00  0.00    +0.000 C 
BRANCH  15  16
ATOM     16  S   UNL     1       2.489   5.394  20.476  0.00  0.00    +0.000 S 
BRANCH  16  17
ATOM     17  C   UNL     1       1.956   7.044  20.076  0.00  0.00    +0.000 A 
ATOM     18  C   UNL     1       1.300   7.756  21.065  0.00  0.00    +0.000 A 
ATOM     19  C   UNL     1       0.865   9.051  20.799  0.00  0.00    +0.000 A 
ATOM     20  C   UNL     1       1.103   9.596  19.552  0.00  0.00    +0.000 A 
ATOM     21  N   UNL     1       1.738   8.878  18.590  0.00  0.00    +0.000 NA
ATOM     22  N   UNL     1       2.167   7.588  18.862  0.00  0.00    +0.000 NA
BRANCH  20  23
ATOM     23  C   UNL     1       0.703  10.951  19.204  0.00  0.00    +0.000 A 
ATOM     24  C   UNL     1       1.271  12.202  19.343  0.00  0.00    +0.000 A 
ATOM     25  C   UNL     1       0.341  13.134  18.811  0.00  0.00    +0.000 A 
ATOM     26  C   UNL     1      -0.732  12.397  18.374  0.00  0.00    +0.000 A 
ATOM     27  O   UNL     1      -0.523  11.078  18.603  0.00  0.00    +0.000 OA
ENDBRANCH  20  23
ENDBRANCH  16  17
ENDBRANCH  15  16
ENDBRANCH   2  15
TORSDOF 7
ENDMDL
MODEL 5
REMARK VINA RESULT:      -6.6      4.573      8.295
REMARK  Name = 
REMARK  9 active torsions:
REMARK  status: ('A' for Active; 'I' for Inactive)
REMARK    1  A    between atoms: C_1  and  O_2
REMARK    2  A    between atoms: O_2  and  C_3
REMARK    3  A    between atoms: C_6  and  N_7
REMARK    4  A    between atoms: C_8  and  C_10
REMARK    5  A    between atoms: C_10  and  S_11
REMARK    6  A    between atoms: S_11  and  C_12
REMARK    7  A    between atoms: C_15  and  C_16
REMARK    8  A    between atoms: C_24  and  O_25
REMARK    9  A    between atoms: O_25  and  C_26
REMARK                            x       y       z     vdW  Elec       q    Type
REMARK                         _______ _______ _______ _____ _____    ______ ____
ROOT
ATOM      1  N   UNL     1       9.332   9.449  19.362  0.00  0.00    +0.000 N 
ATOM      2  C   UNL     1       8.408   8.988  18.432  0.00  0.00    +0.000 C 
ATOM      3  O   UNL     1       7.801   9.690  17.625  0.00  0.00    +0.000 OA
ATOM      4  H   UNL     1       9.612   8.773  20.067  0.00  0.00    +0.000 HD
ENDROOT
BRANCH   1   8
ATOM      5  C   UNL     1      10.700  13.383  20.072  0.00  0.00    +0.000 A 
ATOM      6  C   UNL     1       9.737  12.809  20.914  0.00  0.00    +0.000 A 
ATOM      7  C   UNL     1       9.259  11.518  20.690  0.00  0.00    +0.000 A 
ATOM      8  C   UNL     1       9.701  10.788  19.594  0.00  0.00    +0.000 A 
ATOM      9  C   UNL     1      10.563  11.407  18.680  0.00  0.00    +0.000 A 
ATOM     10  C   UNL     1      11.077  12.697  18.909  0.00  0.00    +0.000 A 
BRANCH   5  12
ATOM     11  C   UNL     1      10.392  15.722  20.199  0.00  0.00    +0.000 C 
ATOM     12  O   UNL     1      11.259  14.597  20.369  0.00  0.00    +0.000 OA
ENDBRANCH   5  12
BRANCH  10  13
ATOM     13  O   UNL     1      11.941  13.093  17.919  0.00  0.00    +0.000 OA
ATOM     14  C   UNL     1      11.429  13.390  16.629  0.00  0.00    +0.000 C 
ENDBRANCH  10  13
ENDBRANCH   1   8
BRANCH   2  15
ATOM     15  C   UNL     1       8.199   7.472  18.428  0.00  0.00    +0.000 C 
BRANCH  15  16
ATOM     16  S   UNL     1       7.160   6.947  17.022  0.00  0.00    +0.000 S 
BRANCH  16  17
ATOM     17  C   UNL     1       5.845   6.065  17.834  0.00  0.00    +0.000 A 
ATOM     18  C   UNL     1       6.155   4.839  18.395  0.00  0.00    +0.000 A 
ATOM     19  C   UNL     1       5.160   4.112  19.041  0.00  0.00    +0.000 A 
ATOM     20  C   UNL     1       3.883   4.636  19.108  0.00  0.00    +0.000 A 
ATOM     21  N   UNL     1       3.594   5.835  18.541  0.00  0.00    +0.000 NA
ATOM     22  N   UNL     1       4.591   6.552  17.898  0.00  0.00    +0.000 NA
BRANCH  20  23
ATOM     23  C   UNL     1       2.794   3.949  19.787  0.00  0.00    +0.000 A 
ATOM     24  C   UNL     1       2.179   4.073  21.017  0.00  0.00    +0.000 A 
ATOM     25  C   UNL     1       1.180   3.066  21.078  0.00  0.00    +0.000 A 
ATOM     26  C   UNL     1       1.240   2.396  19.881  0.00  0.00    +0.000 A 
ATOM     27  O   UNL     1       2.208   2.922  19.092  0.00  0.00    +0.000 OA
ENDBRANCH  20  23
ENDBRANCH  16  17
ENDBRANCH  15  16
ENDBRANCH   2  15
TORSDOF 7
ENDMDL
MODEL 6
REMARK VINA RESULT:      -6.6      4.100      8.665
REMARK  Name = 
REMARK  9 active torsions:
REMARK  status: ('A' for Active; 'I' for Inactive)
REMARK    1  A    between atoms: C_1  and  O_2
REMARK    2  A    between atoms: O_2  and  C_3
REMARK    3  A    between atoms: C_6  and  N_7
REMARK    4  A    between atoms: C_8  and  C_10
REMARK    5  A    between atoms: C_10  and  S_11
REMARK    6  A    between atoms: S_11  and  C_12
REMARK    7  A    between atoms: C_15  and  C_16
REMARK    8  A    between atoms: C_24  and  O_25
REMARK    9  A    between atoms: O_25  and  C_26
REMARK                            x       y       z     vdW  Elec       q    Type
REMARK                         _______ _______ _______ _____ _____    ______ ____
ROOT
ATOM      1  N   UNL     1       2.916   6.615  18.996  0.00  0.00    +0.000 N 
ATOM      2  C   UNL     1       2.270   6.219  20.162  0.00  0.00    +0.000 C 
ATOM      3  O   UNL     1       2.358   5.107  20.680  0.00  0.00    +0.000 OA
ATOM      4  H   UNL     1       2.604   7.500  18.608  0.00  0.00    +0.000 HD
ENDROOT
BRANCH   1   8
ATOM      5  C   UNL     1       5.355   4.425  16.331  0.00  0.00    +0.000 A 
ATOM      6  C   UNL     1       4.179   3.856  16.839  0.00  0.00    +0.000 A 
ATOM      7  C   UNL     1       3.366   4.555  17.732  0.00  0.00    +0.000 A 
ATOM      8  C   UNL     1       3.734   5.820  18.171  0.00  0.00    +0.000 A 
ATOM      9  C   UNL     1       4.972   6.335  17.768  0.00  0.00    +0.000 A 
ATOM     10  C   UNL     1       5.788   5.657  16.844  0.00  0.00    +0.000 A 
BRANCH   5  12
ATOM     11  C   UNL     1       5.773   4.181  14.018  0.00  0.00    +0.000 C 
ATOM     12  O   UNL     1       6.081   3.790  15.359  0.00  0.00    +0.000 OA
ENDBRANCH   5  12
BRANCH  10  13
ATOM     13  O   UNL     1       6.929   6.359  16.546  0.00  0.00    +0.000 OA
ATOM     14  C   UNL     1       7.447   7.277  17.497  0.00  0.00    +0.000 C 
ENDBRANCH  10  13
ENDBRANCH   1   8
BRANCH   2  15
ATOM     15  C   UNL     1       1.427   7.306  20.833  0.00  0.00    +0.000 C 
BRANCH  15  16
ATOM     16  S   UNL     1       1.504   8.875  19.905  0.00  0.00    +0.000 S 
BRANCH  16  17
ATOM     17  C   UNL     1       0.455   9.938  20.873  0.00  0.00    +0.000 A 
ATOM     18  C   UNL     1      -0.428  10.753  20.187  0.00  0.00    +0.000 A 
ATOM     19  C   UNL     1      -1.270  11.601  20.902  0.00  0.00    +0.000 A 
ATOM     20  C   UNL     1      -1.204  11.605  22.281  0.00  0.00    +0.000 A 
ATOM     21  N   UNL     1      -0.323  10.807  22.937  0.00  0.00    +0.000 NA
ATOM     22  N   UNL     1       0.513   9.966  22.218  0.00  0.00    +0.000 NA
BRANCH  20  23
ATOM     23  C   UNL     1      -2.066  12.444  23.100  0.00  0.00    +0.000 A 
ATOM     24  C   UNL     1      -2.024  13.753  23.537  0.00  0.00    +0.000 A 
ATOM     25  C   UNL     1      -3.179  13.954  24.338  0.00  0.00    +0.000 A 
ATOM     26  C   UNL     1      -3.860  12.761  24.334  0.00  0.00    +0.000 A 
ATOM     27  O   UNL     1      -3.199  11.843  23.587  0.00  0.00    +0.000 OA
ENDBRANCH  20  23
ENDBRANCH  16  17
ENDBRANCH  15  16
ENDBRANCH   2  15
TORSDOF 7
ENDMDL
MODEL 7
REMARK VINA RESULT:      -6.6      2.435      3.819
REMARK  Name = 
REMARK  9 active torsions:
REMARK  status: ('A' for Active; 'I' for Inactive)
REMARK    1  A    between atoms: C_1  and  O_2
REMARK    2  A    between atoms: O_2  and  C_3
REMARK    3  A    between atoms: C_6  and  N_7
REMARK    4  A    between atoms: C_8  and  C_10
REMARK    5  A    between atoms: C_10  and  S_11
REMARK    6  A    between atoms: S_11  and  C_12
REMARK    7  A    between atoms: C_15  and  C_16
REMARK    8  A    between atoms: C_24  and  O_25
REMARK    9  A    between atoms: O_25  and  C_26
REMARK                            x       y       z     vdW  Elec       q    Type
REMARK                         _______ _______ _______ _____ _____    ______ ____
ROOT
ATOM      1  N   UNL     1       3.364   6.997  17.802  0.00  0.00    +0.000 N 
ATOM      2  C   UNL     1       3.517   5.626  17.632  0.00  0.00    +0.000 C 
ATOM      3  O   UNL     1       2.869   4.761  18.219  0.00  0.00    +0.000 OA
ATOM      4  H   UNL     1       4.088   7.570  17.378  0.00  0.00    +0.000 HD
ENDROOT
BRANCH   1   8
ATOM      5  C   UNL     1       0.931   9.158  20.496  0.00  0.00    +0.000 A 
ATOM      6  C   UNL     1       1.422   7.893  20.849  0.00  0.00    +0.000 A 
ATOM      7  C   UNL     1       2.214   7.155  19.970  0.00  0.00    +0.000 A 
ATOM      8  C   UNL     1       2.497   7.646  18.701  0.00  0.00    +0.000 A 
ATOM      9  C   UNL     1       1.899   8.847  18.300  0.00  0.00    +0.000 A 
ATOM     10  C   UNL     1       1.123   9.617  19.185  0.00  0.00    +0.000 A 
BRANCH   5  12
ATOM     11  C   UNL     1       0.042   9.318  22.680  0.00  0.00    +0.000 C 
ATOM     12  O   UNL     1       0.262   9.932  21.407  0.00  0.00    +0.000 OA
ENDBRANCH   5  12
BRANCH  10  13
ATOM     13  O   UNL     1       0.677  10.779  18.607  0.00  0.00    +0.000 OA
ATOM     14  C   UNL     1       1.528  11.915  18.588  0.00  0.00    +0.000 C 
ENDBRANCH  10  13
ENDBRANCH   1   8
BRANCH   2  15
ATOM     15  C   UNL     1       4.559   5.218  16.588  0.00  0.00    +0.000 C 
BRANCH  15  16
ATOM     16  S   UNL     1       6.110   4.669  17.377  0.00  0.00    +0.000 S 
BRANCH  16  17
ATOM     17  C   UNL     1       6.929   6.212  17.715  0.00  0.00    +0.000 A 
ATOM     18  C   UNL     1       7.817   6.241  18.776  0.00  0.00    +0.000 A 
ATOM     19  C   UNL     1       8.481   7.425  19.079  0.00  0.00    +0.000 A 
ATOM     20  C   UNL     1       8.239   8.546  18.308  0.00  0.00    +0.000 A 
ATOM     21  N   UNL     1       7.356   8.503  17.278  0.00  0.00    +0.000 NA
ATOM     22  N   UNL     1       6.696   7.319  16.984  0.00  0.00    +0.000 NA
BRANCH  20  23
ATOM     23  C   UNL     1       8.912   9.814  18.544  0.00  0.00    +0.000 A 
ATOM     24  C   UNL     1       9.374  10.838  17.740  0.00  0.00    +0.000 A 
ATOM     25  C   UNL     1       9.968  11.798  18.601  0.00  0.00    +0.000 A 
ATOM     26  C   UNL     1       9.826  11.307  19.876  0.00  0.00    +0.000 A 
ATOM     27  O   UNL     1       9.188  10.111  19.854  0.00  0.00    +0.000 OA
ENDBRANCH  20  23
ENDBRANCH  16  17
ENDBRANCH  15  16
ENDBRANCH   2  15
TORSDOF 7
ENDMDL
MODEL 8
REMARK VINA RESULT:      -6.6      5.780      8.302
REMARK  Name = 
REMARK  9 active torsions:
REMARK  status: ('A' for Active; 'I' for Inactive)
REMARK    1  A    between atoms: C_1  and  O_2
REMARK    2  A    between atoms: O_2  and  C_3
REMARK    3  A    between atoms: C_6  and  N_7
REMARK    4  A    between atoms: C_8  and  C_10
REMARK    5  A    between atoms: C_10  and  S_11
REMARK    6  A    between atoms: S_11  and  C_12
REMARK    7  A    between atoms: C_15  and  C_16
REMARK    8  A    between atoms: C_24  and  O_25
REMARK    9  A    between atoms: O_25  and  C_26
REMARK                            x       y       z     vdW  Elec       q    Type
REMARK                         _______ _______ _______ _____ _____    ______ ____
ROOT
ATOM      1  N   UNL     1       6.526   7.639  17.113  0.00  0.00    +0.000 N 
ATOM      2  C   UNL     1       7.672   7.925  17.846  0.00  0.00    +0.000 C 
ATOM      3  O   UNL     1       8.267   7.130  18.571  0.00  0.00    +0.000 OA
ATOM      4  H   UNL     1       6.060   8.445  16.707  0.00  0.00    +0.000 HD
ENDROOT
BRANCH   1   8
ATOM      5  C   UNL     1       4.531   3.919  17.292  0.00  0.00    +0.000 A 
ATOM      6  C   UNL     1       5.122   4.344  16.095  0.00  0.00    +0.000 A 
ATOM      7  C   UNL     1       5.773   5.575  16.008  0.00  0.00    +0.000 A 
ATOM      8  C   UNL     1       5.808   6.428  17.104  0.00  0.00    +0.000 A 
ATOM      9  C   UNL     1       5.105   6.063  18.259  0.00  0.00    +0.000 A 
ATOM     10  C   UNL     1       4.471   4.812  18.372  0.00  0.00    +0.000 A 
BRANCH   5  12
ATOM     11  C   UNL     1       2.579   2.598  17.462  0.00  0.00    +0.000 C 
ATOM     12  O   UNL     1       4.007   2.659  17.410  0.00  0.00    +0.000 OA
ENDBRANCH   5  12
BRANCH  10  13
ATOM     13  O   UNL     1       3.888   4.636  19.602  0.00  0.00    +0.000 OA
ATOM     14  C   UNL     1       2.783   5.448  19.969  0.00  0.00    +0.000 C 
ENDBRANCH  10  13
ENDBRANCH   1   8
BRANCH   2  15
ATOM     15  C   UNL     1       8.215   9.344  17.667  0.00  0.00    +0.000 C 
BRANCH  15  16
ATOM     16  S   UNL     1       9.208   9.863  19.107  0.00  0.00    +0.000 S 
BRANCH  16  17
ATOM     17  C   UNL     1       9.598  11.553  18.707  0.00  0.00    +0.000 A 
ATOM     18  C   UNL     1      10.565  11.768  17.740  0.00  0.00    +0.000 A 
ATOM     19  C   UNL     1      10.904  13.073  17.393  0.00  0.00    +0.000 A 
ATOM     20  C   UNL     1      10.263  14.122  18.022  0.00  0.00    +0.000 A 
ATOM     21  N   UNL     1       9.326  13.892  18.977  0.00  0.00    +0.000 NA
ATOM     22  N   UNL     1       8.995  12.589  19.319  0.00  0.00    +0.000 NA
BRANCH  20  23
ATOM     23  C   UNL     1      10.543  15.513  17.698  0.00  0.00    +0.000 A 
ATOM     24  C   UNL     1      11.622  16.193  17.167  0.00  0.00    +0.000 A 
ATOM     25  C   UNL     1      11.261  17.565  17.126  0.00  0.00    +0.000 A 
ATOM     26  C   UNL     1       9.983  17.639  17.626  0.00  0.00    +0.000 A 
ATOM     27  O   UNL     1       9.539  16.406  17.971  0.00  0.00    +0.000 OA
ENDBRANCH  20  23
ENDBRANCH  16  17
ENDBRANCH  15  16
ENDBRANCH   2  15
TORSDOF 7
ENDMDL
MODEL 9
REMARK VINA RESULT:      -6.5      4.454      7.727
REMARK  Name = 
REMARK  9 active torsions:
REMARK  status: ('A' for Active; 'I' for Inactive)
REMARK    1  A    between atoms: C_1  and  O_2
REMARK    2  A    between atoms: O_2  and  C_3
REMARK    3  A    between atoms: C_6  and  N_7
REMARK    4  A    between atoms: C_8  and  C_10
REMARK    5  A    between atoms: C_10  and  S_11
REMARK    6  A    between atoms: S_11  and  C_12
REMARK    7  A    between atoms: C_15  and  C_16
REMARK    8  A    between atoms: C_24  and  O_25
REMARK    9  A    between atoms: O_25  and  C_26
REMARK                            x       y       z     vdW  Elec       q    Type
REMARK                         _______ _______ _______ _____ _____    ______ ____
ROOT
ATOM      1  N   UNL     1       9.346   9.433  19.255  0.00  0.00    +0.000 N 
ATOM      2  C   UNL     1       8.388   8.954  18.369  0.00  0.00    +0.000 C 
ATOM      3  O   UNL     1       7.770   9.636  17.554  0.00  0.00    +0.000 OA
ATOM      4  H   UNL     1       9.635   8.779  19.976  0.00  0.00    +0.000 HD
ENDROOT
BRANCH   1   8
ATOM      5  C   UNL     1      10.279  13.514  19.822  0.00  0.00    +0.000 A 
ATOM      6  C   UNL     1      10.613  12.876  18.620  0.00  0.00    +0.000 A 
ATOM      7  C   UNL     1      10.328  11.526  18.416  0.00  0.00    +0.000 A 
ATOM      8  C   UNL     1       9.744  10.773  19.426  0.00  0.00    +0.000 A 
ATOM      9  C   UNL     1       9.531  11.375  20.673  0.00  0.00    +0.000 A 
ATOM     10  C   UNL     1       9.783  12.743  20.883  0.00  0.00    +0.000 A 
BRANCH   5  12
ATOM     11  C   UNL     1       9.292  15.655  19.653  0.00  0.00    +0.000 C 
ATOM     12  O   UNL     1      10.442  14.866  19.970  0.00  0.00    +0.000 OA
ENDBRANCH   5  12
BRANCH  10  13
ATOM     13  O   UNL     1       9.457  13.140  22.156  0.00  0.00    +0.000 OA
ATOM     14  C   UNL     1       8.118  13.002  22.604  0.00  0.00    +0.000 C 
ENDBRANCH  10  13
ENDBRANCH   1   8
BRANCH   2  15
ATOM     15  C   UNL     1       8.154   7.443  18.428  0.00  0.00    +0.000 C 
BRANCH  15  16
ATOM     16  S   UNL     1       7.181   6.864  16.997  0.00  0.00    +0.000 S 
BRANCH  16  17
ATOM     17  C   UNL     1       5.824   6.020  17.779  0.00  0.00    +0.000 A 
ATOM     18  C   UNL     1       4.621   5.984  17.097  0.00  0.00    +0.000 A 
ATOM     19  C   UNL     1       3.531   5.335  17.669  0.00  0.00    +0.000 A 
ATOM     20  C   UNL     1       3.679   4.738  18.906  0.00  0.00    +0.000 A 
ATOM     21  N   UNL     1       4.864   4.793  19.566  0.00  0.00    +0.000 NA
ATOM     22  N   UNL     1       5.945   5.444  18.991  0.00  0.00    +0.000 NA
BRANCH  20  23
ATOM     23  C   UNL     1       2.596   4.019  19.559  0.00  0.00    +0.000 A 
ATOM     24  C   UNL     1       2.226   3.792  20.871  0.00  0.00    +0.000 A 
ATOM     25  C   UNL     1       1.064   2.978  20.833  0.00  0.00    +0.000 A 
ATOM     26  C   UNL     1       0.789   2.764  19.505  0.00  0.00    +0.000 A 
ATOM     27  O   UNL     1       1.706   3.390  18.726  0.00  0.00    +0.000 OA
ENDBRANCH  20  23
ENDBRANCH  16  17
ENDBRANCH  15  16
ENDBRANCH   2  15
TORSDOF 7
ENDMDL
