MODEL 1
REMARK VINA RESULT:      -8.1      0.000      0.000
REMARK  Name = 
REMARK  7 active torsions:
REMARK  status: ('A' for Active; 'I' for Inactive)
REMARK    1  A    between atoms: C_1  and  O_2
REMARK    2  A    between atoms: O_2  and  C_3
REMARK    3  A    between atoms: C_8  and  C_9
REMARK    4  A    between atoms: C_9  and  N_10
REMARK    5  A    between atoms: N_10  and  C_11
REMARK    6  A    between atoms: N_25  and  C_26
REMARK    7  A    between atoms: C_26  and  C_27
REMARK                            x       y       z     vdW  Elec       q    Type
REMARK                         _______ _______ _______ _____ _____    ______ ____
ROOT
ATOM      1  C   UNL     1       0.697   9.847  21.366  0.00  0.00    +0.000 A 
ATOM      2  C   UNL     1       0.036   9.365  22.489  0.00  0.00    +0.000 A 
ATOM      3  C   UNL     1      -0.777  10.196  23.216  0.00  0.00    +0.000 A 
ATOM      4  C   UNL     1      -1.030  11.469  22.694  0.00  0.00    +0.000 A 
ATOM      5  C   UNL     1      -0.272  12.096  21.687  0.00  0.00    +0.000 A 
ATOM      6  C   UNL     1       0.656  11.229  21.050  0.00  0.00    +0.000 A 
ATOM      7  C   UNL     1      -0.869  13.403  20.982  0.00  0.00    +0.000 C 
ATOM      8  C   UNL     1       0.073  13.959  19.867  0.00  0.00    +0.000 C 
ATOM      9  C   UNL     1       0.019  13.309  18.487  0.00  0.00    +0.000 C 
ATOM     10  C   UNL     1      -1.263  12.556  18.129  0.00  0.00    +0.000 C 
ATOM     11  C   UNL     1      -1.985  11.863  19.298  0.00  0.00    +0.000 C 
ATOM     12  C   UNL     1      -2.193  12.875  20.432  0.00  0.00    +0.000 C 
ATOM     13  C   UNL     1      -3.051  12.466  21.678  0.00  0.00    +0.000 C 
ATOM     14  C   UNL     1      -2.372  12.003  22.998  0.00  0.00    +0.000 C 
ATOM     15  N   UNL     1      -3.692  13.666  22.180  0.00  0.00    +0.000 NA
ATOM     16  C   UNL     1      -2.765  14.753  22.480  0.00  0.00    +0.000 C 
ATOM     17  C   UNL     1      -1.365  14.706  21.775  0.00  0.00    +0.000 C 
ENDROOT
BRANCH   1  18
ATOM     18  N   UNL     1       1.063   8.836  20.465  0.00  0.00    +0.000 N 
ATOM     19  H   UNL     1       1.769   9.189  19.816  0.00  0.00    +0.000 HD
BRANCH  18  20
ATOM     20  C   UNL     1       1.380   7.500  20.913  0.00  0.00    +0.000 C 
BRANCH  20  26
ATOM     21  C   UNL     1       2.616   5.515  19.864  0.00  0.00    +0.000 A 
ATOM     22  C   UNL     1       3.314   4.969  18.780  0.00  0.00    +0.000 A 
ATOM     23  C   UNL     1       3.681   5.763  17.691  0.00  0.00    +0.000 A 
ATOM     24  C   UNL     1       3.358   7.113  17.676  0.00  0.00    +0.000 A 
ATOM     25  C   UNL     1       2.627   7.652  18.733  0.00  0.00    +0.000 A 
ATOM     26  C   UNL     1       2.223   6.858  19.830  0.00  0.00    +0.000 A 
BRANCH  21  28
ATOM     27  C   UNL     1       1.267   3.780  20.727  0.00  0.00    +0.000 C 
ATOM     28  O   UNL     1       2.258   4.778  20.969  0.00  0.00    +0.000 OA
ENDBRANCH  21  28
ENDBRANCH  20  26
ENDBRANCH  18  20
ENDBRANCH   1  18
BRANCH  15  29
ATOM     29  C   UNL     1      -5.058  13.897  21.758  0.00  0.00    +0.000 C 
BRANCH  29  30
ATOM     30  C   UNL     1      -5.734  12.546  21.460  0.00  0.00    +0.000 C 
ATOM     31  C   UNL     1      -7.180  12.363  22.000  0.00  0.00    +0.000 C 
ATOM     32  C   UNL     1      -7.530  11.661  20.681  0.00  0.00    +0.000 C 
ATOM     33  C   UNL     1      -6.296  12.328  20.043  0.00  0.00    +0.000 C 
ENDBRANCH  29  30
ENDBRANCH  15  29
TORSDOF 6
ENDMDL
MODEL 2
REMARK VINA RESULT:      -7.8      0.764      1.053
REMARK  Name = 
REMARK  7 active torsions:
REMARK  status: ('A' for Active; 'I' for Inactive)
REMARK    1  A    between atoms: C_1  and  O_2
REMARK    2  A    between atoms: O_2  and  C_3
REMARK    3  A    between atoms: C_8  and  C_9
REMARK    4  A    between atoms: C_9  and  N_10
REMARK    5  A    between atoms: N_10  and  C_11
REMARK    6  A    between atoms: N_25  and  C_26
REMARK    7  A    between atoms: C_26  and  C_27
REMARK                            x       y       z     vdW  Elec       q    Type
REMARK                         _______ _______ _______ _____ _____    ______ ____
ROOT
ATOM      1  C   UNL     1       0.751   9.810  21.388  0.00  0.00    +0.000 A 
ATOM      2  C   UNL     1       0.048   9.329  22.484  0.00  0.00    +0.000 A 
ATOM      3  C   UNL     1      -0.779  10.165  23.190  0.00  0.00    +0.000 A 
ATOM      4  C   UNL     1      -0.998  11.445  22.669  0.00  0.00    +0.000 A 
ATOM      5  C   UNL     1      -0.199  12.069  21.693  0.00  0.00    +0.000 A 
ATOM      6  C   UNL     1       0.739  11.195  21.081  0.00  0.00    +0.000 A 
ATOM      7  C   UNL     1      -0.755  13.389  20.978  0.00  0.00    +0.000 C 
ATOM      8  C   UNL     1       0.232  13.942  19.900  0.00  0.00    +0.000 C 
ATOM      9  C   UNL     1       0.216  13.302  18.514  0.00  0.00    +0.000 C 
ATOM     10  C   UNL     1      -1.064  12.568  18.108  0.00  0.00    +0.000 C 
ATOM     11  C   UNL     1      -1.833  11.876  19.246  0.00  0.00    +0.000 C 
ATOM     12  C   UNL     1      -2.066  12.883  20.380  0.00  0.00    +0.000 C 
ATOM     13  C   UNL     1      -2.970  12.476  21.593  0.00  0.00    +0.000 C 
ATOM     14  C   UNL     1      -2.342  11.995  22.931  0.00  0.00    +0.000 C 
ATOM     15  N   UNL     1      -3.613  13.680  22.082  0.00  0.00    +0.000 NA
ATOM     16  C   UNL     1      -2.683  14.753  22.422  0.00  0.00    +0.000 C 
ATOM     17  C   UNL     1      -1.260  14.693  21.764  0.00  0.00    +0.000 C 
ENDROOT
BRANCH   1  18
ATOM     18  N   UNL     1       1.135   8.802  20.491  0.00  0.00    +0.000 N 
ATOM     19  H   UNL     1       1.940   9.111  19.944  0.00  0.00    +0.000 HD
BRANCH  18  20
ATOM     20  C   UNL     1       1.281   7.429  20.914  0.00  0.00    +0.000 C 
BRANCH  20  26
ATOM     21  C   UNL     1       2.614   5.424  20.034  0.00  0.00    +0.000 A 
ATOM     22  C   UNL     1       3.348   4.827  19.002  0.00  0.00    +0.000 A 
ATOM     23  C   UNL     1       3.695   5.550  17.858  0.00  0.00    +0.000 A 
ATOM     24  C   UNL     1       3.314   6.879  17.735  0.00  0.00    +0.000 A 
ATOM     25  C   UNL     1       2.548   7.465  18.741  0.00  0.00    +0.000 A 
ATOM     26  C   UNL     1       2.164   6.742  19.891  0.00  0.00    +0.000 A 
BRANCH  21  28
ATOM     27  C   UNL     1       1.558   3.542  20.991  0.00  0.00    +0.000 C 
ATOM     28  O   UNL     1       2.275   4.760  21.189  0.00  0.00    +0.000 OA
ENDBRANCH  21  28
ENDBRANCH  20  26
ENDBRANCH  18  20
ENDBRANCH   1  18
BRANCH  15  29
ATOM     29  C   UNL     1      -4.961  13.932  21.617  0.00  0.00    +0.000 C 
BRANCH  29  30
ATOM     30  C   UNL     1      -5.910  14.012  22.827  0.00  0.00    +0.000 C 
ATOM     31  C   UNL     1      -7.332  13.416  22.630  0.00  0.00    +0.000 C 
ATOM     32  C   UNL     1      -7.233  12.843  24.050  0.00  0.00    +0.000 C 
ATOM     33  C   UNL     1      -5.702  12.996  23.965  0.00  0.00    +0.000 C 
ENDBRANCH  29  30
ENDBRANCH  15  29
TORSDOF 6
ENDMDL
MODEL 3
REMARK VINA RESULT:      -7.7      3.271     10.458
REMARK  Name = 
REMARK  7 active torsions:
REMARK  status: ('A' for Active; 'I' for Inactive)
REMARK    1  A    between atoms: C_1  and  O_2
REMARK    2  A    between atoms: O_2  and  C_3
REMARK    3  A    between atoms: C_8  and  C_9
REMARK    4  A    between atoms: C_9  and  N_10
REMARK    5  A    between atoms: N_10  and  C_11
REMARK    6  A    between atoms: N_25  and  C_26
REMARK    7  A    between atoms: C_26  and  C_27
REMARK                            x       y       z     vdW  Elec       q    Type
REMARK                         _______ _______ _______ _____ _____    ______ ____
ROOT
ATOM      1  C   UNL     1       1.634   8.530  18.856  0.00  0.00    +0.000 A 
ATOM      2  C   UNL     1       2.356   9.247  17.911  0.00  0.00    +0.000 A 
ATOM      3  C   UNL     1       3.578   8.790  17.488  0.00  0.00    +0.000 A 
ATOM      4  C   UNL     1       3.975   7.520  17.921  0.00  0.00    +0.000 A 
ATOM      5  C   UNL     1       3.410   6.820  19.004  0.00  0.00    +0.000 A 
ATOM      6  C   UNL     1       2.215   7.407  19.499  0.00  0.00    +0.000 A 
ATOM      7  C   UNL     1       3.754   5.266  19.173  0.00  0.00    +0.000 C 
ATOM      8  C   UNL     1       3.026   4.627  20.399  0.00  0.00    +0.000 C 
ATOM      9  C   UNL     1       1.574   4.188  20.226  0.00  0.00    +0.000 C 
ATOM     10  C   UNL     1       1.104   3.907  18.798  0.00  0.00    +0.000 C 
ATOM     11  C   UNL     1       1.748   4.765  17.697  0.00  0.00    +0.000 C 
ATOM     12  C   UNL     1       3.275   4.700  17.837  0.00  0.00    +0.000 C 
ATOM     13  C   UNL     1       4.175   5.359  16.737  0.00  0.00    +0.000 C 
ATOM     14  C   UNL     1       4.796   6.768  16.951  0.00  0.00    +0.000 C 
ATOM     15  N   UNL     1       5.406   4.595  16.664  0.00  0.00    +0.000 NA
ATOM     16  C   UNL     1       6.100   4.466  17.941  0.00  0.00    +0.000 C 
ATOM     17  C   UNL     1       5.243   4.676  19.239  0.00  0.00    +0.000 C 
ENDROOT
BRANCH   1  18
ATOM     18  N   UNL     1       0.259   8.804  18.826  0.00  0.00    +0.000 N 
ATOM     19  H   UNL     1      -0.256   8.049  19.282  0.00  0.00    +0.000 HD
BRANCH  18  20
ATOM     20  C   UNL     1      -0.263  10.098  19.199  0.00  0.00    +0.000 C 
BRANCH  20  26
ATOM     21  C   UNL     1      -2.459  11.290  18.628  0.00  0.00    +0.000 A 
ATOM     22  C   UNL     1      -3.481  11.554  17.707  0.00  0.00    +0.000 A 
ATOM     23  C   UNL     1      -3.550  10.862  16.496  0.00  0.00    +0.000 A 
ATOM     24  C   UNL     1      -2.601   9.896  16.193  0.00  0.00    +0.000 A 
ATOM     25  C   UNL     1      -1.559   9.659  17.087  0.00  0.00    +0.000 A 
ATOM     26  C   UNL     1      -1.456  10.368  18.304  0.00  0.00    +0.000 A 
BRANCH  21  28
ATOM     27  C   UNL     1      -3.499  12.726  20.187  0.00  0.00    +0.000 C 
ATOM     28  O   UNL     1      -2.368  11.926  19.843  0.00  0.00    +0.000 OA
ENDBRANCH  21  28
ENDBRANCH  20  26
ENDBRANCH  18  20
ENDBRANCH   1  18
BRANCH  15  29
ATOM     29  C   UNL     1       5.485   3.590  15.625  0.00  0.00    +0.000 C 
BRANCH  29  30
ATOM     30  C   UNL     1       5.691   4.279  14.264  0.00  0.00    +0.000 C 
ATOM     31  C   UNL     1       7.092   4.901  14.009  0.00  0.00    +0.000 C 
ATOM     32  C   UNL     1       7.008   4.374  12.569  0.00  0.00    +0.000 C 
ATOM     33  C   UNL     1       5.928   3.379  13.037  0.00  0.00    +0.000 C 
ENDBRANCH  29  30
ENDBRANCH  15  29
TORSDOF 6
ENDMDL
MODEL 4
REMARK VINA RESULT:      -7.6      3.276     10.452
REMARK  Name = 
REMARK  7 active torsions:
REMARK  status: ('A' for Active; 'I' for Inactive)
REMARK    1  A    between atoms: C_1  and  O_2
REMARK    2  A    between atoms: O_2  and  C_3
REMARK    3  A    between atoms: C_8  and  C_9
REMARK    4  A    between atoms: C_9  and  N_10
REMARK    5  A    between atoms: N_10  and  C_11
REMARK    6  A    between atoms: N_25  and  C_26
REMARK    7  A    between atoms: C_26  and  C_27
REMARK                            x       y       z     vdW  Elec       q    Type
REMARK                         _______ _______ _______ _____ _____    ______ ____
ROOT
ATOM      1  C   UNL     1       1.689   8.409  18.852  0.00  0.00    +0.000 A 
ATOM      2  C   UNL     1       2.392   9.140  17.904  0.00  0.00    +0.000 A 
ATOM      3  C   UNL     1       3.615   8.698  17.465  0.00  0.00    +0.000 A 
ATOM      4  C   UNL     1       4.031   7.430  17.885  0.00  0.00    +0.000 A 
ATOM      5  C   UNL     1       3.485   6.718  18.969  0.00  0.00    +0.000 A 
ATOM      6  C   UNL     1       2.289   7.288  19.481  0.00  0.00    +0.000 A 
ATOM      7  C   UNL     1       3.847   5.166  19.124  0.00  0.00    +0.000 C 
ATOM      8  C   UNL     1       3.139   4.511  20.354  0.00  0.00    +0.000 C 
ATOM      9  C   UNL     1       1.691   4.058  20.194  0.00  0.00    +0.000 C 
ATOM     10  C   UNL     1       1.208   3.781  18.770  0.00  0.00    +0.000 C 
ATOM     11  C   UNL     1       1.831   4.653  17.667  0.00  0.00    +0.000 C 
ATOM     12  C   UNL     1       3.359   4.604  17.791  0.00  0.00    +0.000 C 
ATOM     13  C   UNL     1       4.241   5.280  16.685  0.00  0.00    +0.000 C 
ATOM     14  C   UNL     1       4.848   6.694  16.901  0.00  0.00    +0.000 C 
ATOM     15  N   UNL     1       5.478   4.530  16.593  0.00  0.00    +0.000 NA
ATOM     16  C   UNL     1       6.188   4.399  17.862  0.00  0.00    +0.000 C 
ATOM     17  C   UNL     1       5.343   4.592  19.170  0.00  0.00    +0.000 C 
ENDROOT
BRANCH   1  18
ATOM     18  N   UNL     1       0.310   8.668  18.839  0.00  0.00    +0.000 N 
ATOM     19  H   UNL     1      -0.172   8.016  19.458  0.00  0.00    +0.000 HD
BRANCH  18  20
ATOM     20  C   UNL     1      -0.209  10.009  18.978  0.00  0.00    +0.000 C 
BRANCH  20  26
ATOM     21  C   UNL     1      -0.835  11.479  20.983  0.00  0.00    +0.000 A 
ATOM     22  C   UNL     1      -1.115  11.593  22.350  0.00  0.00    +0.000 A 
ATOM     23  C   UNL     1      -0.936  10.508  23.211  0.00  0.00    +0.000 A 
ATOM     24  C   UNL     1      -0.473   9.297  22.715  0.00  0.00    +0.000 A 
ATOM     25  C   UNL     1      -0.232   9.166  21.349  0.00  0.00    +0.000 A 
ATOM     26  C   UNL     1      -0.434  10.244  20.458  0.00  0.00    +0.000 A 
BRANCH  21  28
ATOM     27  C   UNL     1       0.020  13.547  20.233  0.00  0.00    +0.000 C 
ATOM     28  O   UNL     1      -0.969  12.527  20.103  0.00  0.00    +0.000 OA
ENDBRANCH  21  28
ENDBRANCH  20  26
ENDBRANCH  18  20
ENDBRANCH   1  18
BRANCH  15  29
ATOM     29  C   UNL     1       5.557   3.532  15.547  0.00  0.00    +0.000 C 
BRANCH  29  30
ATOM     30  C   UNL     1       5.736   4.232  14.188  0.00  0.00    +0.000 C 
ATOM     31  C   UNL     1       7.149   4.805  13.886  0.00  0.00    +0.000 C 
ATOM     32  C   UNL     1       6.990   4.302  12.445  0.00  0.00    +0.000 C 
ATOM     33  C   UNL     1       5.893   3.341  12.942  0.00  0.00    +0.000 C 
ENDBRANCH  29  30
ENDBRANCH  15  29
TORSDOF 6
ENDMDL
MODEL 5
REMARK VINA RESULT:      -7.6      0.986      1.709
REMARK  Name = 
REMARK  7 active torsions:
REMARK  status: ('A' for Active; 'I' for Inactive)
REMARK    1  A    between atoms: C_1  and  O_2
REMARK    2  A    between atoms: O_2  and  C_3
REMARK    3  A    between atoms: C_8  and  C_9
REMARK    4  A    between atoms: C_9  and  N_10
REMARK    5  A    between atoms: N_10  and  C_11
REMARK    6  A    between atoms: N_25  and  C_26
REMARK    7  A    between atoms: C_26  and  C_27
REMARK                            x       y       z     vdW  Elec       q    Type
REMARK                         _______ _______ _______ _____ _____    ______ ____
ROOT
ATOM      1  C   UNL     1       0.705   9.375  21.185  0.00  0.00    +0.000 A 
ATOM      2  C   UNL     1       0.086   8.922  22.342  0.00  0.00    +0.000 A 
ATOM      3  C   UNL     1      -0.575   9.806  23.158  0.00  0.00    +0.000 A 
ATOM      4  C   UNL     1      -0.729  11.117  22.696  0.00  0.00    +0.000 A 
ATOM      5  C   UNL     1       0.012  11.699  21.650  0.00  0.00    +0.000 A 
ATOM      6  C   UNL     1       0.789  10.765  20.914  0.00  0.00    +0.000 A 
ATOM      7  C   UNL     1      -0.493  13.088  21.035  0.00  0.00    +0.000 C 
ATOM      8  C   UNL     1       0.414  13.585  19.864  0.00  0.00    +0.000 C 
ATOM      9  C   UNL     1       0.184  12.997  18.474  0.00  0.00    +0.000 C 
ATOM     10  C   UNL     1      -1.196  12.397  18.199  0.00  0.00    +0.000 C 
ATOM     11  C   UNL     1      -1.895  11.739  19.401  0.00  0.00    +0.000 C 
ATOM     12  C   UNL     1      -1.905  12.724  20.578  0.00  0.00    +0.000 C 
ATOM     13  C   UNL     1      -2.703  12.360  21.877  0.00  0.00    +0.000 C 
ATOM     14  C   UNL     1      -1.978  11.778  23.123  0.00  0.00    +0.000 C 
ATOM     15  N   UNL     1      -3.171  13.600  22.464  0.00  0.00    +0.000 NA
ATOM     16  C   UNL     1      -2.112  14.571  22.720  0.00  0.00    +0.000 C 
ATOM     17  C   UNL     1      -0.783  14.404  21.904  0.00  0.00    +0.000 C 
ENDROOT
BRANCH   1  18
ATOM     18  N   UNL     1       0.890   8.367  20.226  0.00  0.00    +0.000 N 
ATOM     19  H   UNL     1       0.261   8.519  19.437  0.00  0.00    +0.000 HD
BRANCH  18  20
ATOM     20  C   UNL     1       2.209   7.978  19.782  0.00  0.00    +0.000 C 
BRANCH  20  26
ATOM     21  C   UNL     1       2.922   5.754  18.727  0.00  0.00    +0.000 A 
ATOM     22  C   UNL     1       2.964   4.355  18.782  0.00  0.00    +0.000 A 
ATOM     23  C   UNL     1       2.264   3.655  19.766  0.00  0.00    +0.000 A 
ATOM     24  C   UNL     1       1.510   4.345  20.705  0.00  0.00    +0.000 A 
ATOM     25  C   UNL     1       1.497   5.738  20.680  0.00  0.00    +0.000 A 
ATOM     26  C   UNL     1       2.222   6.465  19.710  0.00  0.00    +0.000 A 
BRANCH  21  28
ATOM     27  C   UNL     1       4.499   5.738  16.971  0.00  0.00    +0.000 C 
ATOM     28  O   UNL     1       3.572   6.483  17.760  0.00  0.00    +0.000 OA
ENDBRANCH  21  28
ENDBRANCH  20  26
ENDBRANCH  18  20
ENDBRANCH   1  18
BRANCH  15  29
ATOM     29  C   UNL     1      -4.532  13.989  22.162  0.00  0.00    +0.000 C 
BRANCH  29  30
ATOM     30  C   UNL     1      -5.359  12.733  21.833  0.00  0.00    +0.000 C 
ATOM     31  C   UNL     1      -6.805  12.689  22.403  0.00  0.00    +0.000 C 
ATOM     32  C   UNL     1      -7.258  12.080  21.069  0.00  0.00    +0.000 C 
ATOM     33  C   UNL     1      -5.971  12.631  20.424  0.00  0.00    +0.000 C 
ENDBRANCH  29  30
ENDBRANCH  15  29
TORSDOF 6
ENDMDL
MODEL 6
REMARK VINA RESULT:      -7.6      1.234      2.031
REMARK  Name = 
REMARK  7 active torsions:
REMARK  status: ('A' for Active; 'I' for Inactive)
REMARK    1  A    between atoms: C_1  and  O_2
REMARK    2  A    between atoms: O_2  and  C_3
REMARK    3  A    between atoms: C_8  and  C_9
REMARK    4  A    between atoms: C_9  and  N_10
REMARK    5  A    between atoms: N_10  and  C_11
REMARK    6  A    between atoms: N_25  and  C_26
REMARK    7  A    between atoms: C_26  and  C_27
REMARK                            x       y       z     vdW  Elec       q    Type
REMARK                         _______ _______ _______ _____ _____    ______ ____
ROOT
ATOM      1  C   UNL     1       0.795   9.543  21.341  0.00  0.00    +0.000 A 
ATOM      2  C   UNL     1       0.208   9.104  22.520  0.00  0.00    +0.000 A 
ATOM      3  C   UNL     1      -0.541   9.967  23.278  0.00  0.00    +0.000 A 
ATOM      4  C   UNL     1      -0.813  11.229  22.737  0.00  0.00    +0.000 A 
ATOM      5  C   UNL     1      -0.119  11.815  21.662  0.00  0.00    +0.000 A 
ATOM      6  C   UNL     1       0.750  10.916  20.988  0.00  0.00    +0.000 A 
ATOM      7  C   UNL     1      -0.747  13.111  20.962  0.00  0.00    +0.000 C 
ATOM      8  C   UNL     1       0.122  13.621  19.768  0.00  0.00    +0.000 C 
ATOM      9  C   UNL     1      -0.037  12.932  18.415  0.00  0.00    +0.000 C 
ATOM     10  C   UNL     1      -1.352  12.189  18.170  0.00  0.00    +0.000 C 
ATOM     11  C   UNL     1      -1.998  11.541  19.406  0.00  0.00    +0.000 C 
ATOM     12  C   UNL     1      -2.113  12.588  20.521  0.00  0.00    +0.000 C 
ATOM     13  C   UNL     1      -2.887  12.227  21.835  0.00  0.00    +0.000 C 
ATOM     14  C   UNL     1      -2.123  11.792  23.118  0.00  0.00    +0.000 C 
ATOM     15  N   UNL     1      -3.476  13.450  22.345  0.00  0.00    +0.000 NA
ATOM     16  C   UNL     1      -2.516  14.531  22.548  0.00  0.00    +0.000 C 
ATOM     17  C   UNL     1      -1.169  14.443  21.749  0.00  0.00    +0.000 C 
ENDROOT
BRANCH   1  18
ATOM     18  N   UNL     1       1.084   8.503  20.445  0.00  0.00    +0.000 N 
ATOM     19  H   UNL     1       1.020   8.843  19.485  0.00  0.00    +0.000 HD
BRANCH  18  20
ATOM     20  C   UNL     1       2.234   7.647  20.626  0.00  0.00    +0.000 C 
BRANCH  20  26
ATOM     21  C   UNL     1       2.242   6.154  18.542  0.00  0.00    +0.000 A 
ATOM     22  C   UNL     1       2.027   4.898  17.961  0.00  0.00    +0.000 A 
ATOM     23  C   UNL     1       1.456   3.857  18.696  0.00  0.00    +0.000 A 
ATOM     24  C   UNL     1       1.089   4.061  20.018  0.00  0.00    +0.000 A 
ATOM     25  C   UNL     1       1.338   5.296  20.614  0.00  0.00    +0.000 A 
ATOM     26  C   UNL     1       1.940   6.352  19.895  0.00  0.00    +0.000 A 
BRANCH  21  28
ATOM     27  C   UNL     1       4.116   7.024  17.401  0.00  0.00    +0.000 C 
ATOM     28  O   UNL     1       2.775   7.216  17.850  0.00  0.00    +0.000 OA
ENDBRANCH  21  28
ENDBRANCH  20  26
ENDBRANCH  18  20
ENDBRANCH   1  18
BRANCH  15  29
ATOM     29  C   UNL     1      -4.864  13.690  22.014  0.00  0.00    +0.000 C 
BRANCH  29  30
ATOM     30  C   UNL     1      -5.732  13.468  23.266  0.00  0.00    +0.000 C 
ATOM     31  C   UNL     1      -6.602  14.671  23.726  0.00  0.00    +0.000 C 
ATOM     32  C   UNL     1      -7.731  13.675  24.028  0.00  0.00    +0.000 C 
ATOM     33  C   UNL     1      -7.035  12.663  23.097  0.00  0.00    +0.000 C 
ENDBRANCH  29  30
ENDBRANCH  15  29
TORSDOF 6
ENDMDL
MODEL 7
REMARK VINA RESULT:      -7.4      0.805      1.128
REMARK  Name = 
REMARK  7 active torsions:
REMARK  status: ('A' for Active; 'I' for Inactive)
REMARK    1  A    between atoms: C_1  and  O_2
REMARK    2  A    between atoms: O_2  and  C_3
REMARK    3  A    between atoms: C_8  and  C_9
REMARK    4  A    between atoms: C_9  and  N_10
REMARK    5  A    between atoms: N_10  and  C_11
REMARK    6  A    between atoms: N_25  and  C_26
REMARK    7  A    between atoms: C_26  and  C_27
REMARK                            x       y       z     vdW  Elec       q    Type
REMARK                         _______ _______ _______ _____ _____    ______ ____
ROOT
ATOM      1  C   UNL     1       0.763   9.885  21.392  0.00  0.00    +0.000 A 
ATOM      2  C   UNL     1       0.174   9.427  22.564  0.00  0.00    +0.000 A 
ATOM      3  C   UNL     1      -0.653  10.252  23.284  0.00  0.00    +0.000 A 
ATOM      4  C   UNL     1      -0.993  11.483  22.712  0.00  0.00    +0.000 A 
ATOM      5  C   UNL     1      -0.309  12.096  21.645  0.00  0.00    +0.000 A 
ATOM      6  C   UNL     1       0.637  11.246  21.012  0.00  0.00    +0.000 A 
ATOM      7  C   UNL     1      -1.002  13.334  20.904  0.00  0.00    +0.000 C 
ATOM      8  C   UNL     1      -0.135  13.881  19.724  0.00  0.00    +0.000 C 
ATOM      9  C   UNL     1      -0.210  13.160  18.381  0.00  0.00    +0.000 C 
ATOM     10  C   UNL     1      -1.464  12.326  18.115  0.00  0.00    +0.000 C 
ATOM     11  C   UNL     1      -2.101  11.657  19.344  0.00  0.00    +0.000 C 
ATOM     12  C   UNL     1      -2.317  12.713  20.436  0.00  0.00    +0.000 C 
ATOM     13  C   UNL     1      -3.102  12.324  21.735  0.00  0.00    +0.000 C 
ATOM     14  C   UNL     1      -2.348  11.963  23.046  0.00  0.00    +0.000 C 
ATOM     15  N   UNL     1      -3.785  13.514  22.206  0.00  0.00    +0.000 NA
ATOM     16  C   UNL     1      -2.906  14.660  22.414  0.00  0.00    +0.000 C 
ATOM     17  C   UNL     1      -1.534  14.648  21.653  0.00  0.00    +0.000 C 
ENDROOT
BRANCH   1  18
ATOM     18  N   UNL     1       1.146   8.851  20.525  0.00  0.00    +0.000 N 
ATOM     19  H   UNL     1       1.947   9.145  19.966  0.00  0.00    +0.000 HD
BRANCH  18  20
ATOM     20  C   UNL     1       1.298   7.492  20.990  0.00  0.00    +0.000 C 
BRANCH  20  26
ATOM     21  C   UNL     1       2.336   5.371  19.993  0.00  0.00    +0.000 A 
ATOM     22  C   UNL     1       2.984   4.736  18.926  0.00  0.00    +0.000 A 
ATOM     23  C   UNL     1       3.438   5.466  17.826  0.00  0.00    +0.000 A 
ATOM     24  C   UNL     1       3.252   6.841  17.782  0.00  0.00    +0.000 A 
ATOM     25  C   UNL     1       2.572   7.472  18.821  0.00  0.00    +0.000 A 
ATOM     26  C   UNL     1       2.080   6.746  19.928  0.00  0.00    +0.000 A 
BRANCH  21  28
ATOM     27  C   UNL     1       2.350   3.347  21.207  0.00  0.00    +0.000 C 
ATOM     28  O   UNL     1       1.897   4.697  21.108  0.00  0.00    +0.000 OA
ENDBRANCH  21  28
ENDBRANCH  20  26
ENDBRANCH  18  20
ENDBRANCH   1  18
BRANCH  15  29
ATOM     29  C   UNL     1      -5.177  13.654  21.832  0.00  0.00    +0.000 C 
BRANCH  29  30
ATOM     30  C   UNL     1      -5.268  14.331  20.452  0.00  0.00    +0.000 C 
ATOM     31  C   UNL     1      -5.892  13.486  19.307  0.00  0.00    +0.000 C 
ATOM     32  C   UNL     1      -6.615  14.754  18.833  0.00  0.00    +0.000 C 
ATOM     33  C   UNL     1      -6.395  15.357  20.234  0.00  0.00    +0.000 C 
ENDBRANCH  29  30
ENDBRANCH  15  29
TORSDOF 6
ENDMDL
MODEL 8
REMARK VINA RESULT:      -7.4      3.091     10.409
REMARK  Name = 
REMARK  7 active torsions:
REMARK  status: ('A' for Active; 'I' for Inactive)
REMARK    1  A    between atoms: C_1  and  O_2
REMARK    2  A    between atoms: O_2  and  C_3
REMARK    3  A    between atoms: C_8  and  C_9
REMARK    4  A    between atoms: C_9  and  N_10
REMARK    5  A    between atoms: N_10  and  C_11
REMARK    6  A    between atoms: N_25  and  C_26
REMARK    7  A    between atoms: C_26  and  C_27
REMARK                            x       y       z     vdW  Elec       q    Type
REMARK                         _______ _______ _______ _____ _____    ______ ____
ROOT
ATOM      1  C   UNL     1       1.550   8.512  18.782  0.00  0.00    +0.000 A 
ATOM      2  C   UNL     1       2.311   9.233  17.871  0.00  0.00    +0.000 A 
ATOM      3  C   UNL     1       3.556   8.783  17.509  0.00  0.00    +0.000 A 
ATOM      4  C   UNL     1       3.942   7.518  17.964  0.00  0.00    +0.000 A 
ATOM      5  C   UNL     1       3.330   6.817  19.021  0.00  0.00    +0.000 A 
ATOM      6  C   UNL     1       2.107   7.396  19.456  0.00  0.00    +0.000 A 
ATOM      7  C   UNL     1       3.677   5.266  19.212  0.00  0.00    +0.000 C 
ATOM      8  C   UNL     1       2.895   4.624  20.403  0.00  0.00    +0.000 C 
ATOM      9  C   UNL     1       1.456   4.174  20.162  0.00  0.00    +0.000 C 
ATOM     10  C   UNL     1       1.058   3.885  18.713  0.00  0.00    +0.000 C 
ATOM     11  C   UNL     1       1.749   4.745  17.641  0.00  0.00    +0.000 C 
ATOM     12  C   UNL     1       3.267   4.693  17.856  0.00  0.00    +0.000 C 
ATOM     13  C   UNL     1       4.215   5.355  16.799  0.00  0.00    +0.000 C 
ATOM     14  C   UNL     1       4.814   6.770  17.038  0.00  0.00    +0.000 C 
ATOM     15  N   UNL     1       5.453   4.601  16.788  0.00  0.00    +0.000 NA
ATOM     16  C   UNL     1       6.085   4.480  18.098  0.00  0.00    +0.000 C 
ATOM     17  C   UNL     1       5.165   4.687  19.351  0.00  0.00    +0.000 C 
ENDROOT
BRANCH   1  18
ATOM     18  N   UNL     1       0.176   8.776  18.684  0.00  0.00    +0.000 N 
ATOM     19  H   UNL     1      -0.164   9.176  19.559  0.00  0.00    +0.000 HD
BRANCH  18  20
ATOM     20  C   UNL     1      -0.385   9.457  17.540  0.00  0.00    +0.000 C 
BRANCH  20  26
ATOM     21  C   UNL     1      -1.474  11.271  18.986  0.00  0.00    +0.000 A 
ATOM     22  C   UNL     1      -2.608  12.019  19.325  0.00  0.00    +0.000 A 
ATOM     23  C   UNL     1      -3.857  11.716  18.777  0.00  0.00    +0.000 A 
ATOM     24  C   UNL     1      -3.986  10.659  17.887  0.00  0.00    +0.000 A 
ATOM     25  C   UNL     1      -2.854   9.937  17.515  0.00  0.00    +0.000 A 
ATOM     26  C   UNL     1      -1.578  10.247  18.036  0.00  0.00    +0.000 A 
BRANCH  21  28
ATOM     27  C   UNL     1      -0.204  11.623  20.944  0.00  0.00    +0.000 C 
ATOM     28  O   UNL     1      -0.232  11.515  19.521  0.00  0.00    +0.000 OA
ENDBRANCH  21  28
ENDBRANCH  20  26
ENDBRANCH  18  20
ENDBRANCH   1  18
BRANCH  15  29
ATOM     29  C   UNL     1       5.591   3.593  15.758  0.00  0.00    +0.000 C 
BRANCH  29  30
ATOM     30  C   UNL     1       5.732   4.281  14.388  0.00  0.00    +0.000 C 
ATOM     31  C   UNL     1       7.126   4.884  14.058  0.00  0.00    +0.000 C 
ATOM     32  C   UNL     1       6.957   4.361  12.625  0.00  0.00    +0.000 C 
ATOM     33  C   UNL     1       5.891   3.379  13.149  0.00  0.00    +0.000 C 
ENDBRANCH  29  30
ENDBRANCH  15  29
TORSDOF 6
ENDMDL
MODEL 9
REMARK VINA RESULT:      -7.3      3.528     10.302
REMARK  Name = 
REMARK  7 active torsions:
REMARK  status: ('A' for Active; 'I' for Inactive)
REMARK    1  A    between atoms: C_1  and  O_2
REMARK    2  A    between atoms: O_2  and  C_3
REMARK    3  A    between atoms: C_8  and  C_9
REMARK    4  A    between atoms: C_9  and  N_10
REMARK    5  A    between atoms: N_10  and  C_11
REMARK    6  A    between atoms: N_25  and  C_26
REMARK    7  A    between atoms: C_26  and  C_27
REMARK                            x       y       z     vdW  Elec       q    Type
REMARK                         _______ _______ _______ _____ _____    ______ ____
ROOT
ATOM      1  C   UNL     1       1.555   8.368  19.280  0.00  0.00    +0.000 A 
ATOM      2  C   UNL     1       2.146   9.129  18.281  0.00  0.00    +0.000 A 
ATOM      3  C   UNL     1       3.328   8.721  17.716  0.00  0.00    +0.000 A 
ATOM      4  C   UNL     1       3.809   7.456  18.070  0.00  0.00    +0.000 A 
ATOM      5  C   UNL     1       3.387   6.715  19.190  0.00  0.00    +0.000 A 
ATOM      6  C   UNL     1       2.236   7.251  19.827  0.00  0.00    +0.000 A 
ATOM      7  C   UNL     1       3.794   5.169  19.281  0.00  0.00    +0.000 C 
ATOM      8  C   UNL     1       3.225   4.480  20.563  0.00  0.00    +0.000 C 
ATOM      9  C   UNL     1       1.777   3.997  20.538  0.00  0.00    +0.000 C 
ATOM     10  C   UNL     1       1.161   3.732  19.163  0.00  0.00    +0.000 C 
ATOM     11  C   UNL     1       1.655   4.635  18.020  0.00  0.00    +0.000 C 
ATOM     12  C   UNL     1       3.189   4.617  17.992  0.00  0.00    +0.000 C 
ATOM     13  C   UNL     1       3.943   5.330  16.817  0.00  0.00    +0.000 C 
ATOM     14  C   UNL     1       4.540   6.754  16.998  0.00  0.00    +0.000 C 
ATOM     15  N   UNL     1       5.180   4.609  16.591  0.00  0.00    +0.000 NA
ATOM     16  C   UNL     1       6.014   4.474  17.782  0.00  0.00    +0.000 C 
ATOM     17  C   UNL     1       5.299   4.627  19.169  0.00  0.00    +0.000 C 
ENDROOT
BRANCH   1  18
ATOM     18  N   UNL     1       0.176   8.597  19.407  0.00  0.00    +0.000 N 
ATOM     19  H   UNL     1      -0.321   7.707  19.457  0.00  0.00    +0.000 HD
BRANCH  18  20
ATOM     20  C   UNL     1      -0.348   9.548  20.360  0.00  0.00    +0.000 C 
BRANCH  20  26
ATOM     21  C   UNL     1      -1.206  11.133  18.537  0.00  0.00    +0.000 A 
ATOM     22  C   UNL     1      -1.277  12.425  18.002  0.00  0.00    +0.000 A 
ATOM     23  C   UNL     1      -0.507  13.463  18.531  0.00  0.00    +0.000 A 
ATOM     24  C   UNL     1       0.344  13.220  19.600  0.00  0.00    +0.000 A 
ATOM     25  C   UNL     1       0.388  11.946  20.162  0.00  0.00    +0.000 A 
ATOM     26  C   UNL     1      -0.404  10.891  19.659  0.00  0.00    +0.000 A 
BRANCH  21  28
ATOM     27  C   UNL     1      -2.286  10.201  16.656  0.00  0.00    +0.000 C 
ATOM     28  O   UNL     1      -1.924  10.075  18.031  0.00  0.00    +0.000 OA
ENDBRANCH  21  28
ENDBRANCH  20  26
ENDBRANCH  18  20
ENDBRANCH   1  18
BRANCH  15  29
ATOM     29  C   UNL     1       5.176   3.629  15.525  0.00  0.00    +0.000 C 
BRANCH  29  30
ATOM     30  C   UNL     1       5.566   4.314  14.203  0.00  0.00    +0.000 C 
ATOM     31  C   UNL     1       7.040   4.793  14.081  0.00  0.00    +0.000 C 
ATOM     32  C   UNL     1       7.028   4.300  12.628  0.00  0.00    +0.000 C 
ATOM     33  C   UNL     1       5.817   3.413  12.979  0.00  0.00    +0.000 C 
ENDBRANCH  29  30
ENDBRANCH  15  29
TORSDOF 6
ENDMDL
