MODEL 1
REMARK VINA RESULT:      -7.1      0.000      0.000
REMARK  Name = 
REMARK  7 active torsions:
REMARK  status: ('A' for Active; 'I' for Inactive)
REMARK    1  A    between atoms: C_2  and  C_3
REMARK    2  A    between atoms: C_3  and  N_4
REMARK    3  A    between atoms: N_4  and  C_5
REMARK    4  A    between atoms: C_5  and  N_7
REMARK    5  A    between atoms: N_7  and  N_8
REMARK    6  A    between atoms: N_8  and  C_9
REMARK    7  A    between atoms: N_8  and  C_15
REMARK                            x       y       z     vdW  Elec       q    Type
REMARK                         _______ _______ _______ _____ _____    ______ ____
ROOT
ATOM      1  N   UNL     1       2.989   6.090  19.059  0.00  0.00    +0.000 N 
ENDROOT
BRANCH   1   2
ATOM      2  C   UNL     1       2.385   7.400  19.039  0.00  0.00    +0.000 A 
ATOM      3  C   UNL     1       2.359   8.220  17.891  0.00  0.00    +0.000 A 
ATOM      4  C   UNL     1       1.664   9.435  17.881  0.00  0.00    +0.000 A 
ATOM      5  C   UNL     1       1.002   9.867  19.024  0.00  0.00    +0.000 A 
ATOM      6  C   UNL     1       1.049   9.095  20.180  0.00  0.00    +0.000 A 
ATOM      7  C   UNL     1       1.741   7.880  20.194  0.00  0.00    +0.000 A 
ENDBRANCH   1   2
BRANCH   1   8
ATOM      8  C   UNL     1       2.352   4.939  19.669  0.00  0.00    +0.000 A 
ATOM      9  C   UNL     1       2.588   4.585  21.014  0.00  0.00    +0.000 A 
ATOM     10  C   UNL     1       2.028   3.444  21.600  0.00  0.00    +0.000 A 
ATOM     11  C   UNL     1       1.185   2.631  20.854  0.00  0.00    +0.000 A 
ATOM     12  C   UNL     1       0.907   2.963  19.536  0.00  0.00    +0.000 A 
ATOM     13  C   UNL     1       1.483   4.102  18.949  0.00  0.00    +0.000 A 
ENDBRANCH   1   8
BRANCH   1  14
ATOM     14  N   UNL     1       3.523   5.751  17.795  0.00  0.00    +0.000 N 
ATOM     15  H   UNL     1       2.816   5.598  17.095  0.00  0.00    +0.000 HD
BRANCH  14  16
ATOM     16  C   UNL     1       4.788   5.252  17.609  0.00  0.00    +0.000 C 
ATOM     17  S   UNL     1       5.327   4.326  16.325  0.00  0.00    +0.000 S 
BRANCH  16  18
ATOM     18  N   UNL     1       5.688   5.599  18.585  0.00  0.00    +0.000 N 
ATOM     19  H   UNL     1       5.272   5.916  19.452  0.00  0.00    +0.000 HD
BRANCH  18  20
ATOM     20  C   UNL     1       7.126   5.407  18.584  0.00  0.00    +0.000 C 
BRANCH  20  22
ATOM     21  C   UNL     1       7.614   7.673  17.524  0.00  0.00    +0.000 C 
ATOM     22  C   UNL     1       7.844   6.713  18.432  0.00  0.00    +0.000 C 
ENDBRANCH  20  22
ENDBRANCH  18  20
ENDBRANCH  16  18
ENDBRANCH  14  16
ENDBRANCH   1  14
TORSDOF 7
ENDMDL
MODEL 2
REMARK VINA RESULT:      -7.1      0.508      4.227
REMARK  Name = 
REMARK  7 active torsions:
REMARK  status: ('A' for Active; 'I' for Inactive)
REMARK    1  A    between atoms: C_2  and  C_3
REMARK    2  A    between atoms: C_3  and  N_4
REMARK    3  A    between atoms: N_4  and  C_5
REMARK    4  A    between atoms: C_5  and  N_7
REMARK    5  A    between atoms: N_7  and  N_8
REMARK    6  A    between atoms: N_8  and  C_9
REMARK    7  A    between atoms: N_8  and  C_15
REMARK                            x       y       z     vdW  Elec       q    Type
REMARK                         _______ _______ _______ _____ _____    ______ ____
ROOT
ATOM      1  N   UNL     1       2.906   5.840  18.928  0.00  0.00    +0.000 N 
ENDROOT
BRANCH   1   2
ATOM      2  C   UNL     1       2.278   4.755  19.642  0.00  0.00    +0.000 A 
ATOM      3  C   UNL     1       1.361   3.866  19.042  0.00  0.00    +0.000 A 
ATOM      4  C   UNL     1       0.860   2.758  19.738  0.00  0.00    +0.000 A 
ATOM      5  C   UNL     1       1.246   2.532  21.054  0.00  0.00    +0.000 A 
ATOM      6  C   UNL     1       2.116   3.419  21.679  0.00  0.00    +0.000 A 
ATOM      7  C   UNL     1       2.619   4.526  20.988  0.00  0.00    +0.000 A 
ENDBRANCH   1   2
BRANCH   1   8
ATOM      8  C   UNL     1       2.402   7.199  18.962  0.00  0.00    +0.000 A 
ATOM      9  C   UNL     1       1.768   7.729  20.105  0.00  0.00    +0.000 A 
ATOM     10  C   UNL     1       1.224   9.018  20.133  0.00  0.00    +0.000 A 
ATOM     11  C   UNL     1       1.325   9.832  19.012  0.00  0.00    +0.000 A 
ATOM     12  C   UNL     1       1.966   9.355  17.878  0.00  0.00    +0.000 A 
ATOM     13  C   UNL     1       2.498   8.056  17.852  0.00  0.00    +0.000 A 
ENDBRANCH   1   8
BRANCH   1  14
ATOM     14  N   UNL     1       4.308   5.824  19.102  0.00  0.00    +0.000 N 
ATOM     15  H   UNL     1       4.648   6.601  19.645  0.00  0.00    +0.000 HD
BRANCH  14  16
ATOM     16  C   UNL     1       5.171   5.127  18.293  0.00  0.00    +0.000 C 
ATOM     17  S   UNL     1       4.923   4.683  16.700  0.00  0.00    +0.000 S 
BRANCH  16  18
ATOM     18  N   UNL     1       6.370   4.809  18.879  0.00  0.00    +0.000 N 
ATOM     19  H   UNL     1       6.317   4.091  19.592  0.00  0.00    +0.000 HD
BRANCH  18  20
ATOM     20  C   UNL     1       7.699   5.242  18.489  0.00  0.00    +0.000 C 
BRANCH  20  22
ATOM     21  C   UNL     1       7.628   7.581  17.480  0.00  0.00    +0.000 C 
ATOM     22  C   UNL     1       7.805   6.736  18.506  0.00  0.00    +0.000 C 
ENDBRANCH  20  22
ENDBRANCH  18  20
ENDBRANCH  16  18
ENDBRANCH  14  16
ENDBRANCH   1  14
TORSDOF 7
ENDMDL
MODEL 3
REMARK VINA RESULT:      -7.0      1.978      4.352
REMARK  Name = 
REMARK  7 active torsions:
REMARK  status: ('A' for Active; 'I' for Inactive)
REMARK    1  A    between atoms: C_2  and  C_3
REMARK    2  A    between atoms: C_3  and  N_4
REMARK    3  A    between atoms: N_4  and  C_5
REMARK    4  A    between atoms: C_5  and  N_7
REMARK    5  A    between atoms: N_7  and  N_8
REMARK    6  A    between atoms: N_8  and  C_9
REMARK    7  A    between atoms: N_8  and  C_15
REMARK                            x       y       z     vdW  Elec       q    Type
REMARK                         _______ _______ _______ _____ _____    ______ ____
ROOT
ATOM      1  N   UNL     1       2.817   5.937  19.032  0.00  0.00    +0.000 N 
ENDROOT
BRANCH   1   2
ATOM      2  C   UNL     1       2.343   7.299  19.031  0.00  0.00    +0.000 A 
ATOM      3  C   UNL     1       2.403   8.136  17.897  0.00  0.00    +0.000 A 
ATOM      4  C   UNL     1       1.830   9.413  17.904  0.00  0.00    +0.000 A 
ATOM      5  C   UNL     1       1.207   9.889  19.052  0.00  0.00    +0.000 A 
ATOM      6  C   UNL     1       1.172   9.098  20.195  0.00  0.00    +0.000 A 
ATOM      7  C   UNL     1       1.743   7.821  20.192  0.00  0.00    +0.000 A 
ENDBRANCH   1   2
BRANCH   1   8
ATOM      8  C   UNL     1       4.101   5.551  18.480  0.00  0.00    +0.000 A 
ATOM      9  C   UNL     1       5.253   5.439  19.286  0.00  0.00    +0.000 A 
ATOM     10  C   UNL     1       6.511   5.126  18.758  0.00  0.00    +0.000 A 
ATOM     11  C   UNL     1       6.647   4.887  17.397  0.00  0.00    +0.000 A 
ATOM     12  C   UNL     1       5.530   4.960  16.577  0.00  0.00    +0.000 A 
ATOM     13  C   UNL     1       4.273   5.288  17.110  0.00  0.00    +0.000 A 
ENDBRANCH   1   8
BRANCH   1  14
ATOM     14  N   UNL     1       2.610   5.322  20.287  0.00  0.00    +0.000 N 
ATOM     15  H   UNL     1       3.216   5.678  21.007  0.00  0.00    +0.000 HD
BRANCH  14  16
ATOM     16  C   UNL     1       2.000   4.103  20.450  0.00  0.00    +0.000 C 
ATOM     17  S   UNL     1       2.161   3.060  21.746  0.00  0.00    +0.000 S 
BRANCH  16  18
ATOM     18  N   UNL     1       1.146   3.753  19.434  0.00  0.00    +0.000 N 
ATOM     19  H   UNL     1       0.570   4.509  19.084  0.00  0.00    +0.000 HD
BRANCH  18  20
ATOM     20  C   UNL     1       1.093   2.501  18.701  0.00  0.00    +0.000 C 
BRANCH  20  22
ATOM     21  C   UNL     1       3.461   1.723  18.168  0.00  0.00    +0.000 C 
ATOM     22  C   UNL     1       2.309   2.328  17.844  0.00  0.00    +0.000 C 
ENDBRANCH  20  22
ENDBRANCH  18  20
ENDBRANCH  16  18
ENDBRANCH  14  16
ENDBRANCH   1  14
TORSDOF 7
ENDMDL
MODEL 4
REMARK VINA RESULT:      -7.0      1.650      2.042
REMARK  Name = 
REMARK  7 active torsions:
REMARK  status: ('A' for Active; 'I' for Inactive)
REMARK    1  A    between atoms: C_2  and  C_3
REMARK    2  A    between atoms: C_3  and  N_4
REMARK    3  A    between atoms: N_4  and  C_5
REMARK    4  A    between atoms: C_5  and  N_7
REMARK    5  A    between atoms: N_7  and  N_8
REMARK    6  A    between atoms: N_8  and  C_9
REMARK    7  A    between atoms: N_8  and  C_15
REMARK                            x       y       z     vdW  Elec       q    Type
REMARK                         _______ _______ _______ _____ _____    ______ ____
ROOT
ATOM      1  N   UNL     1       2.921   6.223  19.062  0.00  0.00    +0.000 N 
ENDROOT
BRANCH   1   2
ATOM      2  C   UNL     1       2.278   7.514  19.082  0.00  0.00    +0.000 A 
ATOM      3  C   UNL     1       2.148   8.328  17.937  0.00  0.00    +0.000 A 
ATOM      4  C   UNL     1       1.418   9.523  17.973  0.00  0.00    +0.000 A 
ATOM      5  C   UNL     1       0.826   9.940  19.159  0.00  0.00    +0.000 A 
ATOM      6  C   UNL     1       0.977   9.174  20.311  0.00  0.00    +0.000 A 
ATOM      7  C   UNL     1       1.704   7.980  20.279  0.00  0.00    +0.000 A 
ENDBRANCH   1   2
BRANCH   1   8
ATOM      8  C   UNL     1       2.308   5.031  19.615  0.00  0.00    +0.000 A 
ATOM      9  C   UNL     1       2.465   4.674  20.971  0.00  0.00    +0.000 A 
ATOM     10  C   UNL     1       1.929   3.496  21.504  0.00  0.00    +0.000 A 
ATOM     11  C   UNL     1       1.190   2.646  20.692  0.00  0.00    +0.000 A 
ATOM     12  C   UNL     1       0.990   2.979  19.360  0.00  0.00    +0.000 A 
ATOM     13  C   UNL     1       1.542   4.155  18.826  0.00  0.00    +0.000 A 
ENDBRANCH   1   8
BRANCH   1  14
ATOM     14  N   UNL     1       3.487   5.950  17.797  0.00  0.00    +0.000 N 
ATOM     15  H   UNL     1       2.798   5.805  17.078  0.00  0.00    +0.000 HD
BRANCH  14  16
ATOM     16  C   UNL     1       4.769   5.495  17.615  0.00  0.00    +0.000 C 
ATOM     17  S   UNL     1       5.924   5.236  18.796  0.00  0.00    +0.000 S 
BRANCH  16  18
ATOM     18  N   UNL     1       5.089   5.197  16.314  0.00  0.00    +0.000 N 
ATOM     19  H   UNL     1       4.913   5.943  15.652  0.00  0.00    +0.000 HD
BRANCH  18  20
ATOM     20  C   UNL     1       5.796   4.033  15.811  0.00  0.00    +0.000 C 
BRANCH  20  22
ATOM     21  C   UNL     1       6.158   3.755  13.304  0.00  0.00    +0.000 C 
ATOM     22  C   UNL     1       6.434   4.322  14.487  0.00  0.00    +0.000 C 
ENDBRANCH  20  22
ENDBRANCH  18  20
ENDBRANCH  16  18
ENDBRANCH  14  16
ENDBRANCH   1  14
TORSDOF 7
ENDMDL
MODEL 5
REMARK VINA RESULT:      -7.0      1.762      2.514
REMARK  Name = 
REMARK  7 active torsions:
REMARK  status: ('A' for Active; 'I' for Inactive)
REMARK    1  A    between atoms: C_2  and  C_3
REMARK    2  A    between atoms: C_3  and  N_4
REMARK    3  A    between atoms: N_4  and  C_5
REMARK    4  A    between atoms: C_5  and  N_7
REMARK    5  A    between atoms: N_7  and  N_8
REMARK    6  A    between atoms: N_8  and  C_9
REMARK    7  A    between atoms: N_8  and  C_15
REMARK                            x       y       z     vdW  Elec       q    Type
REMARK                         _______ _______ _______ _____ _____    ______ ____
ROOT
ATOM      1  N   UNL     1       4.095   5.781  18.022  0.00  0.00    +0.000 N 
ENDROOT
BRANCH   1   2
ATOM      2  C   UNL     1       3.158   6.803  18.421  0.00  0.00    +0.000 A 
ATOM      3  C   UNL     1       2.512   6.808  19.675  0.00  0.00    +0.000 A 
ATOM      4  C   UNL     1       1.697   7.877  20.068  0.00  0.00    +0.000 A 
ATOM      5  C   UNL     1       1.491   8.948  19.207  0.00  0.00    +0.000 A 
ATOM      6  C   UNL     1       2.085   8.944  17.949  0.00  0.00    +0.000 A 
ATOM      7  C   UNL     1       2.900   7.879  17.552  0.00  0.00    +0.000 A 
ENDBRANCH   1   2
BRANCH   1   8
ATOM      8  C   UNL     1       3.848   4.366  18.221  0.00  0.00    +0.000 A 
ATOM      9  C   UNL     1       2.946   3.648  17.409  0.00  0.00    +0.000 A 
ATOM     10  C   UNL     1       2.652   2.297  17.627  0.00  0.00    +0.000 A 
ATOM     11  C   UNL     1       3.281   1.612  18.658  0.00  0.00    +0.000 A 
ATOM     12  C   UNL     1       4.197   2.279  19.460  0.00  0.00    +0.000 A 
ATOM     13  C   UNL     1       4.477   3.638  19.246  0.00  0.00    +0.000 A 
ENDBRANCH   1   8
BRANCH   1  14
ATOM     14  N   UNL     1       4.593   6.021  16.721  0.00  0.00    +0.000 N 
ATOM     15  H   UNL     1       3.870   6.065  16.022  0.00  0.00    +0.000 HD
BRANCH  14  16
ATOM     16  C   UNL     1       5.892   5.787  16.345  0.00  0.00    +0.000 C 
ATOM     17  S   UNL     1       6.512   4.387  15.674  0.00  0.00    +0.000 S 
BRANCH  16  18
ATOM     18  N   UNL     1       6.738   6.854  16.522  0.00  0.00    +0.000 N 
ATOM     19  H   UNL     1       6.769   7.504  15.746  0.00  0.00    +0.000 HD
BRANCH  18  20
ATOM     20  C   UNL     1       7.443   7.246  17.728  0.00  0.00    +0.000 C 
BRANCH  20  22
ATOM     21  C   UNL     1       8.690   9.336  18.485  0.00  0.00    +0.000 C 
ATOM     22  C   UNL     1       7.839   8.690  17.675  0.00  0.00    +0.000 C 
ENDBRANCH  20  22
ENDBRANCH  18  20
ENDBRANCH  16  18
ENDBRANCH  14  16
ENDBRANCH   1  14
TORSDOF 7
ENDMDL
MODEL 6
REMARK VINA RESULT:      -6.9      1.623      2.239
REMARK  Name = 
REMARK  7 active torsions:
REMARK  status: ('A' for Active; 'I' for Inactive)
REMARK    1  A    between atoms: C_2  and  C_3
REMARK    2  A    between atoms: C_3  and  N_4
REMARK    3  A    between atoms: N_4  and  C_5
REMARK    4  A    between atoms: C_5  and  N_7
REMARK    5  A    between atoms: N_7  and  N_8
REMARK    6  A    between atoms: N_8  and  C_9
REMARK    7  A    between atoms: N_8  and  C_15
REMARK                            x       y       z     vdW  Elec       q    Type
REMARK                         _______ _______ _______ _____ _____    ______ ____
ROOT
ATOM      1  N   UNL     1       3.013   6.231  18.978  0.00  0.00    +0.000 N 
ENDROOT
BRANCH   1   2
ATOM      2  C   UNL     1       2.366   7.520  19.012  0.00  0.00    +0.000 A 
ATOM      3  C   UNL     1       2.272   8.365  17.887  0.00  0.00    +0.000 A 
ATOM      4  C   UNL     1       1.538   9.557  17.932  0.00  0.00    +0.000 A 
ATOM      5  C   UNL     1       0.906   9.940  19.109  0.00  0.00    +0.000 A 
ATOM      6  C   UNL     1       1.020   9.143  20.243  0.00  0.00    +0.000 A 
ATOM      7  C   UNL     1       1.751   7.951  20.202  0.00  0.00    +0.000 A 
ENDBRANCH   1   2
BRANCH   1   8
ATOM      8  C   UNL     1       2.334   5.001  19.339  0.00  0.00    +0.000 A 
ATOM      9  C   UNL     1       1.785   4.142  18.365  0.00  0.00    +0.000 A 
ATOM     10  C   UNL     1       1.075   2.983  18.699  0.00  0.00    +0.000 A 
ATOM     11  C   UNL     1       0.918   2.633  20.034  0.00  0.00    +0.000 A 
ATOM     12  C   UNL     1       1.469   3.439  21.020  0.00  0.00    +0.000 A 
ATOM     13  C   UNL     1       2.168   4.609  20.679  0.00  0.00    +0.000 A 
ENDBRANCH   1   8
BRANCH   1  14
ATOM     14  N   UNL     1       3.754   6.059  17.788  0.00  0.00    +0.000 N 
ATOM     15  H   UNL     1       3.175   5.877  16.984  0.00  0.00    +0.000 HD
BRANCH  14  16
ATOM     16  C   UNL     1       5.087   5.732  17.757  0.00  0.00    +0.000 C 
ATOM     17  S   UNL     1       6.045   5.284  19.052  0.00  0.00    +0.000 S 
BRANCH  16  18
ATOM     18  N   UNL     1       5.650   5.751  16.506  0.00  0.00    +0.000 N 
ATOM     19  H   UNL     1       5.422   6.567  15.950  0.00  0.00    +0.000 HD
BRANCH  18  20
ATOM     20  C   UNL     1       6.650   4.851  15.961  0.00  0.00    +0.000 C 
BRANCH  20  22
ATOM     21  C   UNL     1       6.192   3.938  13.626  0.00  0.00    +0.000 C 
ATOM     22  C   UNL     1       6.043   3.917  14.959  0.00  0.00    +0.000 C 
ENDBRANCH  20  22
ENDBRANCH  18  20
ENDBRANCH  16  18
ENDBRANCH  14  16
ENDBRANCH   1  14
TORSDOF 7
ENDMDL
MODEL 7
REMARK VINA RESULT:      -6.9      0.646      4.345
REMARK  Name = 
REMARK  7 active torsions:
REMARK  status: ('A' for Active; 'I' for Inactive)
REMARK    1  A    between atoms: C_2  and  C_3
REMARK    2  A    between atoms: C_3  and  N_4
REMARK    3  A    between atoms: N_4  and  C_5
REMARK    4  A    between atoms: C_5  and  N_7
REMARK    5  A    between atoms: N_7  and  N_8
REMARK    6  A    between atoms: N_8  and  C_9
REMARK    7  A    between atoms: N_8  and  C_15
REMARK                            x       y       z     vdW  Elec       q    Type
REMARK                         _______ _______ _______ _____ _____    ______ ____
ROOT
ATOM      1  N   UNL     1       2.948   5.949  19.060  0.00  0.00    +0.000 N 
ENDROOT
BRANCH   1   2
ATOM      2  C   UNL     1       2.298   4.841  19.717  0.00  0.00    +0.000 A 
ATOM      3  C   UNL     1       1.394   3.978  19.061  0.00  0.00    +0.000 A 
ATOM      4  C   UNL     1       0.873   2.848  19.702  0.00  0.00    +0.000 A 
ATOM      5  C   UNL     1       1.224   2.571  21.018  0.00  0.00    +0.000 A 
ATOM      6  C   UNL     1       2.081   3.430  21.698  0.00  0.00    +0.000 A 
ATOM      7  C   UNL     1       2.605   4.560  21.061  0.00  0.00    +0.000 A 
ENDBRANCH   1   2
BRANCH   1   8
ATOM      8  C   UNL     1       2.363   7.274  18.991  0.00  0.00    +0.000 A 
ATOM      9  C   UNL     1       2.502   8.089  17.848  0.00  0.00    +0.000 A 
ATOM     10  C   UNL     1       1.995   9.392  17.789  0.00  0.00    +0.000 A 
ATOM     11  C   UNL     1       1.303   9.912  18.875  0.00  0.00    +0.000 A 
ATOM     12  C   UNL     1       1.122   9.130  20.007  0.00  0.00    +0.000 A 
ATOM     13  C   UNL     1       1.646   7.828  20.066  0.00  0.00    +0.000 A 
ENDBRANCH   1   8
BRANCH   1  14
ATOM     14  N   UNL     1       4.314   6.026  19.413  0.00  0.00    +0.000 N 
ATOM     15  H   UNL     1       4.549   6.874  19.902  0.00  0.00    +0.000 HD
BRANCH  14  16
ATOM     16  C   UNL     1       5.302   5.290  18.808  0.00  0.00    +0.000 C 
ATOM     17  S   UNL     1       5.170   4.381  17.411  0.00  0.00    +0.000 S 
BRANCH  16  18
ATOM     18  N   UNL     1       6.525   5.360  19.427  0.00  0.00    +0.000 N 
ATOM     19  H   UNL     1       6.551   4.969  20.361  0.00  0.00    +0.000 HD
BRANCH  18  20
ATOM     20  C   UNL     1       7.796   5.760  18.852  0.00  0.00    +0.000 C 
BRANCH  20  22
ATOM     21  C   UNL     1       7.799   8.102  17.848  0.00  0.00    +0.000 C 
ATOM     22  C   UNL     1       7.602   6.778  17.771  0.00  0.00    +0.000 C 
ENDBRANCH  20  22
ENDBRANCH  18  20
ENDBRANCH  16  18
ENDBRANCH  14  16
ENDBRANCH   1  14
TORSDOF 7
ENDMDL
MODEL 8
REMARK VINA RESULT:      -6.9      0.488      1.176
REMARK  Name = 
REMARK  7 active torsions:
REMARK  status: ('A' for Active; 'I' for Inactive)
REMARK    1  A    between atoms: C_2  and  C_3
REMARK    2  A    between atoms: C_3  and  N_4
REMARK    3  A    between atoms: N_4  and  C_5
REMARK    4  A    between atoms: C_5  and  N_7
REMARK    5  A    between atoms: N_7  and  N_8
REMARK    6  A    between atoms: N_8  and  C_9
REMARK    7  A    between atoms: N_8  and  C_15
REMARK                            x       y       z     vdW  Elec       q    Type
REMARK                         _______ _______ _______ _____ _____    ______ ____
ROOT
ATOM      1  N   UNL     1       2.991   6.251  19.077  0.00  0.00    +0.000 N 
ENDROOT
BRANCH   1   2
ATOM      2  C   UNL     1       2.309   7.522  19.092  0.00  0.00    +0.000 A 
ATOM      3  C   UNL     1       2.138   8.319  17.940  0.00  0.00    +0.000 A 
ATOM      4  C   UNL     1       1.373   9.491  17.974  0.00  0.00    +0.000 A 
ATOM      5  C   UNL     1       0.786   9.904  19.164  0.00  0.00    +0.000 A 
ATOM      6  C   UNL     1       0.976   9.156  20.322  0.00  0.00    +0.000 A 
ATOM      7  C   UNL     1       1.739   7.984  20.292  0.00  0.00    +0.000 A 
ENDBRANCH   1   2
BRANCH   1   8
ATOM      8  C   UNL     1       2.399   5.035  19.602  0.00  0.00    +0.000 A 
ATOM      9  C   UNL     1       1.542   4.230  18.824  0.00  0.00    +0.000 A 
ATOM     10  C   UNL     1       0.916   3.087  19.336  0.00  0.00    +0.000 A 
ATOM     11  C   UNL     1       1.155   2.700  20.648  0.00  0.00    +0.000 A 
ATOM     12  C   UNL     1       2.015   3.452  21.435  0.00  0.00    +0.000 A 
ATOM     13  C   UNL     1       2.629   4.606  20.921  0.00  0.00    +0.000 A 
ENDBRANCH   1   8
BRANCH   1  14
ATOM     14  N   UNL     1       3.597   6.008  17.824  0.00  0.00    +0.000 N 
ATOM     15  H   UNL     1       2.979   6.172  17.047  0.00  0.00    +0.000 HD
BRANCH  14  16
ATOM     16  C   UNL     1       4.716   5.231  17.655  0.00  0.00    +0.000 C 
ATOM     17  S   UNL     1       4.807   3.746  16.891  0.00  0.00    +0.000 S 
BRANCH  16  18
ATOM     18  N   UNL     1       5.873   5.782  18.147  0.00  0.00    +0.000 N 
ATOM     19  H   UNL     1       5.908   5.864  19.156  0.00  0.00    +0.000 HD
BRANCH  18  20
ATOM     20  C   UNL     1       7.093   6.094  17.425  0.00  0.00    +0.000 C 
BRANCH  20  22
ATOM     21  C   UNL     1       7.876   8.504  17.700  0.00  0.00    +0.000 C 
ATOM     22  C   UNL     1       7.833   7.219  18.081  0.00  0.00    +0.000 C 
ENDBRANCH  20  22
ENDBRANCH  18  20
ENDBRANCH  16  18
ENDBRANCH  14  16
ENDBRANCH   1  14
TORSDOF 7
ENDMDL
MODEL 9
REMARK VINA RESULT:      -6.9      1.332      5.351
REMARK  Name = 
REMARK  7 active torsions:
REMARK  status: ('A' for Active; 'I' for Inactive)
REMARK    1  A    between atoms: C_2  and  C_3
REMARK    2  A    between atoms: C_3  and  N_4
REMARK    3  A    between atoms: N_4  and  C_5
REMARK    4  A    between atoms: C_5  and  N_7
REMARK    5  A    between atoms: N_7  and  N_8
REMARK    6  A    between atoms: N_8  and  C_9
REMARK    7  A    between atoms: N_8  and  C_15
REMARK                            x       y       z     vdW  Elec       q    Type
REMARK                         _______ _______ _______ _____ _____    ______ ____
ROOT
ATOM      1  N   UNL     1       3.352   5.880  18.652  0.00  0.00    +0.000 N 
ENDROOT
BRANCH   1   2
ATOM      2  C   UNL     1       4.764   5.926  18.362  0.00  0.00    +0.000 A 
ATOM      3  C   UNL     1       5.295   6.537  17.207  0.00  0.00    +0.000 A 
ATOM      4  C   UNL     1       6.677   6.659  17.019  0.00  0.00    +0.000 A 
ATOM      5  C   UNL     1       7.556   6.151  17.969  0.00  0.00    +0.000 A 
ATOM      6  C   UNL     1       7.055   5.507  19.096  0.00  0.00    +0.000 A 
ATOM      7  C   UNL     1       5.675   5.384  19.288  0.00  0.00    +0.000 A 
ENDBRANCH   1   2
BRANCH   1   8
ATOM      8  C   UNL     1       2.555   7.072  18.870  0.00  0.00    +0.000 A 
ATOM      9  C   UNL     1       2.283   7.985  17.830  0.00  0.00    +0.000 A 
ATOM     10  C   UNL     1       1.567   9.169  18.038  0.00  0.00    +0.000 A 
ATOM     11  C   UNL     1       1.075   9.463  19.303  0.00  0.00    +0.000 A 
ATOM     12  C   UNL     1       1.298   8.575  20.345  0.00  0.00    +0.000 A 
ATOM     13  C   UNL     1       2.030   7.395  20.133  0.00  0.00    +0.000 A 
ENDBRANCH   1   8
BRANCH   1  14
ATOM     14  N   UNL     1       2.679   4.983  17.792  0.00  0.00    +0.000 N 
ATOM     15  H   UNL     1       2.141   5.448  17.078  0.00  0.00    +0.000 HD
BRANCH  14  16
ATOM     16  C   UNL     1       2.405   3.678  18.112  0.00  0.00    +0.000 C 
ATOM     17  S   UNL     1       3.386   2.348  17.855  0.00  0.00    +0.000 S 
BRANCH  16  18
ATOM     18  N   UNL     1       1.201   3.486  18.742  0.00  0.00    +0.000 N 
ATOM     19  H   UNL     1       0.549   2.894  18.242  0.00  0.00    +0.000 HD
BRANCH  18  20
ATOM     20  C   UNL     1       0.823   3.878  20.088  0.00  0.00    +0.000 C 
BRANCH  20  22
ATOM     21  C   UNL     1       2.489   2.740  21.645  0.00  0.00    +0.000 C 
ATOM     22  C   UNL     1       1.274   2.861  21.091  0.00  0.00    +0.000 C 
ENDBRANCH  20  22
ENDBRANCH  18  20
ENDBRANCH  16  18
ENDBRANCH  14  16
ENDBRANCH   1  14
TORSDOF 7
ENDMDL
