MODEL 1
REMARK VINA RESULT:      -8.1      0.000      0.000
REMARK  Name = 
REMARK  4 active torsions:
REMARK  status: ('A' for Active; 'I' for Inactive)
REMARK    1  A    between atoms: C_1  and  C_2
REMARK    2  A    between atoms: C_6  and  N_7
REMARK    3  A    between atoms: C_10  and  C_11
REMARK    4  A    between atoms: C_11  and  N_12
REMARK                            x       y       z     vdW  Elec       q    Type
REMARK                         _______ _______ _______ _____ _____    ______ ____
ROOT
ATOM      1  C   UNL     1       1.594   8.216  20.266  0.00  0.00    +0.000 C 
ATOM      2  C   UNL     1       2.109   6.835  19.987  0.00  0.00    +0.000 A 
ATOM      3  N   UNL     1       1.428   5.814  20.546  0.00  0.00    +0.000 NA
ATOM      4  C   UNL     1       1.910   4.585  20.315  0.00  0.00    +0.000 A 
ATOM      5  C   UNL     1       3.052   4.337  19.552  0.00  0.00    +0.000 A 
ATOM      6  C   UNL     1       3.641   5.448  18.944  0.00  0.00    +0.000 A 
ATOM      7  N   UNL     1       3.184   6.691  19.202  0.00  0.00    +0.000 NA
ATOM      8  C   UNL     1       3.596   2.933  19.484  0.00  0.00    +0.000 C 
ATOM      9  C   UNL     1       4.048   2.376  20.829  0.00  0.00    +0.000 C 
ATOM     10  N   UNL     1       2.967   1.813  21.632  0.00  0.00    +0.000 NA
ATOM     11  C   UNL     1       2.015   2.832  22.093  0.00  0.00    +0.000 C 
ATOM     12  C   UNL     1       1.173   3.453  20.978  0.00  0.00    +0.000 C 
ATOM     13  H   UNL     1       3.387   1.372  22.452  0.00  0.00    +0.000 HD
ENDROOT
BRANCH   6  14
ATOM     14  N   UNL     1       4.684   5.322  18.039  0.00  0.00    +0.000 N 
ATOM     15  C   UNL     1       6.070   5.376  18.496  0.00  0.00    +0.000 C 
ATOM     16  C   UNL     1       6.850   6.409  17.684  0.00  0.00    +0.000 C 
ATOM     17  C   UNL     1       6.714   6.200  16.163  0.00  0.00    +0.000 C 
ATOM     18  C   UNL     1       5.224   6.269  15.822  0.00  0.00    +0.000 C 
ATOM     19  C   UNL     1       4.429   5.244  16.603  0.00  0.00    +0.000 C 
BRANCH  17  20
ATOM     20  C   UNL     1       7.334   4.884  15.637  0.00  0.00    +0.000 C 
BRANCH  20  21
ATOM     21  N   UNL     1       7.146   4.666  14.214  0.00  0.00    +0.000 N 
ATOM     22  C   UNL     1       6.186   3.730  13.683  0.00  0.00    +0.000 C 
ATOM     23  C   UNL     1       6.605   3.574  12.230  0.00  0.00    +0.000 C 
ATOM     24  C   UNL     1       7.266   4.905  11.903  0.00  0.00    +0.000 C 
ATOM     25  C   UNL     1       7.908   5.262  13.218  0.00  0.00    +0.000 C 
ATOM     26  O   UNL     1       8.876   5.989  13.363  0.00  0.00    +0.000 OA
ENDBRANCH  20  21
ENDBRANCH  17  20
ENDBRANCH   6  14
TORSDOF 3
ENDMDL
MODEL 2
REMARK VINA RESULT:      -7.7      1.153      3.188
REMARK  Name = 
REMARK  4 active torsions:
REMARK  status: ('A' for Active; 'I' for Inactive)
REMARK    1  A    between atoms: C_1  and  C_2
REMARK    2  A    between atoms: C_6  and  N_7
REMARK    3  A    between atoms: C_10  and  C_11
REMARK    4  A    between atoms: C_11  and  N_12
REMARK                            x       y       z     vdW  Elec       q    Type
REMARK                         _______ _______ _______ _____ _____    ______ ____
ROOT
ATOM      1  C   UNL     1       1.460   3.123  21.123  0.00  0.00    +0.000 C 
ATOM      2  C   UNL     1       2.029   4.349  20.470  0.00  0.00    +0.000 A 
ATOM      3  N   UNL     1       1.563   5.536  20.908  0.00  0.00    +0.000 NA
ATOM      4  C   UNL     1       2.055   6.625  20.302  0.00  0.00    +0.000 A 
ATOM      5  C   UNL     1       2.992   6.573  19.268  0.00  0.00    +0.000 A 
ATOM      6  C   UNL     1       3.479   5.306  18.940  0.00  0.00    +0.000 A 
ATOM      7  N   UNL     1       2.961   4.203  19.520  0.00  0.00    +0.000 NA
ATOM      8  C   UNL     1       3.362   7.846  18.552  0.00  0.00    +0.000 C 
ATOM      9  C   UNL     1       2.199   8.511  17.825  0.00  0.00    +0.000 C 
ATOM     10  N   UNL     1       1.365   9.350  18.680  0.00  0.00    +0.000 NA
ATOM     11  C   UNL     1       0.622   8.575  19.681  0.00  0.00    +0.000 C 
ATOM     12  C   UNL     1       1.498   7.944  20.763  0.00  0.00    +0.000 C 
ATOM     13  H   UNL     1       0.692   9.831  18.082  0.00  0.00    +0.000 HD
ENDROOT
BRANCH   6  14
ATOM     14  N   UNL     1       4.522   5.131  18.043  0.00  0.00    +0.000 N 
ATOM     15  C   UNL     1       5.899   5.042  18.521  0.00  0.00    +0.000 C 
ATOM     16  C   UNL     1       6.780   6.041  17.770  0.00  0.00    +0.000 C 
ATOM     17  C   UNL     1       6.653   5.916  16.239  0.00  0.00    +0.000 C 
ATOM     18  C   UNL     1       5.181   6.131  15.882  0.00  0.00    +0.000 C 
ATOM     19  C   UNL     1       4.287   5.144  16.602  0.00  0.00    +0.000 C 
BRANCH  17  20
ATOM     20  C   UNL     1       7.165   4.577  15.658  0.00  0.00    +0.000 C 
BRANCH  20  21
ATOM     21  N   UNL     1       7.030   4.465  14.217  0.00  0.00    +0.000 N 
ATOM     22  C   UNL     1       6.100   3.562  13.584  0.00  0.00    +0.000 C 
ATOM     23  C   UNL     1       6.571   3.518  12.140  0.00  0.00    +0.000 C 
ATOM     24  C   UNL     1       7.228   4.875  11.936  0.00  0.00    +0.000 C 
ATOM     25  C   UNL     1       7.820   5.140  13.296  0.00  0.00    +0.000 C 
ATOM     26  O   UNL     1       8.773   5.862  13.530  0.00  0.00    +0.000 OA
ENDBRANCH  20  21
ENDBRANCH  17  20
ENDBRANCH   6  14
TORSDOF 3
ENDMDL
MODEL 3
REMARK VINA RESULT:      -7.5      0.586      1.249
REMARK  Name = 
REMARK  4 active torsions:
REMARK  status: ('A' for Active; 'I' for Inactive)
REMARK    1  A    between atoms: C_1  and  C_2
REMARK    2  A    between atoms: C_6  and  N_7
REMARK    3  A    between atoms: C_10  and  C_11
REMARK    4  A    between atoms: C_11  and  N_12
REMARK                            x       y       z     vdW  Elec       q    Type
REMARK                         _______ _______ _______ _____ _____    ______ ____
ROOT
ATOM      1  C   UNL     1       1.571   8.467  20.046  0.00  0.00    +0.000 C 
ATOM      2  C   UNL     1       2.091   7.082  19.795  0.00  0.00    +0.000 A 
ATOM      3  N   UNL     1       1.446   6.075  20.416  0.00  0.00    +0.000 NA
ATOM      4  C   UNL     1       1.932   4.844  20.209  0.00  0.00    +0.000 A 
ATOM      5  C   UNL     1       3.046   4.581  19.409  0.00  0.00    +0.000 A 
ATOM      6  C   UNL     1       3.596   5.676  18.739  0.00  0.00    +0.000 A 
ATOM      7  N   UNL     1       3.136   6.922  18.972  0.00  0.00    +0.000 NA
ATOM      8  C   UNL     1       3.603   3.181  19.367  0.00  0.00    +0.000 C 
ATOM      9  C   UNL     1       4.115   2.676  20.712  0.00  0.00    +0.000 C 
ATOM     10  N   UNL     1       3.075   2.131  21.578  0.00  0.00    +0.000 NA
ATOM     11  C   UNL     1       2.130   3.156  22.041  0.00  0.00    +0.000 C 
ATOM     12  C   UNL     1       1.236   3.728  20.940  0.00  0.00    +0.000 C 
ATOM     13  H   UNL     1       3.532   1.724  22.394  0.00  0.00    +0.000 HD
ENDROOT
BRANCH   6  14
ATOM     14  N   UNL     1       4.602   5.528  17.796  0.00  0.00    +0.000 N 
ATOM     15  C   UNL     1       4.317   4.915  16.502  0.00  0.00    +0.000 C 
ATOM     16  C   UNL     1       5.304   3.780  16.229  0.00  0.00    +0.000 C 
ATOM     17  C   UNL     1       6.774   4.216  16.390  0.00  0.00    +0.000 C 
ATOM     18  C   UNL     1       6.943   4.739  17.818  0.00  0.00    +0.000 C 
ATOM     19  C   UNL     1       5.986   5.875  18.109  0.00  0.00    +0.000 C 
BRANCH  17  20
ATOM     20  C   UNL     1       7.248   5.272  15.363  0.00  0.00    +0.000 C 
BRANCH  20  21
ATOM     21  N   UNL     1       7.137   4.845  13.980  0.00  0.00    +0.000 N 
ATOM     22  C   UNL     1       6.217   3.822  13.546  0.00  0.00    +0.000 C 
ATOM     23  C   UNL     1       6.714   3.463  12.154  0.00  0.00    +0.000 C 
ATOM     24  C   UNL     1       7.374   4.744  11.668  0.00  0.00    +0.000 C 
ATOM     25  C   UNL     1       7.943   5.303  12.946  0.00  0.00    +0.000 C 
ATOM     26  O   UNL     1       8.892   6.063  13.031  0.00  0.00    +0.000 OA
ENDBRANCH  20  21
ENDBRANCH  17  20
ENDBRANCH   6  14
TORSDOF 3
ENDMDL
MODEL 4
REMARK VINA RESULT:      -7.2      1.317      3.514
REMARK  Name = 
REMARK  4 active torsions:
REMARK  status: ('A' for Active; 'I' for Inactive)
REMARK    1  A    between atoms: C_1  and  C_2
REMARK    2  A    between atoms: C_6  and  N_7
REMARK    3  A    between atoms: C_10  and  C_11
REMARK    4  A    between atoms: C_11  and  N_12
REMARK                            x       y       z     vdW  Elec       q    Type
REMARK                         _______ _______ _______ _____ _____    ______ ____
ROOT
ATOM      1  C   UNL     1       1.592   3.439  21.229  0.00  0.00    +0.000 C 
ATOM      2  C   UNL     1       2.055   4.675  20.514  0.00  0.00    +0.000 A 
ATOM      3  N   UNL     1       1.561   5.848  20.958  0.00  0.00    +0.000 NA
ATOM      4  C   UNL     1       1.957   6.944  20.298  0.00  0.00    +0.000 A 
ATOM      5  C   UNL     1       2.825   6.913  19.205  0.00  0.00    +0.000 A 
ATOM      6  C   UNL     1       3.352   5.663  18.871  0.00  0.00    +0.000 A 
ATOM      7  N   UNL     1       2.928   4.551  19.507  0.00  0.00    +0.000 NA
ATOM      8  C   UNL     1       3.084   8.185  18.439  0.00  0.00    +0.000 C 
ATOM      9  C   UNL     1       1.844   8.776  17.778  0.00  0.00    +0.000 C 
ATOM     10  N   UNL     1       1.028   9.594  18.669  0.00  0.00    +0.000 NA
ATOM     11  C   UNL     1       0.391   8.808  19.734  0.00  0.00    +0.000 C 
ATOM     12  C   UNL     1       1.368   8.247  20.768  0.00  0.00    +0.000 C 
ATOM     13  H   UNL     1       0.294  10.027  18.108  0.00  0.00    +0.000 HD
ENDROOT
BRANCH   6  14
ATOM     14  N   UNL     1       4.341   5.517  17.910  0.00  0.00    +0.000 N 
ATOM     15  C   UNL     1       4.029   4.916  16.616  0.00  0.00    +0.000 C 
ATOM     16  C   UNL     1       5.006   3.779  16.317  0.00  0.00    +0.000 C 
ATOM     17  C   UNL     1       6.480   4.205  16.456  0.00  0.00    +0.000 C 
ATOM     18  C   UNL     1       6.677   4.716  17.885  0.00  0.00    +0.000 C 
ATOM     19  C   UNL     1       5.731   5.854  18.202  0.00  0.00    +0.000 C 
BRANCH  17  20
ATOM     20  C   UNL     1       6.942   5.266  15.429  0.00  0.00    +0.000 C 
BRANCH  20  21
ATOM     21  N   UNL     1       6.921   4.808  14.052  0.00  0.00    +0.000 N 
ATOM     22  C   UNL     1       5.983   3.826  13.567  0.00  0.00    +0.000 C 
ATOM     23  C   UNL     1       6.570   3.401  12.230  0.00  0.00    +0.000 C 
ATOM     24  C   UNL     1       7.340   4.631  11.771  0.00  0.00    +0.000 C 
ATOM     25  C   UNL     1       7.833   5.193  13.079  0.00  0.00    +0.000 C 
ATOM     26  O   UNL     1       8.814   5.901  13.225  0.00  0.00    +0.000 OA
ENDBRANCH  20  21
ENDBRANCH  17  20
ENDBRANCH   6  14
TORSDOF 3
ENDMDL
MODEL 5
REMARK VINA RESULT:      -7.1      4.059      7.481
REMARK  Name = 
REMARK  4 active torsions:
REMARK  status: ('A' for Active; 'I' for Inactive)
REMARK    1  A    between atoms: C_1  and  C_2
REMARK    2  A    between atoms: C_6  and  N_7
REMARK    3  A    between atoms: C_10  and  C_11
REMARK    4  A    between atoms: C_11  and  N_12
REMARK                            x       y       z     vdW  Elec       q    Type
REMARK                         _______ _______ _______ _____ _____    ______ ____
ROOT
ATOM      1  C   UNL     1       7.205   5.821  18.499  0.00  0.00    +0.000 C 
ATOM      2  C   UNL     1       5.796   5.381  18.768  0.00  0.00    +0.000 A 
ATOM      3  N   UNL     1       5.628   4.098  19.147  0.00  0.00    +0.000 NA
ATOM      4  C   UNL     1       4.365   3.704  19.359  0.00  0.00    +0.000 A 
ATOM      5  C   UNL     1       3.260   4.543  19.201  0.00  0.00    +0.000 A 
ATOM      6  C   UNL     1       3.538   5.876  18.889  0.00  0.00    +0.000 A 
ATOM      7  N   UNL     1       4.804   6.270  18.637  0.00  0.00    +0.000 NA
ATOM      8  C   UNL     1       1.876   3.959  19.314  0.00  0.00    +0.000 C 
ATOM      9  C   UNL     1       1.560   2.901  18.263  0.00  0.00    +0.000 C 
ATOM     10  N   UNL     1       2.044   1.566  18.600  0.00  0.00    +0.000 NA
ATOM     11  C   UNL     1       3.510   1.481  18.605  0.00  0.00    +0.000 C 
ATOM     12  C   UNL     1       4.179   2.260  19.738  0.00  0.00    +0.000 C 
ATOM     13  H   UNL     1       1.687   0.920  17.895  0.00  0.00    +0.000 HD
ENDROOT
BRANCH   6  14
ATOM     14  N   UNL     1       2.545   6.844  18.858  0.00  0.00    +0.000 N 
ATOM     15  C   UNL     1       2.332   7.643  17.655  0.00  0.00    +0.000 C 
ATOM     16  C   UNL     1       2.342   9.132  18.005  0.00  0.00    +0.000 C 
ATOM     17  C   UNL     1       1.375   9.481  19.153  0.00  0.00    +0.000 C 
ATOM     18  C   UNL     1       1.783   8.644  20.367  0.00  0.00    +0.000 C 
ATOM     19  C   UNL     1       1.767   7.164  20.051  0.00  0.00    +0.000 C 
BRANCH  17  20
ATOM     20  C   UNL     1      -0.121   9.267  18.821  0.00  0.00    +0.000 C 
BRANCH  20  21
ATOM     21  N   UNL     1      -0.947  10.445  19.020  0.00  0.00    +0.000 N 
ATOM     22  C   UNL     1      -0.564  11.535  19.883  0.00  0.00    +0.000 C 
ATOM     23  C   UNL     1      -1.856  12.316  20.065  0.00  0.00    +0.000 C 
ATOM     24  C   UNL     1      -2.627  12.035  18.784  0.00  0.00    +0.000 C 
ATOM     25  C   UNL     1      -2.213  10.620  18.478  0.00  0.00    +0.000 C 
ATOM     26  O   UNL     1      -2.854   9.816  17.823  0.00  0.00    +0.000 OA
ENDBRANCH  20  21
ENDBRANCH  17  20
ENDBRANCH   6  14
TORSDOF 3
ENDMDL
MODEL 6
REMARK VINA RESULT:      -6.9      3.576      7.596
REMARK  Name = 
REMARK  4 active torsions:
REMARK  status: ('A' for Active; 'I' for Inactive)
REMARK    1  A    between atoms: C_1  and  C_2
REMARK    2  A    between atoms: C_6  and  N_7
REMARK    3  A    between atoms: C_10  and  C_11
REMARK    4  A    between atoms: C_11  and  N_12
REMARK                            x       y       z     vdW  Elec       q    Type
REMARK                         _______ _______ _______ _____ _____    ______ ____
ROOT
ATOM      1  C   UNL     1       1.459   2.766  18.506  0.00  0.00    +0.000 C 
ATOM      2  C   UNL     1       2.325   3.925  18.109  0.00  0.00    +0.000 A 
ATOM      3  N   UNL     1       3.315   3.664  17.232  0.00  0.00    +0.000 NA
ATOM      4  C   UNL     1       4.102   4.697  16.902  0.00  0.00    +0.000 A 
ATOM      5  C   UNL     1       3.942   5.983  17.422  0.00  0.00    +0.000 A 
ATOM      6  C   UNL     1       2.839   6.177  18.257  0.00  0.00    +0.000 A 
ATOM      7  N   UNL     1       2.065   5.134  18.623  0.00  0.00    +0.000 NA
ATOM      8  C   UNL     1       4.974   7.034  17.106  0.00  0.00    +0.000 C 
ATOM      9  C   UNL     1       6.371   6.709  17.624  0.00  0.00    +0.000 C 
ATOM     10  N   UNL     1       7.140   5.830  16.748  0.00  0.00    +0.000 NA
ATOM     11  C   UNL     1       6.580   4.474  16.674  0.00  0.00    +0.000 C 
ATOM     12  C   UNL     1       5.232   4.390  15.958  0.00  0.00    +0.000 C 
ATOM     13  H   UNL     1       8.086   5.767  17.125  0.00  0.00    +0.000 HD
ENDROOT
BRANCH   6  14
ATOM     14  N   UNL     1       2.478   7.436  18.713  0.00  0.00    +0.000 N 
ATOM     15  C   UNL     1       2.112   7.637  20.113  0.00  0.00    +0.000 C 
ATOM     16  C   UNL     1       0.758   8.343  20.204  0.00  0.00    +0.000 C 
ATOM     17  C   UNL     1       0.700   9.633  19.364  0.00  0.00    +0.000 C 
ATOM     18  C   UNL     1       1.005   9.251  17.914  0.00  0.00    +0.000 C 
ATOM     19  C   UNL     1       2.348   8.562  17.793  0.00  0.00    +0.000 C 
BRANCH  17  20
ATOM     20  C   UNL     1       1.651  10.756  19.843  0.00  0.00    +0.000 C 
BRANCH  20  21
ATOM     21  N   UNL     1       1.229  12.093  19.463  0.00  0.00    +0.000 N 
ATOM     22  C   UNL     1      -0.022  12.671  19.888  0.00  0.00    +0.000 C 
ATOM     23  C   UNL     1      -0.191  13.870  18.969  0.00  0.00    +0.000 C 
ATOM     24  C   UNL     1       1.238  14.262  18.626  0.00  0.00    +0.000 C 
ATOM     25  C   UNL     1       1.928  12.924  18.598  0.00  0.00    +0.000 C 
ATOM     26  O   UNL     1       2.943  12.658  17.977  0.00  0.00    +0.000 OA
ENDBRANCH  20  21
ENDBRANCH  17  20
ENDBRANCH   6  14
TORSDOF 3
ENDMDL
MODEL 7
REMARK VINA RESULT:      -6.9      0.892      1.191
REMARK  Name = 
REMARK  4 active torsions:
REMARK  status: ('A' for Active; 'I' for Inactive)
REMARK    1  A    between atoms: C_1  and  C_2
REMARK    2  A    between atoms: C_6  and  N_7
REMARK    3  A    between atoms: C_10  and  C_11
REMARK    4  A    between atoms: C_11  and  N_12
REMARK                            x       y       z     vdW  Elec       q    Type
REMARK                         _______ _______ _______ _____ _____    ______ ____
ROOT
ATOM      1  C   UNL     1       1.722   8.328  20.292  0.00  0.00    +0.000 C 
ATOM      2  C   UNL     1       2.206   6.939  19.996  0.00  0.00    +0.000 A 
ATOM      3  N   UNL     1       1.512   5.927  20.556  0.00  0.00    +0.000 NA
ATOM      4  C   UNL     1       1.966   4.691  20.310  0.00  0.00    +0.000 A 
ATOM      5  C   UNL     1       3.093   4.426  19.530  0.00  0.00    +0.000 A 
ATOM      6  C   UNL     1       3.697   5.530  18.923  0.00  0.00    +0.000 A 
ATOM      7  N   UNL     1       3.268   6.780  19.196  0.00  0.00    +0.000 NA
ATOM      8  C   UNL     1       3.608   3.012  19.445  0.00  0.00    +0.000 C 
ATOM      9  C   UNL     1       4.065   2.436  20.780  0.00  0.00    +0.000 C 
ATOM     10  N   UNL     1       2.984   1.889  21.593  0.00  0.00    +0.000 NA
ATOM     11  C   UNL     1       2.058   2.923  22.073  0.00  0.00    +0.000 C 
ATOM     12  C   UNL     1       1.215   3.569  20.974  0.00  0.00    +0.000 C 
ATOM     13  H   UNL     1       3.405   1.433  22.404  0.00  0.00    +0.000 HD
ENDROOT
BRANCH   6  14
ATOM     14  N   UNL     1       4.724   5.389  18.003  0.00  0.00    +0.000 N 
ATOM     15  C   UNL     1       6.117   5.468  18.435  0.00  0.00    +0.000 C 
ATOM     16  C   UNL     1       6.874   6.487  17.583  0.00  0.00    +0.000 C 
ATOM     17  C   UNL     1       6.714   6.237  16.070  0.00  0.00    +0.000 C 
ATOM     18  C   UNL     1       5.218   6.282  15.754  0.00  0.00    +0.000 C 
ATOM     19  C   UNL     1       4.447   5.272  16.575  0.00  0.00    +0.000 C 
BRANCH  17  20
ATOM     20  C   UNL     1       7.338   4.913  15.568  0.00  0.00    +0.000 C 
BRANCH  20  21
ATOM     21  N   UNL     1       7.328   4.762  14.124  0.00  0.00    +0.000 N 
ATOM     22  C   UNL     1       8.184   5.525  13.250  0.00  0.00    +0.000 C 
ATOM     23  C   UNL     1       7.570   5.315  11.876  0.00  0.00    +0.000 C 
ATOM     24  C   UNL     1       6.905   3.951  11.986  0.00  0.00    +0.000 C 
ATOM     25  C   UNL     1       6.453   3.943  13.423  0.00  0.00    +0.000 C 
ATOM     26  O   UNL     1       5.532   3.286  13.877  0.00  0.00    +0.000 OA
ENDBRANCH  20  21
ENDBRANCH  17  20
ENDBRANCH   6  14
TORSDOF 3
ENDMDL
MODEL 8
REMARK VINA RESULT:      -6.9      3.899      7.503
REMARK  Name = 
REMARK  4 active torsions:
REMARK  status: ('A' for Active; 'I' for Inactive)
REMARK    1  A    between atoms: C_1  and  C_2
REMARK    2  A    between atoms: C_6  and  N_7
REMARK    3  A    between atoms: C_10  and  C_11
REMARK    4  A    between atoms: C_11  and  N_12
REMARK                            x       y       z     vdW  Elec       q    Type
REMARK                         _______ _______ _______ _____ _____    ______ ____
ROOT
ATOM      1  C   UNL     1       6.653   6.287  17.362  0.00  0.00    +0.000 C 
ATOM      2  C   UNL     1       5.394   5.766  17.990  0.00  0.00    +0.000 A 
ATOM      3  N   UNL     1       5.393   4.466  18.347  0.00  0.00    +0.000 NA
ATOM      4  C   UNL     1       4.257   4.000  18.882  0.00  0.00    +0.000 A 
ATOM      5  C   UNL     1       3.116   4.783  19.067  0.00  0.00    +0.000 A 
ATOM      6  C   UNL     1       3.238   6.136  18.746  0.00  0.00    +0.000 A 
ATOM      7  N   UNL     1       4.366   6.604  18.173  0.00  0.00    +0.000 NA
ATOM      8  C   UNL     1       1.843   4.123  19.532  0.00  0.00    +0.000 C 
ATOM      9  C   UNL     1       1.296   3.078  18.566  0.00  0.00    +0.000 C 
ATOM     10  N   UNL     1       1.912   1.762  18.702  0.00  0.00    +0.000 NA
ATOM     11  C   UNL     1       3.325   1.755  18.301  0.00  0.00    +0.000 C 
ATOM     12  C   UNL     1       4.246   2.538  19.237  0.00  0.00    +0.000 C 
ATOM     13  H   UNL     1       1.404   1.117  18.096  0.00  0.00    +0.000 HD
ENDROOT
BRANCH   6  14
ATOM     14  N   UNL     1       2.234   7.050  19.028  0.00  0.00    +0.000 N 
ATOM     15  C   UNL     1       1.707   7.916  17.976  0.00  0.00    +0.000 C 
ATOM     16  C   UNL     1       1.750   9.376  18.429  0.00  0.00    +0.000 C 
ATOM     17  C   UNL     1       1.078   9.597  19.798  0.00  0.00    +0.000 C 
ATOM     18  C   UNL     1       1.797   8.703  20.811  0.00  0.00    +0.000 C 
ATOM     19  C   UNL     1       1.757   7.249  20.394  0.00  0.00    +0.000 C 
BRANCH  17  20
ATOM     20  C   UNL     1      -0.445   9.327  19.818  0.00  0.00    +0.000 C 
BRANCH  20  21
ATOM     21  N   UNL     1      -1.233  10.319  19.110  0.00  0.00    +0.000 N 
ATOM     22  C   UNL     1      -1.676  10.143  17.749  0.00  0.00    +0.000 C 
ATOM     23  C   UNL     1      -2.109  11.539  17.331  0.00  0.00    +0.000 C 
ATOM     24  C   UNL     1      -2.534  12.189  18.639  0.00  0.00    +0.000 C 
ATOM     25  C   UNL     1      -1.577  11.564  19.620  0.00  0.00    +0.000 C 
ATOM     26  O   UNL     1      -1.231  12.047  20.684  0.00  0.00    +0.000 OA
ENDBRANCH  20  21
ENDBRANCH  17  20
ENDBRANCH   6  14
TORSDOF 3
ENDMDL
MODEL 9
REMARK VINA RESULT:      -6.9      4.012      7.988
REMARK  Name = 
REMARK  4 active torsions:
REMARK  status: ('A' for Active; 'I' for Inactive)
REMARK    1  A    between atoms: C_1  and  C_2
REMARK    2  A    between atoms: C_6  and  N_7
REMARK    3  A    between atoms: C_10  and  C_11
REMARK    4  A    between atoms: C_11  and  N_12
REMARK                            x       y       z     vdW  Elec       q    Type
REMARK                         _______ _______ _______ _____ _____    ______ ____
ROOT
ATOM      1  C   UNL     1       1.536   2.763  18.556  0.00  0.00    +0.000 C 
ATOM      2  C   UNL     1       2.406   3.912  18.137  0.00  0.00    +0.000 A 
ATOM      3  N   UNL     1       3.417   3.625  17.292  0.00  0.00    +0.000 NA
ATOM      4  C   UNL     1       4.206   4.650  16.944  0.00  0.00    +0.000 A 
ATOM      5  C   UNL     1       4.028   5.953  17.415  0.00  0.00    +0.000 A 
ATOM      6  C   UNL     1       2.906   6.170  18.218  0.00  0.00    +0.000 A 
ATOM      7  N   UNL     1       2.129   5.136  18.603  0.00  0.00    +0.000 NA
ATOM      8  C   UNL     1       5.062   6.998  17.085  0.00  0.00    +0.000 C 
ATOM      9  C   UNL     1       6.449   6.699  17.645  0.00  0.00    +0.000 C 
ATOM     10  N   UNL     1       7.241   5.794  16.818  0.00  0.00    +0.000 NA
ATOM     11  C   UNL     1       6.690   4.434  16.779  0.00  0.00    +0.000 C 
ATOM     12  C   UNL     1       5.358   4.317  16.036  0.00  0.00    +0.000 C 
ATOM     13  H   UNL     1       8.179   5.749  17.218  0.00  0.00    +0.000 HD
ENDROOT
BRANCH   6  14
ATOM     14  N   UNL     1       2.529   7.442  18.622  0.00  0.00    +0.000 N 
ATOM     15  C   UNL     1       2.241   7.715  20.027  0.00  0.00    +0.000 C 
ATOM     16  C   UNL     1       0.871   8.382  20.162  0.00  0.00    +0.000 C 
ATOM     17  C   UNL     1       0.717   9.617  19.253  0.00  0.00    +0.000 C 
ATOM     18  C   UNL     1       0.947   9.158  17.812  0.00  0.00    +0.000 C 
ATOM     19  C   UNL     1       2.304   8.506  17.648  0.00  0.00    +0.000 C 
BRANCH  17  20
ATOM     20  C   UNL     1       1.655  10.797  19.605  0.00  0.00    +0.000 C 
BRANCH  20  21
ATOM     21  N   UNL     1       0.986  12.083  19.683  0.00  0.00    +0.000 N 
ATOM     22  C   UNL     1       0.978  13.030  18.596  0.00  0.00    +0.000 C 
ATOM     23  C   UNL     1       0.513  14.321  19.250  0.00  0.00    +0.000 C 
ATOM     24  C   UNL     1      -0.346  13.845  20.411  0.00  0.00    +0.000 C 
ATOM     25  C   UNL     1       0.359  12.578  20.819  0.00  0.00    +0.000 C 
ATOM     26  O   UNL     1       0.323  12.067  21.925  0.00  0.00    +0.000 OA
ENDBRANCH  20  21
ENDBRANCH  17  20
ENDBRANCH   6  14
TORSDOF 3
ENDMDL
