MODEL 1
REMARK VINA RESULT:      -8.1      0.000      0.000
REMARK  Name = 
REMARK  6 active torsions:
REMARK  status: ('A' for Active; 'I' for Inactive)
REMARK    1  A    between atoms: C_2  and  C_9
REMARK    2  A    between atoms: N_3  and  C_4
REMARK    3  A    between atoms: C_4  and  C_5
REMARK    4  A    between atoms: C_14  and  O_15
REMARK    5  A    between atoms: O_15  and  C_16
REMARK    6  A    between atoms: C_19  and  C_20
REMARK                            x       y       z     vdW  Elec       q    Type
REMARK                         _______ _______ _______ _____ _____    ______ ____
ROOT
ATOM      1  C   UNL     1       2.601   7.208  19.249  0.00  0.00    +0.000 A 
ATOM      2  C   UNL     1       2.691   7.827  18.014  0.00  0.00    +0.000 A 
ATOM      3  C   UNL     1       1.931   8.974  17.800  0.00  0.00    +0.000 A 
ATOM      4  C   UNL     1       1.109   9.462  18.825  0.00  0.00    +0.000 A 
ATOM      5  C   UNL     1       0.323  10.622  18.657  0.00  0.00    +0.000 A 
ATOM      6  C   UNL     1      -0.485  11.078  19.699  0.00  0.00    +0.000 A 
ATOM      7  C   UNL     1      -0.545  10.351  20.885  0.00  0.00    +0.000 A 
ATOM      8  C   UNL     1       0.252   9.216  21.054  0.00  0.00    +0.000 A 
ATOM      9  C   UNL     1       1.082   8.752  20.048  0.00  0.00    +0.000 A 
ATOM     10  N   UNL     1       1.813   7.647  20.268  0.00  0.00    +0.000 NA
ENDROOT
BRANCH   1  12
ATOM     11  O   UNL     1       3.002   5.111  20.301  0.00  0.00    +0.000 OA
ATOM     12  C   UNL     1       3.400   5.966  19.516  0.00  0.00    +0.000 C 
ATOM     13  N   UNL     1       4.587   5.868  18.821  0.00  0.00    +0.000 N 
ATOM     14  H   UNL     1       4.811   6.646  18.203  0.00  0.00    +0.000 HD
BRANCH  13  15
ATOM     15  C   UNL     1       5.508   4.764  18.984  0.00  0.00    +0.000 C 
BRANCH  15  16
ATOM     16  C   UNL     1       6.675   4.988  18.049  0.00  0.00    +0.000 C 
ATOM     17  C   UNL     1       6.320   5.618  16.693  0.00  0.00    +0.000 C 
ATOM     18  O   UNL     1       7.460   6.512  16.788  0.00  0.00    +0.000 OA
ATOM     19  C   UNL     1       7.515   6.265  18.222  0.00  0.00    +0.000 C 
ENDBRANCH  15  16
ENDBRANCH  13  15
ENDBRANCH   1  12
BRANCH   6  20
ATOM     20  O   UNL     1      -1.251  12.198  19.460  0.00  0.00    +0.000 OA
BRANCH  20  21
ATOM     21  C   UNL     1      -2.613  12.021  19.233  0.00  0.00    +0.000 A 
ATOM     22  C   UNL     1      -3.482  12.664  20.101  0.00  0.00    +0.000 A 
ATOM     23  C   UNL     1      -4.853  12.497  19.908  0.00  0.00    +0.000 A 
ATOM     24  C   UNL     1      -5.313  11.688  18.863  0.00  0.00    +0.000 A 
ATOM     25  C   UNL     1      -4.361  11.084  18.055  0.00  0.00    +0.000 A 
ATOM     26  N   UNL     1      -3.029  11.221  18.225  0.00  0.00    +0.000 NA
BRANCH  24  27
ATOM     27  C   UNL     1      -6.764  11.439  18.594  0.00  0.00    +0.000 C 
ATOM     28  F   UNL     1      -7.581  11.831  19.611  0.00  0.00    +0.000 F 
ATOM     29  F   UNL     1      -7.208  12.090  17.485  0.00  0.00    +0.000 F 
ATOM     30  F   UNL     1      -7.034  10.121  18.386  0.00  0.00    +0.000 F 
ENDBRANCH  24  27
ENDBRANCH  20  21
ENDBRANCH   6  20
TORSDOF 6
ENDMDL
MODEL 2
REMARK VINA RESULT:      -8.0      1.730      2.792
REMARK  Name = 
REMARK  6 active torsions:
REMARK  status: ('A' for Active; 'I' for Inactive)
REMARK    1  A    between atoms: C_2  and  C_9
REMARK    2  A    between atoms: N_3  and  C_4
REMARK    3  A    between atoms: C_4  and  C_5
REMARK    4  A    between atoms: C_14  and  O_15
REMARK    5  A    between atoms: O_15  and  C_16
REMARK    6  A    between atoms: C_19  and  C_20
REMARK                            x       y       z     vdW  Elec       q    Type
REMARK                         _______ _______ _______ _____ _____    ______ ____
ROOT
ATOM      1  C   UNL     1       2.481   7.184  19.330  0.00  0.00    +0.000 A 
ATOM      2  C   UNL     1       2.559   7.776  18.080  0.00  0.00    +0.000 A 
ATOM      3  C   UNL     1       1.821   8.935  17.858  0.00  0.00    +0.000 A 
ATOM      4  C   UNL     1       1.032   9.463  18.888  0.00  0.00    +0.000 A 
ATOM      5  C   UNL     1       0.270  10.638  18.712  0.00  0.00    +0.000 A 
ATOM      6  C   UNL     1      -0.505  11.135  19.761  0.00  0.00    +0.000 A 
ATOM      7  C   UNL     1      -0.557  10.434  20.963  0.00  0.00    +0.000 A 
ATOM      8  C   UNL     1       0.217   9.284  21.140  0.00  0.00    +0.000 A 
ATOM      9  C   UNL     1       1.015   8.780  20.127  0.00  0.00    +0.000 A 
ATOM     10  N   UNL     1       1.726   7.663  20.355  0.00  0.00    +0.000 NA
ENDROOT
BRANCH   1  12
ATOM     11  O   UNL     1       4.429   5.819  19.259  0.00  0.00    +0.000 OA
ATOM     12  C   UNL     1       3.257   5.931  19.606  0.00  0.00    +0.000 C 
ATOM     13  N   UNL     1       2.562   4.942  20.268  0.00  0.00    +0.000 N 
ATOM     14  H   UNL     1       1.592   5.151  20.499  0.00  0.00    +0.000 HD
BRANCH  13  15
ATOM     15  C   UNL     1       3.133   3.649  20.581  0.00  0.00    +0.000 C 
BRANCH  15  16
ATOM     16  C   UNL     1       2.140   2.587  20.164  0.00  0.00    +0.000 C 
ATOM     17  C   UNL     1       0.740   3.103  19.798  0.00  0.00    +0.000 C 
ATOM     18  O   UNL     1       0.704   2.235  18.634  0.00  0.00    +0.000 OA
ATOM     19  C   UNL     1       2.153   2.108  18.702  0.00  0.00    +0.000 C 
ENDBRANCH  15  16
ENDBRANCH  13  15
ENDBRANCH   1  12
BRANCH   6  20
ATOM     20  O   UNL     1      -1.250  12.267  19.514  0.00  0.00    +0.000 OA
BRANCH  20  21
ATOM     21  C   UNL     1      -2.611  12.111  19.263  0.00  0.00    +0.000 A 
ATOM     22  C   UNL     1      -3.486  12.703  20.160  0.00  0.00    +0.000 A 
ATOM     23  C   UNL     1      -4.856  12.556  19.942  0.00  0.00    +0.000 A 
ATOM     24  C   UNL     1      -5.308  11.815  18.845  0.00  0.00    +0.000 A 
ATOM     25  C   UNL     1      -4.350  11.257  18.011  0.00  0.00    +0.000 A 
ATOM     26  N   UNL     1      -3.019  11.377  18.203  0.00  0.00    +0.000 NA
BRANCH  24  27
ATOM     27  C   UNL     1      -6.757  11.590  18.546  0.00  0.00    +0.000 C 
ATOM     28  F   UNL     1      -7.073  10.282  18.337  0.00  0.00    +0.000 F 
ATOM     29  F   UNL     1      -7.569  12.016  19.551  0.00  0.00    +0.000 F 
ATOM     30  F   UNL     1      -7.166  12.255  17.430  0.00  0.00    +0.000 F 
ENDBRANCH  24  27
ENDBRANCH  20  21
ENDBRANCH   6  20
TORSDOF 6
ENDMDL
MODEL 3
REMARK VINA RESULT:      -8.0      5.739     10.519
REMARK  Name = 
REMARK  6 active torsions:
REMARK  status: ('A' for Active; 'I' for Inactive)
REMARK    1  A    between atoms: C_2  and  C_9
REMARK    2  A    between atoms: N_3  and  C_4
REMARK    3  A    between atoms: C_4  and  C_5
REMARK    4  A    between atoms: C_14  and  O_15
REMARK    5  A    between atoms: O_15  and  C_16
REMARK    6  A    between atoms: C_19  and  C_20
REMARK                            x       y       z     vdW  Elec       q    Type
REMARK                         _______ _______ _______ _____ _____    ______ ____
ROOT
ATOM      1  C   UNL     1       1.350   8.848  18.991  0.00  0.00    +0.000 A 
ATOM      2  C   UNL     1       2.022   9.351  17.889  0.00  0.00    +0.000 A 
ATOM      3  C   UNL     1       3.118   8.640  17.411  0.00  0.00    +0.000 A 
ATOM      4  C   UNL     1       3.507   7.453  18.047  0.00  0.00    +0.000 A 
ATOM      5  C   UNL     1       4.609   6.696  17.597  0.00  0.00    +0.000 A 
ATOM      6  C   UNL     1       4.968   5.519  18.256  0.00  0.00    +0.000 A 
ATOM      7  C   UNL     1       4.258   5.128  19.389  0.00  0.00    +0.000 A 
ATOM      8  C   UNL     1       3.154   5.870  19.818  0.00  0.00    +0.000 A 
ATOM      9  C   UNL     1       2.759   7.028  19.170  0.00  0.00    +0.000 A 
ATOM     10  N   UNL     1       1.696   7.703  19.639  0.00  0.00    +0.000 NA
ENDROOT
BRANCH   1  12
ATOM     11  O   UNL     1      -0.144   9.502  20.724  0.00  0.00    +0.000 OA
ATOM     12  C   UNL     1       0.167   9.589  19.539  0.00  0.00    +0.000 C 
ATOM     13  N   UNL     1      -0.523  10.357  18.626  0.00  0.00    +0.000 N 
ATOM     14  H   UNL     1      -0.172  10.343  17.670  0.00  0.00    +0.000 HD
BRANCH  13  15
ATOM     15  C   UNL     1      -1.715  11.105  18.964  0.00  0.00    +0.000 C 
BRANCH  15  16
ATOM     16  C   UNL     1      -2.719  10.912  17.850  0.00  0.00    +0.000 C 
ATOM     17  C   UNL     1      -2.117  10.685  16.455  0.00  0.00    +0.000 C 
ATOM     18  O   UNL     1      -3.065   9.615  16.199  0.00  0.00    +0.000 OA
ATOM     19  C   UNL     1      -3.307   9.507  17.631  0.00  0.00    +0.000 C 
ENDBRANCH  15  16
ENDBRANCH  13  15
ENDBRANCH   1  12
BRANCH   6  20
ATOM     20  O   UNL     1       6.072   4.843  17.787  0.00  0.00    +0.000 OA
BRANCH  20  21
ATOM     21  C   UNL     1       6.148   4.586  16.421  0.00  0.00    +0.000 A 
ATOM     22  C   UNL     1       5.130   3.823  15.869  0.00  0.00    +0.000 A 
ATOM     23  C   UNL     1       5.183   3.538  14.505  0.00  0.00    +0.000 A 
ATOM     24  C   UNL     1       6.252   4.012  13.738  0.00  0.00    +0.000 A 
ATOM     25  C   UNL     1       7.223   4.760  14.387  0.00  0.00    +0.000 A 
ATOM     26  N   UNL     1       7.202   5.043  15.707  0.00  0.00    +0.000 NA
BRANCH  24  27
ATOM     27  C   UNL     1       6.399   3.738  12.273  0.00  0.00    +0.000 C 
ATOM     28  F   UNL     1       7.151   4.666  11.619  0.00  0.00    +0.000 F 
ATOM     29  F   UNL     1       6.986   2.537  12.024  0.00  0.00    +0.000 F 
ATOM     30  F   UNL     1       5.200   3.709  11.629  0.00  0.00    +0.000 F 
ENDBRANCH  24  27
ENDBRANCH  20  21
ENDBRANCH   6  20
TORSDOF 6
ENDMDL
MODEL 4
REMARK VINA RESULT:      -8.0      0.743      1.207
REMARK  Name = 
REMARK  6 active torsions:
REMARK  status: ('A' for Active; 'I' for Inactive)
REMARK    1  A    between atoms: C_2  and  C_9
REMARK    2  A    between atoms: N_3  and  C_4
REMARK    3  A    between atoms: C_4  and  C_5
REMARK    4  A    between atoms: C_14  and  O_15
REMARK    5  A    between atoms: O_15  and  C_16
REMARK    6  A    between atoms: C_19  and  C_20
REMARK                            x       y       z     vdW  Elec       q    Type
REMARK                         _______ _______ _______ _____ _____    ______ ____
ROOT
ATOM      1  C   UNL     1       2.423   7.498  19.020  0.00  0.00    +0.000 A 
ATOM      2  C   UNL     1       2.394   8.197  17.825  0.00  0.00    +0.000 A 
ATOM      3  C   UNL     1       1.617   9.351  17.761  0.00  0.00    +0.000 A 
ATOM      4  C   UNL     1       0.898   9.766  18.889  0.00  0.00    +0.000 A 
ATOM      5  C   UNL     1       0.100  10.930  18.874  0.00  0.00    +0.000 A 
ATOM      6  C   UNL     1      -0.603  11.313  20.017  0.00  0.00    +0.000 A 
ATOM      7  C   UNL     1      -0.549  10.510  21.153  0.00  0.00    +0.000 A 
ATOM      8  C   UNL     1       0.260   9.370  21.170  0.00  0.00    +0.000 A 
ATOM      9  C   UNL     1       0.989   8.978  20.061  0.00  0.00    +0.000 A 
ATOM     10  N   UNL     1       1.738   7.865  20.137  0.00  0.00    +0.000 NA
ENDROOT
BRANCH   1  12
ATOM     11  O   UNL     1       3.229   5.563  20.146  0.00  0.00    +0.000 OA
ATOM     12  C   UNL     1       3.243   6.247  19.127  0.00  0.00    +0.000 C 
ATOM     13  N   UNL     1       3.992   5.936  18.012  0.00  0.00    +0.000 N 
ATOM     14  H   UNL     1       3.924   6.585  17.229  0.00  0.00    +0.000 HD
BRANCH  13  15
ATOM     15  C   UNL     1       4.877   4.791  17.949  0.00  0.00    +0.000 C 
BRANCH  15  16
ATOM     16  C   UNL     1       6.141   5.217  17.236  0.00  0.00    +0.000 C 
ATOM     17  C   UNL     1       7.452   4.789  17.911  0.00  0.00    +0.000 C 
ATOM     18  O   UNL     1       8.005   4.390  16.629  0.00  0.00    +0.000 OA
ATOM     19  C   UNL     1       6.657   4.343  16.080  0.00  0.00    +0.000 C 
ENDBRANCH  15  16
ENDBRANCH  13  15
ENDBRANCH   1  12
BRANCH   6  20
ATOM     20  O   UNL     1      -1.388  12.442  19.927  0.00  0.00    +0.000 OA
BRANCH  20  21
ATOM     21  C   UNL     1      -2.744  12.274  19.660  0.00  0.00    +0.000 A 
ATOM     22  C   UNL     1      -3.633  12.720  20.626  0.00  0.00    +0.000 A 
ATOM     23  C   UNL     1      -4.998  12.556  20.394  0.00  0.00    +0.000 A 
ATOM     24  C   UNL     1      -5.433  11.945  19.213  0.00  0.00    +0.000 A 
ATOM     25  C   UNL     1      -4.462  11.527  18.314  0.00  0.00    +0.000 A 
ATOM     26  N   UNL     1      -3.135  11.665  18.517  0.00  0.00    +0.000 NA
BRANCH  24  27
ATOM     27  C   UNL     1      -6.876  11.712  18.891  0.00  0.00    +0.000 C 
ATOM     28  F   UNL     1      -7.101  10.555  18.209  0.00  0.00    +0.000 F 
ATOM     29  F   UNL     1      -7.655  11.648  20.004  0.00  0.00    +0.000 F 
ATOM     30  F   UNL     1      -7.402  12.705  18.123  0.00  0.00    +0.000 F 
ENDBRANCH  24  27
ENDBRANCH  20  21
ENDBRANCH   6  20
TORSDOF 6
ENDMDL
MODEL 5
REMARK VINA RESULT:      -7.9      1.780      2.962
REMARK  Name = 
REMARK  6 active torsions:
REMARK  status: ('A' for Active; 'I' for Inactive)
REMARK    1  A    between atoms: C_2  and  C_9
REMARK    2  A    between atoms: N_3  and  C_4
REMARK    3  A    between atoms: C_4  and  C_5
REMARK    4  A    between atoms: C_14  and  O_15
REMARK    5  A    between atoms: O_15  and  C_16
REMARK    6  A    between atoms: C_19  and  C_20
REMARK                            x       y       z     vdW  Elec       q    Type
REMARK                         _______ _______ _______ _____ _____    ______ ____
ROOT
ATOM      1  C   UNL     1       2.619   7.065  19.038  0.00  0.00    +0.000 A 
ATOM      2  C   UNL     1       2.730   7.784  17.859  0.00  0.00    +0.000 A 
ATOM      3  C   UNL     1       2.037   8.987  17.759  0.00  0.00    +0.000 A 
ATOM      4  C   UNL     1       1.258   9.431  18.836  0.00  0.00    +0.000 A 
ATOM      5  C   UNL     1       0.541  10.645  18.783  0.00  0.00    +0.000 A 
ATOM      6  C   UNL     1      -0.224  11.055  19.875  0.00  0.00    +0.000 A 
ATOM      7  C   UNL     1      -0.313  10.232  20.994  0.00  0.00    +0.000 A 
ATOM      8  C   UNL     1       0.416   9.041  21.051  0.00  0.00    +0.000 A 
ATOM      9  C   UNL     1       1.204   8.620  19.994  0.00  0.00    +0.000 A 
ATOM     10  N   UNL     1       1.871   7.459  20.105  0.00  0.00    +0.000 NA
ENDROOT
BRANCH   1  12
ATOM     11  O   UNL     1       4.496   5.718  19.607  0.00  0.00    +0.000 OA
ATOM     12  C   UNL     1       3.345   5.760  19.182  0.00  0.00    +0.000 C 
ATOM     13  N   UNL     1       2.629   4.643  18.809  0.00  0.00    +0.000 N 
ATOM     14  H   UNL     1       1.684   4.808  18.466  0.00  0.00    +0.000 HD
BRANCH  13  15
ATOM     15  C   UNL     1       3.182   3.305  18.839  0.00  0.00    +0.000 C 
BRANCH  15  16
ATOM     16  C   UNL     1       2.356   2.481  19.801  0.00  0.00    +0.000 C 
ATOM     17  C   UNL     1       2.639   2.731  21.290  0.00  0.00    +0.000 C 
ATOM     18  O   UNL     1       1.215   2.742  21.578  0.00  0.00    +0.000 OA
ATOM     19  C   UNL     1       0.947   2.978  20.166  0.00  0.00    +0.000 C 
ENDBRANCH  15  16
ENDBRANCH  13  15
ENDBRANCH   1  12
BRANCH   6  20
ATOM     20  O   UNL     1      -0.925  12.235  19.747  0.00  0.00    +0.000 OA
BRANCH  20  21
ATOM     21  C   UNL     1      -2.299  12.158  19.538  0.00  0.00    +0.000 A 
ATOM     22  C   UNL     1      -2.723  11.558  18.362  0.00  0.00    +0.000 A 
ATOM     23  C   UNL     1      -4.093  11.477  18.118  0.00  0.00    +0.000 A 
ATOM     24  C   UNL     1      -4.996  12.003  19.047  0.00  0.00    +0.000 A 
ATOM     25  C   UNL     1      -4.470  12.589  20.189  0.00  0.00    +0.000 A 
ATOM     26  N   UNL     1      -3.149  12.690  20.447  0.00  0.00    +0.000 NA
BRANCH  24  27
ATOM     27  C   UNL     1      -6.481  11.976  18.858  0.00  0.00    +0.000 C 
ATOM     28  F   UNL     1      -7.108  11.029  19.609  0.00  0.00    +0.000 F 
ATOM     29  F   UNL     1      -7.070  13.159  19.180  0.00  0.00    +0.000 F 
ATOM     30  F   UNL     1      -6.834  11.723  17.568  0.00  0.00    +0.000 F 
ENDBRANCH  24  27
ENDBRANCH  20  21
ENDBRANCH   6  20
TORSDOF 6
ENDMDL
MODEL 6
REMARK VINA RESULT:      -7.9      1.515      2.400
REMARK  Name = 
REMARK  6 active torsions:
REMARK  status: ('A' for Active; 'I' for Inactive)
REMARK    1  A    between atoms: C_2  and  C_9
REMARK    2  A    between atoms: N_3  and  C_4
REMARK    3  A    between atoms: C_4  and  C_5
REMARK    4  A    between atoms: C_14  and  O_15
REMARK    5  A    between atoms: O_15  and  C_16
REMARK    6  A    between atoms: C_19  and  C_20
REMARK                            x       y       z     vdW  Elec       q    Type
REMARK                         _______ _______ _______ _____ _____    ______ ____
ROOT
ATOM      1  C   UNL     1       3.332   5.551  18.915  0.00  0.00    +0.000 A 
ATOM      2  C   UNL     1       2.729   5.431  20.155  0.00  0.00    +0.000 A 
ATOM      3  C   UNL     1       1.952   6.492  20.611  0.00  0.00    +0.000 A 
ATOM      4  C   UNL     1       1.804   7.636  19.814  0.00  0.00    +0.000 A 
ATOM      5  C   UNL     1       1.023   8.735  20.230  0.00  0.00    +0.000 A 
ATOM      6  C   UNL     1       0.899   9.857  19.410  0.00  0.00    +0.000 A 
ATOM      7  C   UNL     1       1.591   9.901  18.203  0.00  0.00    +0.000 A 
ATOM      8  C   UNL     1       2.345   8.800  17.785  0.00  0.00    +0.000 A 
ATOM      9  C   UNL     1       2.467   7.663  18.564  0.00  0.00    +0.000 A 
ATOM     10  N   UNL     1       3.216   6.644  18.112  0.00  0.00    +0.000 NA
ENDROOT
BRANCH   1  12
ATOM     11  O   UNL     1       4.716   3.630  19.153  0.00  0.00    +0.000 OA
ATOM     12  C   UNL     1       4.182   4.431  18.392  0.00  0.00    +0.000 C 
ATOM     13  N   UNL     1       4.308   4.378  17.020  0.00  0.00    +0.000 N 
ATOM     14  H   UNL     1       3.821   5.103  16.495  0.00  0.00    +0.000 HD
BRANCH  13  15
ATOM     15  C   UNL     1       5.123   3.394  16.340  0.00  0.00    +0.000 C 
BRANCH  15  16
ATOM     16  C   UNL     1       6.313   4.108  15.740  0.00  0.00    +0.000 C 
ATOM     17  C   UNL     1       6.080   5.583  15.377  0.00  0.00    +0.000 C 
ATOM     18  O   UNL     1       7.364   5.946  15.952  0.00  0.00    +0.000 OA
ATOM     19  C   UNL     1       7.371   4.692  16.692  0.00  0.00    +0.000 C 
ENDBRANCH  15  16
ENDBRANCH  13  15
ENDBRANCH   1  12
BRANCH   6  20
ATOM     20  O   UNL     1       0.149  10.909  19.889  0.00  0.00    +0.000 OA
BRANCH  20  21
ATOM     21  C   UNL     1      -1.125  11.097  19.360  0.00  0.00    +0.000 A 
ATOM     22  C   UNL     1      -1.899  12.096  19.929  0.00  0.00    +0.000 A 
ATOM     23  C   UNL     1      -3.185  12.301  19.429  0.00  0.00    +0.000 A 
ATOM     24  C   UNL     1      -3.660  11.498  18.387  0.00  0.00    +0.000 A 
ATOM     25  C   UNL     1      -2.809  10.521  17.892  0.00  0.00    +0.000 A 
ATOM     26  N   UNL     1      -1.564  10.295  18.363  0.00  0.00    +0.000 NA
BRANCH  24  27
ATOM     27  C   UNL     1      -5.032  11.636  17.802  0.00  0.00    +0.000 C 
ATOM     28  F   UNL     1      -5.881  10.636  18.167  0.00  0.00    +0.000 F 
ATOM     29  F   UNL     1      -5.641  12.796  18.169  0.00  0.00    +0.000 F 
ATOM     30  F   UNL     1      -5.018  11.635  16.441  0.00  0.00    +0.000 F 
ENDBRANCH  24  27
ENDBRANCH  20  21
ENDBRANCH   6  20
TORSDOF 6
ENDMDL
MODEL 7
REMARK VINA RESULT:      -7.9      0.822      1.117
REMARK  Name = 
REMARK  6 active torsions:
REMARK  status: ('A' for Active; 'I' for Inactive)
REMARK    1  A    between atoms: C_2  and  C_9
REMARK    2  A    between atoms: N_3  and  C_4
REMARK    3  A    between atoms: C_4  and  C_5
REMARK    4  A    between atoms: C_14  and  O_15
REMARK    5  A    between atoms: O_15  and  C_16
REMARK    6  A    between atoms: C_19  and  C_20
REMARK                            x       y       z     vdW  Elec       q    Type
REMARK                         _______ _______ _______ _____ _____    ______ ____
ROOT
ATOM      1  C   UNL     1       2.616   7.264  19.123  0.00  0.00    +0.000 A 
ATOM      2  C   UNL     1       2.680   7.931  17.911  0.00  0.00    +0.000 A 
ATOM      3  C   UNL     1       1.932   9.096  17.765  0.00  0.00    +0.000 A 
ATOM      4  C   UNL     1       1.148   9.555  18.832  0.00  0.00    +0.000 A 
ATOM      5  C   UNL     1       0.376  10.733  18.733  0.00  0.00    +0.000 A 
ATOM      6  C   UNL     1      -0.394  11.159  19.815  0.00  0.00    +0.000 A 
ATOM      7  C   UNL     1      -0.431  10.386  20.973  0.00  0.00    +0.000 A 
ATOM      8  C   UNL     1       0.352   9.233  21.074  0.00  0.00    +0.000 A 
ATOM      9  C   UNL     1       1.145   8.798  20.027  0.00  0.00    +0.000 A 
ATOM     10  N   UNL     1       1.865   7.674  20.182  0.00  0.00    +0.000 NA
ENDROOT
BRANCH   1  12
ATOM     11  O   UNL     1       3.105   5.197  20.196  0.00  0.00    +0.000 OA
ATOM     12  C   UNL     1       3.402   6.002  19.318  0.00  0.00    +0.000 C 
ATOM     13  N   UNL     1       4.458   5.825  18.449  0.00  0.00    +0.000 N 
ATOM     14  H   UNL     1       4.607   6.567  17.766  0.00  0.00    +0.000 HD
BRANCH  13  15
ATOM     15  C   UNL     1       5.353   4.689  18.514  0.00  0.00    +0.000 C 
BRANCH  15  16
ATOM     16  C   UNL     1       6.744   5.171  18.165  0.00  0.00    +0.000 C 
ATOM     17  C   UNL     1       6.824   6.601  17.609  0.00  0.00    +0.000 C 
ATOM     18  O   UNL     1       7.975   6.883  18.449  0.00  0.00    +0.000 OA
ATOM     19  C   UNL     1       7.621   5.747  19.290  0.00  0.00    +0.000 C 
ENDBRANCH  15  16
ENDBRANCH  13  15
ENDBRANCH   1  12
BRANCH   6  20
ATOM     20  O   UNL     1      -1.149  12.298  19.644  0.00  0.00    +0.000 OA
BRANCH  20  21
ATOM     21  C   UNL     1      -2.525  12.153  19.491  0.00  0.00    +0.000 A 
ATOM     22  C   UNL     1      -2.964  11.485  18.359  0.00  0.00    +0.000 A 
ATOM     23  C   UNL     1      -4.337  11.333  18.171  0.00  0.00    +0.000 A 
ATOM     24  C   UNL     1      -5.228  11.860  19.112  0.00  0.00    +0.000 A 
ATOM     25  C   UNL     1      -4.688  12.517  20.207  0.00  0.00    +0.000 A 
ATOM     26  N   UNL     1      -3.364  12.686  20.409  0.00  0.00    +0.000 NA
BRANCH  24  27
ATOM     27  C   UNL     1      -6.716  11.759  18.981  0.00  0.00    +0.000 C 
ATOM     28  F   UNL     1      -7.358  12.948  19.148  0.00  0.00    +0.000 F 
ATOM     29  F   UNL     1      -7.102  11.294  17.762  0.00  0.00    +0.000 F 
ATOM     30  F   UNL     1      -7.261  10.910  19.895  0.00  0.00    +0.000 F 
ENDBRANCH  24  27
ENDBRANCH  20  21
ENDBRANCH   6  20
TORSDOF 6
ENDMDL
MODEL 8
REMARK VINA RESULT:      -7.9      4.676     10.048
REMARK  Name = 
REMARK  6 active torsions:
REMARK  status: ('A' for Active; 'I' for Inactive)
REMARK    1  A    between atoms: C_2  and  C_9
REMARK    2  A    between atoms: N_3  and  C_4
REMARK    3  A    between atoms: C_4  and  C_5
REMARK    4  A    between atoms: C_14  and  O_15
REMARK    5  A    between atoms: O_15  and  C_16
REMARK    6  A    between atoms: C_19  and  C_20
REMARK                            x       y       z     vdW  Elec       q    Type
REMARK                         _______ _______ _______ _____ _____    ______ ____
ROOT
ATOM      1  C   UNL     1      -3.693  11.417  17.887  0.00  0.00    +0.000 A 
ATOM      2  C   UNL     1      -3.468  10.564  16.819  0.00  0.00    +0.000 A 
ATOM      3  C   UNL     1      -2.237   9.917  16.746  0.00  0.00    +0.000 A 
ATOM      4  C   UNL     1      -1.275  10.143  17.740  0.00  0.00    +0.000 A 
ATOM      5  C   UNL     1      -0.015   9.507  17.711  0.00  0.00    +0.000 A 
ATOM      6  C   UNL     1       0.918   9.757  18.718  0.00  0.00    +0.000 A 
ATOM      7  C   UNL     1       0.613  10.674  19.720  0.00  0.00    +0.000 A 
ATOM      8  C   UNL     1      -0.644  11.283  19.756  0.00  0.00    +0.000 A 
ATOM      9  C   UNL     1      -1.600  11.038  18.786  0.00  0.00    +0.000 A 
ATOM     10  N   UNL     1      -2.785  11.665  18.870  0.00  0.00    +0.000 NA
ENDROOT
BRANCH   1  12
ATOM     11  O   UNL     1      -5.627  12.479  16.996  0.00  0.00    +0.000 OA
ATOM     12  C   UNL     1      -5.004  12.137  17.997  0.00  0.00    +0.000 C 
ATOM     13  N   UNL     1      -5.440  12.374  19.283  0.00  0.00    +0.000 N 
ATOM     14  H   UNL     1      -4.831  12.046  20.032  0.00  0.00    +0.000 HD
BRANCH  13  15
ATOM     15  C   UNL     1      -6.659  13.094  19.583  0.00  0.00    +0.000 C 
BRANCH  15  16
ATOM     16  C   UNL     1      -7.592  12.149  20.309  0.00  0.00    +0.000 C 
ATOM     17  C   UNL     1      -7.164  10.674  20.309  0.00  0.00    +0.000 C 
ATOM     18  O   UNL     1      -7.497  10.558  21.718  0.00  0.00    +0.000 OA
ATOM     19  C   UNL     1      -7.447  12.009  21.835  0.00  0.00    +0.000 C 
ENDBRANCH  15  16
ENDBRANCH  13  15
ENDBRANCH   1  12
BRANCH   6  20
ATOM     20  O   UNL     1       2.140   9.129  18.615  0.00  0.00    +0.000 OA
BRANCH  20  21
ATOM     21  C   UNL     1       2.206   7.773  18.920  0.00  0.00    +0.000 A 
ATOM     22  C   UNL     1       2.550   6.913  17.888  0.00  0.00    +0.000 A 
ATOM     23  C   UNL     1       2.613   5.547  18.158  0.00  0.00    +0.000 A 
ATOM     24  C   UNL     1       2.321   5.080  19.444  0.00  0.00    +0.000 A 
ATOM     25  C   UNL     1       1.980   6.021  20.404  0.00  0.00    +0.000 A 
ATOM     26  N   UNL     1       1.903   7.348  20.168  0.00  0.00    +0.000 NA
BRANCH  24  27
ATOM     27  C   UNL     1       2.345   3.631  19.818  0.00  0.00    +0.000 C 
ATOM     28  F   UNL     1       1.420   3.296  20.759  0.00  0.00    +0.000 F 
ATOM     29  F   UNL     1       2.111   2.814  18.755  0.00  0.00    +0.000 F 
ATOM     30  F   UNL     1       3.549   3.247  20.326  0.00  0.00    +0.000 F 
ENDBRANCH  24  27
ENDBRANCH  20  21
ENDBRANCH   6  20
TORSDOF 6
ENDMDL
MODEL 9
REMARK VINA RESULT:      -7.8      4.935      9.808
REMARK  Name = 
REMARK  6 active torsions:
REMARK  status: ('A' for Active; 'I' for Inactive)
REMARK    1  A    between atoms: C_2  and  C_9
REMARK    2  A    between atoms: N_3  and  C_4
REMARK    3  A    between atoms: C_4  and  C_5
REMARK    4  A    between atoms: C_14  and  O_15
REMARK    5  A    between atoms: O_15  and  C_16
REMARK    6  A    between atoms: C_19  and  C_20
REMARK                            x       y       z     vdW  Elec       q    Type
REMARK                         _______ _______ _______ _____ _____    ______ ____
ROOT
ATOM      1  C   UNL     1      -0.330  10.971  22.068  0.00  0.00    +0.000 A 
ATOM      2  C   UNL     1      -0.007   9.768  22.672  0.00  0.00    +0.000 A 
ATOM      3  C   UNL     1       0.700   8.830  21.925  0.00  0.00    +0.000 A 
ATOM      4  C   UNL     1       1.061   9.125  20.603  0.00  0.00    +0.000 A 
ATOM      5  C   UNL     1       1.781   8.208  19.808  0.00  0.00    +0.000 A 
ATOM      6  C   UNL     1       2.122   8.535  18.496  0.00  0.00    +0.000 A 
ATOM      7  C   UNL     1       1.702   9.752  17.964  0.00  0.00    +0.000 A 
ATOM      8  C   UNL     1       1.008  10.665  18.763  0.00  0.00    +0.000 A 
ATOM      9  C   UNL     1       0.677  10.380  20.076  0.00  0.00    +0.000 A 
ATOM     10  N   UNL     1      -0.002  11.295  20.787  0.00  0.00    +0.000 NA
ENDROOT
BRANCH   1  12
ATOM     11  O   UNL     1      -0.537  12.991  23.310  0.00  0.00    +0.000 OA
ATOM     12  C   UNL     1      -1.097  12.005  22.838  0.00  0.00    +0.000 C 
ATOM     13  N   UNL     1      -2.448  11.763  22.965  0.00  0.00    +0.000 N 
ATOM     14  H   UNL     1      -2.794  10.908  22.534  0.00  0.00    +0.000 HD
BRANCH  13  15
ATOM     15  C   UNL     1      -3.338  12.628  23.711  0.00  0.00    +0.000 C 
BRANCH  15  16
ATOM     16  C   UNL     1      -4.361  13.187  22.747  0.00  0.00    +0.000 C 
ATOM     17  C   UNL     1      -4.023  14.564  22.155  0.00  0.00    +0.000 C 
ATOM     18  O   UNL     1      -4.434  14.118  20.835  0.00  0.00    +0.000 OA
ATOM     19  C   UNL     1      -4.302  12.736  21.277  0.00  0.00    +0.000 C 
ENDBRANCH  15  16
ENDBRANCH  13  15
ENDBRANCH   1  12
BRANCH   6  20
ATOM     20  O   UNL     1       2.797   7.584  17.762  0.00  0.00    +0.000 OA
BRANCH  20  21
ATOM     21  C   UNL     1       2.818   6.279  18.247  0.00  0.00    +0.000 A 
ATOM     22  C   UNL     1       1.768   5.455  17.874  0.00  0.00    +0.000 A 
ATOM     23  C   UNL     1       1.753   4.145  18.352  0.00  0.00    +0.000 A 
ATOM     24  C   UNL     1       2.779   3.703  19.194  0.00  0.00    +0.000 A 
ATOM     25  C   UNL     1       3.780   4.608  19.514  0.00  0.00    +0.000 A 
ATOM     26  N   UNL     1       3.814   5.884  19.072  0.00  0.00    +0.000 NA
BRANCH  24  27
ATOM     27  C   UNL     1       2.834   2.321  19.768  0.00  0.00    +0.000 C 
ATOM     28  F   UNL     1       1.683   1.945  20.392  0.00  0.00    +0.000 F 
ATOM     29  F   UNL     1       3.074   1.373  18.823  0.00  0.00    +0.000 F 
ATOM     30  F   UNL     1       3.822   2.183  20.695  0.00  0.00    +0.000 F 
ENDBRANCH  24  27
ENDBRANCH  20  21
ENDBRANCH   6  20
TORSDOF 6
ENDMDL
