MODEL 1
REMARK VINA RESULT:      -7.9      0.000      0.000
REMARK  Name = 
REMARK  1 active torsions:
REMARK  status: ('A' for Active; 'I' for Inactive)
REMARK    1  A    between atoms: C_2  and  C_3
REMARK                            x       y       z     vdW  Elec       q    Type
REMARK                         _______ _______ _______ _____ _____    ______ ____
ROOT
ATOM      1  O   UNL     1       5.961   6.881  17.486  0.00  0.00    +0.000 OA
ATOM      2  C   UNL     1       5.647   5.726  17.187  0.00  0.00    +0.000 C 
ATOM      3  N   UNL     1       5.022   4.870  18.103  0.00  0.00    +0.000 N 
ATOM      4  C   UNL     1       4.464   3.547  17.812  0.00  0.00    +0.000 C 
ATOM      5  C   UNL     1       2.986   3.491  18.169  0.00  0.00    +0.000 C 
ATOM      6  C   UNL     1       2.750   3.923  19.610  0.00  0.00    +0.000 C 
ATOM      7  C   UNL     1       3.399   5.277  19.904  0.00  0.00    +0.000 C 
ATOM      8  C   UNL     1       4.867   5.298  19.489  0.00  0.00    +0.000 C 
ATOM      9  O   UNL     1       3.284   2.916  20.486  0.00  0.00    +0.000 OA
ATOM     10  C   UNL     1       2.247   2.663  21.432  0.00  0.00    +0.000 C 
ATOM     11  C   UNL     1       0.986   2.942  20.663  0.00  0.00    +0.000 C 
ATOM     12  O   UNL     1       1.334   4.048  19.834  0.00  0.00    +0.000 OA
ENDROOT
BRANCH   2  13
ATOM     13  C   UNL     1       5.874   5.247  15.803  0.00  0.00    +0.000 A 
ATOM     14  C   UNL     1       5.052   4.327  15.099  0.00  0.00    +0.000 A 
ATOM     15  C   UNL     1       5.692   4.117  13.902  0.00  0.00    +0.000 A 
ATOM     16  C   UNL     1       5.463   3.290  12.766  0.00  0.00    +0.000 A 
ATOM     17  C   UNL     1       6.353   3.296  11.754  0.00  0.00    +0.000 A 
ATOM     18  C   UNL     1       7.546   4.124  11.795  0.00  0.00    +0.000 A 
ATOM     19  C   UNL     1       7.748   4.915  12.861  0.00  0.00    +0.000 A 
ATOM     20  N   UNL     1       6.824   4.927  13.904  0.00  0.00    +0.000 N 
ATOM     21  N   UNL     1       6.885   5.676  15.027  0.00  0.00    +0.000 NA
ENDBRANCH   2  13
TORSDOF 1
ENDMDL
MODEL 2
REMARK VINA RESULT:      -7.7      0.803      1.304
REMARK  Name = 
REMARK  1 active torsions:
REMARK  status: ('A' for Active; 'I' for Inactive)
REMARK    1  A    between atoms: C_2  and  C_3
REMARK                            x       y       z     vdW  Elec       q    Type
REMARK                         _______ _______ _______ _____ _____    ______ ____
ROOT
ATOM      1  O   UNL     1       5.627   6.996  17.278  0.00  0.00    +0.000 OA
ATOM      2  C   UNL     1       5.428   5.790  17.113  0.00  0.00    +0.000 C 
ATOM      3  N   UNL     1       4.848   4.995  18.111  0.00  0.00    +0.000 N 
ATOM      4  C   UNL     1       4.420   3.601  17.968  0.00  0.00    +0.000 C 
ATOM      5  C   UNL     1       2.940   3.452  18.291  0.00  0.00    +0.000 C 
ATOM      6  C   UNL     1       2.614   4.029  19.662  0.00  0.00    +0.000 C 
ATOM      7  C   UNL     1       3.130   5.461  19.806  0.00  0.00    +0.000 C 
ATOM      8  C   UNL     1       4.604   5.568  19.430  0.00  0.00    +0.000 C 
ATOM      9  O   UNL     1       3.203   3.185  20.667  0.00  0.00    +0.000 OA
ATOM     10  C   UNL     1       2.158   2.952  21.610  0.00  0.00    +0.000 C 
ATOM     11  C   UNL     1       0.907   3.020  20.780  0.00  0.00    +0.000 C 
ATOM     12  O   UNL     1       1.186   4.048  19.833  0.00  0.00    +0.000 OA
ENDROOT
BRANCH   2  13
ATOM     13  C   UNL     1       5.747   5.173  15.804  0.00  0.00    +0.000 A 
ATOM     14  C   UNL     1       6.992   5.262  15.128  0.00  0.00    +0.000 A 
ATOM     15  C   UNL     1       6.797   4.618  13.931  0.00  0.00    +0.000 A 
ATOM     16  C   UNL     1       7.586   4.383  12.769  0.00  0.00    +0.000 A 
ATOM     17  C   UNL     1       7.043   3.736  11.720  0.00  0.00    +0.000 A 
ATOM     18  C   UNL     1       5.665   3.274  11.741  0.00  0.00    +0.000 A 
ATOM     19  C   UNL     1       4.931   3.482  12.846  0.00  0.00    +0.000 A 
ATOM     20  N   UNL     1       5.492   4.135  13.942  0.00  0.00    +0.000 N 
ATOM     21  N   UNL     1       4.884   4.403  15.118  0.00  0.00    +0.000 NA
ENDBRANCH   2  13
TORSDOF 1
ENDMDL
MODEL 3
REMARK VINA RESULT:      -7.4      4.400      7.905
REMARK  Name = 
REMARK  1 active torsions:
REMARK  status: ('A' for Active; 'I' for Inactive)
REMARK    1  A    between atoms: C_2  and  C_3
REMARK                            x       y       z     vdW  Elec       q    Type
REMARK                         _______ _______ _______ _____ _____    ______ ____
ROOT
ATOM      1  O   UNL     1       2.947   8.466  17.783  0.00  0.00    +0.000 OA
ATOM      2  C   UNL     1       2.350   7.827  18.652  0.00  0.00    +0.000 C 
ATOM      3  N   UNL     1       2.399   6.428  18.704  0.00  0.00    +0.000 N 
ATOM      4  C   UNL     1       1.868   5.581  19.775  0.00  0.00    +0.000 C 
ATOM      5  C   UNL     1       2.964   4.713  20.375  0.00  0.00    +0.000 C 
ATOM      6  C   UNL     1       3.688   3.915  19.299  0.00  0.00    +0.000 C 
ATOM      7  C   UNL     1       4.174   4.815  18.163  0.00  0.00    +0.000 C 
ATOM      8  C   UNL     1       3.052   5.696  17.623  0.00  0.00    +0.000 C 
ATOM      9  O   UNL     1       2.791   2.913  18.790  0.00  0.00    +0.000 OA
ATOM     10  C   UNL     1       3.546   1.702  18.803  0.00  0.00    +0.000 C 
ATOM     11  C   UNL     1       4.502   1.890  19.948  0.00  0.00    +0.000 C 
ATOM     12  O   UNL     1       4.835   3.274  19.886  0.00  0.00    +0.000 OA
ENDROOT
BRANCH   2  13
ATOM     13  C   UNL     1       1.612   8.554  19.712  0.00  0.00    +0.000 A 
ATOM     14  C   UNL     1       1.503   8.154  21.070  0.00  0.00    +0.000 A 
ATOM     15  C   UNL     1       0.665   9.075  21.649  0.00  0.00    +0.000 A 
ATOM     16  C   UNL     1       0.091   9.247  22.941  0.00  0.00    +0.000 A 
ATOM     17  C   UNL     1      -0.759  10.269  23.156  0.00  0.00    +0.000 A 
ATOM     18  C   UNL     1      -1.111  11.202  22.099  0.00  0.00    +0.000 A 
ATOM     19  C   UNL     1      -0.554  11.045  20.888  0.00  0.00    +0.000 A 
ATOM     20  N   UNL     1       0.341  10.001  20.662  0.00  0.00    +0.000 N 
ATOM     21  N   UNL     1       0.986   9.727  19.507  0.00  0.00    +0.000 NA
ENDBRANCH   2  13
TORSDOF 1
ENDMDL
MODEL 4
REMARK VINA RESULT:      -7.2      4.284      7.743
REMARK  Name = 
REMARK  1 active torsions:
REMARK  status: ('A' for Active; 'I' for Inactive)
REMARK    1  A    between atoms: C_2  and  C_3
REMARK                            x       y       z     vdW  Elec       q    Type
REMARK                         _______ _______ _______ _____ _____    ______ ____
ROOT
ATOM      1  O   UNL     1       3.265   8.388  17.724  0.00  0.00    +0.000 OA
ATOM      2  C   UNL     1       2.552   7.732  18.486  0.00  0.00    +0.000 C 
ATOM      3  N   UNL     1       2.590   6.331  18.511  0.00  0.00    +0.000 N 
ATOM      4  C   UNL     1       1.913   5.463  19.478  0.00  0.00    +0.000 C 
ATOM      5  C   UNL     1       2.914   4.576  20.204  0.00  0.00    +0.000 C 
ATOM      6  C   UNL     1       3.778   3.798  19.221  0.00  0.00    +0.000 C 
ATOM      7  C   UNL     1       4.420   4.723  18.185  0.00  0.00    +0.000 C 
ATOM      8  C   UNL     1       3.385   5.621  17.515  0.00  0.00    +0.000 C 
ATOM      9  O   UNL     1       2.959   2.813  18.568  0.00  0.00    +0.000 OA
ATOM     10  C   UNL     1       3.703   1.599  18.658  0.00  0.00    +0.000 C 
ATOM     11  C   UNL     1       4.490   1.755  19.929  0.00  0.00    +0.000 C 
ATOM     12  O   UNL     1       4.831   3.139  19.946  0.00  0.00    +0.000 OA
ENDROOT
BRANCH   2  13
ATOM     13  C   UNL     1       1.674   8.438  19.450  0.00  0.00    +0.000 A 
ATOM     14  C   UNL     1       0.828   9.538  19.148  0.00  0.00    +0.000 A 
ATOM     15  C   UNL     1       0.281   9.911  20.352  0.00  0.00    +0.000 A 
ATOM     16  C   UNL     1      -0.589  10.949  20.787  0.00  0.00    +0.000 A 
ATOM     17  C   UNL     1      -0.889  11.055  22.096  0.00  0.00    +0.000 A 
ATOM     18  C   UNL     1      -0.341  10.137  23.079  0.00  0.00    +0.000 A 
ATOM     19  C   UNL     1       0.466   9.149  22.661  0.00  0.00    +0.000 A 
ATOM     20  N   UNL     1       0.767   9.021  21.306  0.00  0.00    +0.000 N 
ATOM     21  N   UNL     1       1.547   8.076  20.739  0.00  0.00    +0.000 NA
ENDBRANCH   2  13
TORSDOF 1
ENDMDL
MODEL 5
REMARK VINA RESULT:      -7.1      3.659      7.543
REMARK  Name = 
REMARK  1 active torsions:
REMARK  status: ('A' for Active; 'I' for Inactive)
REMARK    1  A    between atoms: C_2  and  C_3
REMARK                            x       y       z     vdW  Elec       q    Type
REMARK                         _______ _______ _______ _____ _____    ______ ____
ROOT
ATOM      1  O   UNL     1       1.868   4.858  19.867  0.00  0.00    +0.000 OA
ATOM      2  C   UNL     1       2.527   5.818  19.462  0.00  0.00    +0.000 C 
ATOM      3  N   UNL     1       3.719   5.644  18.745  0.00  0.00    +0.000 N 
ATOM      4  C   UNL     1       4.492   6.698  18.081  0.00  0.00    +0.000 C 
ATOM      5  C   UNL     1       4.645   6.404  16.596  0.00  0.00    +0.000 C 
ATOM      6  C   UNL     1       5.226   5.015  16.365  0.00  0.00    +0.000 C 
ATOM      7  C   UNL     1       4.438   3.945  17.121  0.00  0.00    +0.000 C 
ATOM      8  C   UNL     1       4.274   4.304  18.595  0.00  0.00    +0.000 C 
ATOM      9  O   UNL     1       6.599   5.015  16.790  0.00  0.00    +0.000 OA
ATOM     10  C   UNL     1       7.317   4.415  15.713  0.00  0.00    +0.000 C 
ATOM     11  C   UNL     1       6.507   4.776  14.499  0.00  0.00    +0.000 C 
ATOM     12  O   UNL     1       5.161   4.710  14.960  0.00  0.00    +0.000 OA
ENDROOT
BRANCH   2  13
ATOM     13  C   UNL     1       2.019   7.193  19.679  0.00  0.00    +0.000 A 
ATOM     14  C   UNL     1       1.557   7.720  20.913  0.00  0.00    +0.000 A 
ATOM     15  C   UNL     1       1.111   8.985  20.619  0.00  0.00    +0.000 A 
ATOM     16  C   UNL     1       0.482  10.032  21.352  0.00  0.00    +0.000 A 
ATOM     17  C   UNL     1       0.120  11.161  20.713  0.00  0.00    +0.000 A 
ATOM     18  C   UNL     1       0.350  11.338  19.290  0.00  0.00    +0.000 A 
ATOM     19  C   UNL     1       0.959  10.356  18.607  0.00  0.00    +0.000 A 
ATOM     20  N   UNL     1       1.352   9.191  19.263  0.00  0.00    +0.000 N 
ATOM     21  N   UNL     1       1.982   8.129  18.714  0.00  0.00    +0.000 NA
ENDBRANCH   2  13
TORSDOF 1
ENDMDL
MODEL 6
REMARK VINA RESULT:      -7.1      5.170      6.834
REMARK  Name = 
REMARK  1 active torsions:
REMARK  status: ('A' for Active; 'I' for Inactive)
REMARK    1  A    between atoms: C_2  and  C_3
REMARK                            x       y       z     vdW  Elec       q    Type
REMARK                         _______ _______ _______ _____ _____    ______ ____
ROOT
ATOM      1  O   UNL     1       1.755   7.414  20.913  0.00  0.00    +0.000 OA
ATOM      2  C   UNL     1       1.840   7.807  19.747  0.00  0.00    +0.000 C 
ATOM      3  N   UNL     1       1.272   9.020  19.334  0.00  0.00    +0.000 N 
ATOM      4  C   UNL     1       1.448   9.659  18.027  0.00  0.00    +0.000 C 
ATOM      5  C   UNL     1       2.033  11.055  18.179  0.00  0.00    +0.000 C 
ATOM      6  C   UNL     1       1.204  11.899  19.139  0.00  0.00    +0.000 C 
ATOM      7  C   UNL     1       0.982  11.181  20.470  0.00  0.00    +0.000 C 
ATOM      8  C   UNL     1       0.437   9.771  20.265  0.00  0.00    +0.000 C 
ATOM      9  O   UNL     1      -0.058  12.195  18.517  0.00  0.00    +0.000 OA
ATOM     10  C   UNL     1      -0.234  13.600  18.692  0.00  0.00    +0.000 C 
ATOM     11  C   UNL     1       1.171  14.135  18.714  0.00  0.00    +0.000 C 
ATOM     12  O   UNL     1       1.905  13.127  19.404  0.00  0.00    +0.000 OA
ENDROOT
BRANCH   2  13
ATOM     13  C   UNL     1       2.617   7.013  18.766  0.00  0.00    +0.000 A 
ATOM     14  C   UNL     1       2.512   5.611  18.566  0.00  0.00    +0.000 A 
ATOM     15  C   UNL     1       3.471   5.309  17.631  0.00  0.00    +0.000 A 
ATOM     16  C   UNL     1       3.947   4.114  17.021  0.00  0.00    +0.000 A 
ATOM     17  C   UNL     1       4.975   4.179  16.152  0.00  0.00    +0.000 A 
ATOM     18  C   UNL     1       5.615   5.441  15.823  0.00  0.00    +0.000 A 
ATOM     19  C   UNL     1       5.151   6.567  16.388  0.00  0.00    +0.000 A 
ATOM     20  N   UNL     1       4.077   6.511  17.274  0.00  0.00    +0.000 N 
ATOM     21  N   UNL     1       3.497   7.555  17.906  0.00  0.00    +0.000 NA
ENDBRANCH   2  13
TORSDOF 1
ENDMDL
MODEL 7
REMARK VINA RESULT:      -7.0      3.105      7.252
REMARK  Name = 
REMARK  1 active torsions:
REMARK  status: ('A' for Active; 'I' for Inactive)
REMARK    1  A    between atoms: C_2  and  C_3
REMARK                            x       y       z     vdW  Elec       q    Type
REMARK                         _______ _______ _______ _____ _____    ______ ____
ROOT
ATOM      1  O   UNL     1       4.921   4.639  19.335  0.00  0.00    +0.000 OA
ATOM      2  C   UNL     1       4.757   5.531  18.500  0.00  0.00    +0.000 C 
ATOM      3  N   UNL     1       5.540   5.608  17.341  0.00  0.00    +0.000 N 
ATOM      4  C   UNL     1       5.329   6.519  16.212  0.00  0.00    +0.000 C 
ATOM      5  C   UNL     1       5.146   5.743  14.916  0.00  0.00    +0.000 C 
ATOM      6  C   UNL     1       6.299   4.777  14.683  0.00  0.00    +0.000 C 
ATOM      7  C   UNL     1       6.537   3.883  15.901  0.00  0.00    +0.000 C 
ATOM      8  C   UNL     1       6.672   4.702  17.181  0.00  0.00    +0.000 C 
ATOM      9  O   UNL     1       7.483   5.537  14.385  0.00  0.00    +0.000 OA
ATOM     10  C   UNL     1       8.031   4.921  13.221  0.00  0.00    +0.000 C 
ATOM     11  C   UNL     1       6.828   4.372  12.506  0.00  0.00    +0.000 C 
ATOM     12  O   UNL     1       5.980   3.931  13.564  0.00  0.00    +0.000 OA
ENDROOT
BRANCH   2  13
ATOM     13  C   UNL     1       3.662   6.512  18.688  0.00  0.00    +0.000 A 
ATOM     14  C   UNL     1       3.208   7.443  17.717  0.00  0.00    +0.000 A 
ATOM     15  C   UNL     1       2.251   8.192  18.358  0.00  0.00    +0.000 A 
ATOM     16  C   UNL     1       1.443   9.311  18.010  0.00  0.00    +0.000 A 
ATOM     17  C   UNL     1       0.618   9.844  18.933  0.00  0.00    +0.000 A 
ATOM     18  C   UNL     1       0.537   9.308  20.281  0.00  0.00    +0.000 A 
ATOM     19  C   UNL     1       1.288   8.242  20.599  0.00  0.00    +0.000 A 
ATOM     20  N   UNL     1       2.130   7.673  19.645  0.00  0.00    +0.000 N 
ATOM     21  N   UNL     1       2.930   6.598  19.813  0.00  0.00    +0.000 NA
ENDBRANCH   2  13
TORSDOF 1
ENDMDL
MODEL 8
REMARK VINA RESULT:      -7.0      3.806      7.535
REMARK  Name = 
REMARK  1 active torsions:
REMARK  status: ('A' for Active; 'I' for Inactive)
REMARK    1  A    between atoms: C_2  and  C_3
REMARK                            x       y       z     vdW  Elec       q    Type
REMARK                         _______ _______ _______ _____ _____    ______ ____
ROOT
ATOM      1  O   UNL     1       2.049   5.033  20.217  0.00  0.00    +0.000 OA
ATOM      2  C   UNL     1       2.622   5.963  19.646  0.00  0.00    +0.000 C 
ATOM      3  N   UNL     1       3.789   5.762  18.897  0.00  0.00    +0.000 N 
ATOM      4  C   UNL     1       4.458   6.754  18.051  0.00  0.00    +0.000 C 
ATOM      5  C   UNL     1       4.564   6.260  16.615  0.00  0.00    +0.000 C 
ATOM      6  C   UNL     1       5.227   4.891  16.550  0.00  0.00    +0.000 C 
ATOM      7  C   UNL     1       4.549   3.893  17.491  0.00  0.00    +0.000 C 
ATOM      8  C   UNL     1       4.427   4.449  18.906  0.00  0.00    +0.000 C 
ATOM      9  O   UNL     1       6.615   5.035  16.896  0.00  0.00    +0.000 OA
ATOM     10  C   UNL     1       7.323   4.332  15.876  0.00  0.00    +0.000 C 
ATOM     11  C   UNL     1       6.436   4.464  14.669  0.00  0.00    +0.000 C 
ATOM     12  O   UNL     1       5.119   4.384  15.208  0.00  0.00    +0.000 OA
ENDROOT
BRANCH   2  13
ATOM     13  C   UNL     1       2.032   7.322  19.695  0.00  0.00    +0.000 A 
ATOM     14  C   UNL     1       1.882   8.200  18.590  0.00  0.00    +0.000 A 
ATOM     15  C   UNL     1       1.374   9.361  19.121  0.00  0.00    +0.000 A 
ATOM     16  C   UNL     1       1.042  10.646  18.607  0.00  0.00    +0.000 A 
ATOM     17  C   UNL     1       0.601  11.601  19.449  0.00  0.00    +0.000 A 
ATOM     18  C   UNL     1       0.460  11.354  20.873  0.00  0.00    +0.000 A 
ATOM     19  C   UNL     1       0.758  10.135  21.350  0.00  0.00    +0.000 A 
ATOM     20  N   UNL     1       1.198   9.136  20.483  0.00  0.00    +0.000 N 
ATOM     21  N   UNL     1       1.521   7.867  20.813  0.00  0.00    +0.000 NA
ENDBRANCH   2  13
TORSDOF 1
ENDMDL
MODEL 9
REMARK VINA RESULT:      -6.9      6.734      8.549
REMARK  Name = 
REMARK  1 active torsions:
REMARK  status: ('A' for Active; 'I' for Inactive)
REMARK    1  A    between atoms: C_2  and  C_3
REMARK                            x       y       z     vdW  Elec       q    Type
REMARK                         _______ _______ _______ _____ _____    ______ ____
ROOT
ATOM      1  O   UNL     1       2.024  11.404  18.595  0.00  0.00    +0.000 OA
ATOM      2  C   UNL     1       1.212  10.499  18.799  0.00  0.00    +0.000 C 
ATOM      3  N   UNL     1      -0.165  10.746  18.876  0.00  0.00    +0.000 N 
ATOM      4  C   UNL     1      -1.224   9.736  18.953  0.00  0.00    +0.000 C 
ATOM      5  C   UNL     1      -2.204   9.889  17.799  0.00  0.00    +0.000 C 
ATOM      6  C   UNL     1      -2.751  11.308  17.723  0.00  0.00    +0.000 C 
ATOM      7  C   UNL     1      -1.625  12.343  17.710  0.00  0.00    +0.000 C 
ATOM      8  C   UNL     1      -0.646  12.123  18.859  0.00  0.00    +0.000 C 
ATOM      9  O   UNL     1      -3.615  11.529  18.850  0.00  0.00    +0.000 OA
ATOM     10  C   UNL     1      -4.801  12.099  18.299  0.00  0.00    +0.000 C 
ATOM     11  C   UNL     1      -4.870  11.512  16.917  0.00  0.00    +0.000 C 
ATOM     12  O   UNL     1      -3.506  11.453  16.507  0.00  0.00    +0.000 OA
ENDROOT
BRANCH   2  13
ATOM     13  C   UNL     1       1.692   9.100  18.903  0.00  0.00    +0.000 A 
ATOM     14  C   UNL     1       2.299   8.353  17.859  0.00  0.00    +0.000 A 
ATOM     15  C   UNL     1       2.496   7.099  18.383  0.00  0.00    +0.000 A 
ATOM     16  C   UNL     1       2.996   5.863  17.885  0.00  0.00    +0.000 A 
ATOM     17  C   UNL     1       2.999   4.779  18.686  0.00  0.00    +0.000 A 
ATOM     18  C   UNL     1       2.499   4.839  20.049  0.00  0.00    +0.000 A 
ATOM     19  C   UNL     1       2.045   6.012  20.519  0.00  0.00    +0.000 A 
ATOM     20  N   UNL     1       2.055   7.141  19.703  0.00  0.00    +0.000 N 
ATOM     21  N   UNL     1       1.644   8.383  20.040  0.00  0.00    +0.000 NA
ENDBRANCH   2  13
TORSDOF 1
ENDMDL
