MODEL 1
REMARK VINA RESULT:      -9.2      0.000      0.000
REMARK  Name = 
REMARK  4 active torsions:
REMARK  status: ('A' for Active; 'I' for Inactive)
REMARK    1  A    between atoms: C_2  and  C_4
REMARK    2  A    between atoms: N_7  and  C_8
REMARK    3  A    between atoms: C_14  and  C_15
REMARK    4  A    between atoms: C_18  and  N_19
REMARK                            x       y       z     vdW  Elec       q    Type
REMARK                         _______ _______ _______ _____ _____    ______ ____
ROOT
ATOM      1  C   UNL     1       3.546   4.127  19.640  0.00  0.00    +0.000 A 
ATOM      2  C   UNL     1       3.479   2.804  20.189  0.00  0.00    +0.000 A 
ATOM      3 CL   UNL     1       4.561   1.501  19.802  0.00  0.00    +0.000 Cl
ATOM      4  C   UNL     1       2.436   2.430  21.038  0.00  0.00    +0.000 A 
ATOM      5  N   UNL     1       1.432   3.237  21.410  0.00  0.00    +0.000 NA
ATOM      6  C   UNL     1       1.485   4.482  20.898  0.00  0.00    +0.000 A 
ATOM      7  C   UNL     1       2.475   5.002  20.028  0.00  0.00    +0.000 A 
ENDROOT
BRANCH   1  11
ATOM      8  C   UNL     1       5.993   5.846  16.629  0.00  0.00    +0.000 C 
ATOM      9  C   UNL     1       6.187   6.237  18.101  0.00  0.00    +0.000 C 
ATOM     10  C   UNL     1       5.825   5.153  19.120  0.00  0.00    +0.000 C 
ATOM     11  N   UNL     1       4.575   4.477  18.747  0.00  0.00    +0.000 N 
ATOM     12  C   UNL     1       4.654   3.853  17.423  0.00  0.00    +0.000 C 
ATOM     13  C   UNL     1       4.752   4.979  16.390  0.00  0.00    +0.000 C 
BRANCH   8  15
ATOM     14  N   UNL     1       7.366   5.408  14.683  0.00  0.00    +0.000 N 
ATOM     15  C   UNL     1       7.209   5.170  16.020  0.00  0.00    +0.000 C 
ATOM     16  O   UNL     1       7.981   4.450  16.632  0.00  0.00    +0.000 OA
ATOM     17  H   UNL     1       8.173   5.018  14.216  0.00  0.00    +0.000 HD
ATOM     18  H   UNL     1       6.772   6.044  14.162  0.00  0.00    +0.000 HD
ENDBRANCH   8  15
ENDBRANCH   1  11
BRANCH   7  19
ATOM     19  C   UNL     1       2.281   6.415  19.607  0.00  0.00    +0.000 A 
ATOM     20  C   UNL     1       2.539   6.860  18.308  0.00  0.00    +0.000 A 
ATOM     21  C   UNL     1       2.165   8.149  17.892  0.00  0.00    +0.000 A 
ATOM     22  C   UNL     1       1.640   9.088  18.787  0.00  0.00    +0.000 A 
ATOM     23  C   UNL     1       1.525   8.688  20.120  0.00  0.00    +0.000 A 
ATOM     24  C   UNL     1       1.811   7.377  20.518  0.00  0.00    +0.000 A 
BRANCH  22  25
ATOM     25  N   UNL     1       1.229  10.339  18.391  0.00  0.00    +0.000 N 
ATOM     26  C   UNL     1       2.155  11.428  18.065  0.00  0.00    +0.000 C 
ATOM     27  C   UNL     1       1.921  12.622  19.001  0.00  0.00    +0.000 C 
ATOM     28  O   UNL     1       0.541  13.041  18.987  0.00  0.00    +0.000 OA
ATOM     29  C   UNL     1      -0.311  11.960  19.401  0.00  0.00    +0.000 C 
ATOM     30  C   UNL     1      -0.182  10.740  18.470  0.00  0.00    +0.000 C 
ENDBRANCH  22  25
ENDBRANCH   7  19
TORSDOF 4
ENDMDL
MODEL 2
REMARK VINA RESULT:      -8.5      0.699      1.202
REMARK  Name = 
REMARK  4 active torsions:
REMARK  status: ('A' for Active; 'I' for Inactive)
REMARK    1  A    between atoms: C_2  and  C_4
REMARK    2  A    between atoms: N_7  and  C_8
REMARK    3  A    between atoms: C_14  and  C_15
REMARK    4  A    between atoms: C_18  and  N_19
REMARK                            x       y       z     vdW  Elec       q    Type
REMARK                         _______ _______ _______ _____ _____    ______ ____
ROOT
ATOM      1  C   UNL     1       3.601   4.183  19.615  0.00  0.00    +0.000 A 
ATOM      2  C   UNL     1       3.646   2.877  20.205  0.00  0.00    +0.000 A 
ATOM      3 CL   UNL     1       4.663   1.572  19.675  0.00  0.00    +0.000 Cl
ATOM      4  C   UNL     1       2.770   2.520  21.231  0.00  0.00    +0.000 A 
ATOM      5  N   UNL     1       1.834   3.329  21.746  0.00  0.00    +0.000 NA
ATOM      6  C   UNL     1       1.782   4.559  21.198  0.00  0.00    +0.000 A 
ATOM      7  C   UNL     1       2.601   5.060  20.157  0.00  0.00    +0.000 A 
ENDROOT
BRANCH   1  11
ATOM      8  C   UNL     1       6.678   4.380  16.700  0.00  0.00    +0.000 C 
ATOM      9  C   UNL     1       5.299   3.813  16.333  0.00  0.00    +0.000 C 
ATOM     10  C   UNL     1       4.123   4.389  17.124  0.00  0.00    +0.000 C 
ATOM     11  N   UNL     1       4.457   4.514  18.549  0.00  0.00    +0.000 N 
ATOM     12  C   UNL     1       5.624   5.374  18.773  0.00  0.00    +0.000 C 
ATOM     13  C   UNL     1       6.845   4.648  18.199  0.00  0.00    +0.000 C 
BRANCH   8  15
ATOM     14  N   UNL     1       6.750   5.557  14.585  0.00  0.00    +0.000 N 
ATOM     15  C   UNL     1       7.043   5.630  15.918  0.00  0.00    +0.000 C 
ATOM     16  O   UNL     1       7.575   6.617  16.398  0.00  0.00    +0.000 OA
ATOM     17  H   UNL     1       6.934   6.365  14.006  0.00  0.00    +0.000 HD
ATOM     18  H   UNL     1       6.260   4.772  14.169  0.00  0.00    +0.000 HD
ENDBRANCH   8  15
ENDBRANCH   1  11
BRANCH   7  19
ATOM     19  C   UNL     1       2.319   6.458  19.736  0.00  0.00    +0.000 A 
ATOM     20  C   UNL     1       2.557   6.921  18.439  0.00  0.00    +0.000 A 
ATOM     21  C   UNL     1       2.104   8.184  18.021  0.00  0.00    +0.000 A 
ATOM     22  C   UNL     1       1.513   9.086  18.913  0.00  0.00    +0.000 A 
ATOM     23  C   UNL     1       1.415   8.677  20.246  0.00  0.00    +0.000 A 
ATOM     24  C   UNL     1       1.782   7.387  20.644  0.00  0.00    +0.000 A 
BRANCH  22  25
ATOM     25  N   UNL     1       1.024  10.308  18.516  0.00  0.00    +0.000 N 
ATOM     26  C   UNL     1       1.868  11.494  18.332  0.00  0.00    +0.000 C 
ATOM     27  C   UNL     1       1.416  12.618  19.275  0.00  0.00    +0.000 C 
ATOM     28  O   UNL     1       0.010  12.903  19.120  0.00  0.00    +0.000 OA
ATOM     29  C   UNL     1      -0.770  11.729  19.400  0.00  0.00    +0.000 C 
ATOM     30  C   UNL     1      -0.419  10.569  18.450  0.00  0.00    +0.000 C 
ENDBRANCH  22  25
ENDBRANCH   7  19
TORSDOF 4
ENDMDL
MODEL 3
REMARK VINA RESULT:      -8.4      1.218      1.381
REMARK  Name = 
REMARK  4 active torsions:
REMARK  status: ('A' for Active; 'I' for Inactive)
REMARK    1  A    between atoms: C_2  and  C_4
REMARK    2  A    between atoms: N_7  and  C_8
REMARK    3  A    between atoms: C_14  and  C_15
REMARK    4  A    between atoms: C_18  and  N_19
REMARK                            x       y       z     vdW  Elec       q    Type
REMARK                         _______ _______ _______ _____ _____    ______ ____
ROOT
ATOM      1  C   UNL     1       3.051   3.746  19.011  0.00  0.00    +0.000 A 
ATOM      2  C   UNL     1       2.822   2.332  19.090  0.00  0.00    +0.000 A 
ATOM      3 CL   UNL     1       3.856   1.108  18.419  0.00  0.00    +0.000 Cl
ATOM      4  C   UNL     1       1.651   1.824  19.656  0.00  0.00    +0.000 A 
ATOM      5  N   UNL     1       0.663   2.576  20.160  0.00  0.00    +0.000 NA
ATOM      6  C   UNL     1       0.868   3.906  20.089  0.00  0.00    +0.000 A 
ATOM      7  C   UNL     1       1.999   4.563  19.546  0.00  0.00    +0.000 A 
ENDROOT
BRANCH   1  11
ATOM      8  C   UNL     1       6.005   6.064  17.035  0.00  0.00    +0.000 C 
ATOM      9  C   UNL     1       6.044   5.898  18.561  0.00  0.00    +0.000 C 
ATOM     10  C   UNL     1       5.461   4.586  19.092  0.00  0.00    +0.000 C 
ATOM     11  N   UNL     1       4.213   4.245  18.395  0.00  0.00    +0.000 N 
ATOM     12  C   UNL     1       4.404   4.109  16.948  0.00  0.00    +0.000 C 
ATOM     13  C   UNL     1       4.733   5.499  16.396  0.00  0.00    +0.000 C 
BRANCH   8  15
ATOM     14  N   UNL     1       7.913   4.573  17.080  0.00  0.00    +0.000 N 
ATOM     15  C   UNL     1       7.224   5.488  16.335  0.00  0.00    +0.000 C 
ATOM     16  O   UNL     1       7.600   5.811  15.220  0.00  0.00    +0.000 OA
ATOM     17  H   UNL     1       8.717   4.121  16.667  0.00  0.00    +0.000 HD
ATOM     18  H   UNL     1       7.595   4.246  17.986  0.00  0.00    +0.000 HD
ENDBRANCH   8  15
ENDBRANCH   1  11
BRANCH   7  19
ATOM     19  C   UNL     1       1.959   6.049  19.588  0.00  0.00    +0.000 A 
ATOM     20  C   UNL     1       2.277   6.848  18.486  0.00  0.00    +0.000 A 
ATOM     21  C   UNL     1       2.046   8.233  18.499  0.00  0.00    +0.000 A 
ATOM     22  C   UNL     1       1.612   8.897  19.652  0.00  0.00    +0.000 A 
ATOM     23  C   UNL     1       1.441   8.116  20.798  0.00  0.00    +0.000 A 
ATOM     24  C   UNL     1       1.583   6.724  20.763  0.00  0.00    +0.000 A 
BRANCH  22  25
ATOM     25  N   UNL     1       1.339  10.244  19.673  0.00  0.00    +0.000 N 
ATOM     26  C   UNL     1       1.117  11.003  20.908  0.00  0.00    +0.000 C 
ATOM     27  C   UNL     1      -0.287  11.625  20.903  0.00  0.00    +0.000 C 
ATOM     28  O   UNL     1      -0.512  12.412  19.715  0.00  0.00    +0.000 OA
ATOM     29  C   UNL     1      -0.368  11.595  18.542  0.00  0.00    +0.000 C 
ATOM     30  C   UNL     1       1.041  10.983  18.439  0.00  0.00    +0.000 C 
ENDBRANCH  22  25
ENDBRANCH   7  19
TORSDOF 4
ENDMDL
MODEL 4
REMARK VINA RESULT:      -8.2      1.565      2.025
REMARK  Name = 
REMARK  4 active torsions:
REMARK  status: ('A' for Active; 'I' for Inactive)
REMARK    1  A    between atoms: C_2  and  C_4
REMARK    2  A    between atoms: N_7  and  C_8
REMARK    3  A    between atoms: C_14  and  C_15
REMARK    4  A    between atoms: C_18  and  N_19
REMARK                            x       y       z     vdW  Elec       q    Type
REMARK                         _______ _______ _______ _____ _____    ______ ____
ROOT
ATOM      1  C   UNL     1       3.157   4.052  18.898  0.00  0.00    +0.000 A 
ATOM      2  C   UNL     1       2.993   2.629  18.846  0.00  0.00    +0.000 A 
ATOM      3 CL   UNL     1       4.147   1.509  18.186  0.00  0.00    +0.000 Cl
ATOM      4  C   UNL     1       1.802   2.026  19.254  0.00  0.00    +0.000 A 
ATOM      5  N   UNL     1       0.734   2.692  19.716  0.00  0.00    +0.000 NA
ATOM      6  C   UNL     1       0.878   4.031  19.768  0.00  0.00    +0.000 A 
ATOM      7  C   UNL     1       2.020   4.778  19.389  0.00  0.00    +0.000 A 
ENDROOT
BRANCH   1  11
ATOM      8  C   UNL     1       7.146   5.004  17.808  0.00  0.00    +0.000 C 
ATOM      9  C   UNL     1       6.139   4.548  16.741  0.00  0.00    +0.000 C 
ATOM     10  C   UNL     1       4.678   4.898  17.029  0.00  0.00    +0.000 C 
ATOM     11  N   UNL     1       4.345   4.649  18.439  0.00  0.00    +0.000 N 
ATOM     12  C   UNL     1       5.190   5.424  19.354  0.00  0.00    +0.000 C 
ATOM     13  C   UNL     1       6.615   4.873  19.238  0.00  0.00    +0.000 C 
BRANCH   8  15
ATOM     14  N   UNL     1       8.173   7.003  18.707  0.00  0.00    +0.000 N 
ATOM     15  C   UNL     1       7.664   6.414  17.585  0.00  0.00    +0.000 C 
ATOM     16  O   UNL     1       7.619   7.008  16.520  0.00  0.00    +0.000 OA
ATOM     17  H   UNL     1       8.567   7.931  18.629  0.00  0.00    +0.000 HD
ATOM     18  H   UNL     1       8.272   6.515  19.591  0.00  0.00    +0.000 HD
ENDBRANCH   8  15
ENDBRANCH   1  11
BRANCH   7  19
ATOM     19  C   UNL     1       1.901   6.252  19.542  0.00  0.00    +0.000 A 
ATOM     20  C   UNL     1       2.135   7.144  18.491  0.00  0.00    +0.000 A 
ATOM     21  C   UNL     1       1.829   8.510  18.614  0.00  0.00    +0.000 A 
ATOM     22  C   UNL     1       1.403   9.063  19.826  0.00  0.00    +0.000 A 
ATOM     23  C   UNL     1       1.318   8.194  20.917  0.00  0.00    +0.000 A 
ATOM     24  C   UNL     1       1.533   6.818  20.775  0.00  0.00    +0.000 A 
BRANCH  22  25
ATOM     25  N   UNL     1       1.059  10.388  19.955  0.00  0.00    +0.000 N 
ATOM     26  C   UNL     1       0.592  10.982  21.212  0.00  0.00    +0.000 C 
ATOM     27  C   UNL     1      -0.823  11.553  21.036  0.00  0.00    +0.000 C 
ATOM     28  O   UNL     1      -0.886  12.472  19.926  0.00  0.00    +0.000 OA
ATOM     29  C   UNL     1      -0.504  11.811  18.709  0.00  0.00    +0.000 C 
ATOM     30  C   UNL     1       0.933  11.263  18.782  0.00  0.00    +0.000 C 
ENDBRANCH  22  25
ENDBRANCH   7  19
TORSDOF 4
ENDMDL
MODEL 5
REMARK VINA RESULT:      -8.0      1.091      1.460
REMARK  Name = 
REMARK  4 active torsions:
REMARK  status: ('A' for Active; 'I' for Inactive)
REMARK    1  A    between atoms: C_2  and  C_4
REMARK    2  A    between atoms: N_7  and  C_8
REMARK    3  A    between atoms: C_14  and  C_15
REMARK    4  A    between atoms: C_18  and  N_19
REMARK                            x       y       z     vdW  Elec       q    Type
REMARK                         _______ _______ _______ _____ _____    ______ ____
ROOT
ATOM      1  C   UNL     1       3.321   4.315  19.506  0.00  0.00    +0.000 A 
ATOM      2  C   UNL     1       3.226   2.945  19.920  0.00  0.00    +0.000 A 
ATOM      3 CL   UNL     1       4.380   1.701  19.545  0.00  0.00    +0.000 Cl
ATOM      4  C   UNL     1       2.103   2.477  20.604  0.00  0.00    +0.000 A 
ATOM      5  N   UNL     1       1.042   3.229  20.927  0.00  0.00    +0.000 NA
ATOM      6  C   UNL     1       1.120   4.518  20.541  0.00  0.00    +0.000 A 
ATOM      7  C   UNL     1       2.189   5.132  19.844  0.00  0.00    +0.000 A 
ENDROOT
BRANCH   1  11
ATOM      8  C   UNL     1       7.158   4.966  17.816  0.00  0.00    +0.000 C 
ATOM      9  C   UNL     1       6.097   4.167  17.044  0.00  0.00    +0.000 C 
ATOM     10  C   UNL     1       4.646   4.554  17.336  0.00  0.00    +0.000 C 
ATOM     11  N   UNL     1       4.437   4.763  18.776  0.00  0.00    +0.000 N 
ATOM     12  C   UNL     1       5.308   5.811  19.318  0.00  0.00    +0.000 C 
ATOM     13  C   UNL     1       6.746   5.289  19.255  0.00  0.00    +0.000 C 
BRANCH   8  15
ATOM     14  N   UNL     1       7.869   7.276  17.957  0.00  0.00    +0.000 N 
ATOM     15  C   UNL     1       7.582   6.243  17.111  0.00  0.00    +0.000 C 
ATOM     16  O   UNL     1       7.644   6.377  15.900  0.00  0.00    +0.000 OA
ATOM     17  H   UNL     1       8.192   8.148  17.561  0.00  0.00    +0.000 HD
ATOM     18  H   UNL     1       7.878   7.177  18.967  0.00  0.00    +0.000 HD
ENDBRANCH   8  15
ENDBRANCH   1  11
BRANCH   7  19
ATOM     19  C   UNL     1       2.008   6.575  19.534  0.00  0.00    +0.000 A 
ATOM     20  C   UNL     1       2.188   7.103  18.253  0.00  0.00    +0.000 A 
ATOM     21  C   UNL     1       1.824   8.427  17.953  0.00  0.00    +0.000 A 
ATOM     22  C   UNL     1       1.389   9.314  18.944  0.00  0.00    +0.000 A 
ATOM     23  C   UNL     1       1.356   8.825  20.252  0.00  0.00    +0.000 A 
ATOM     24  C   UNL     1       1.630   7.483  20.539  0.00  0.00    +0.000 A 
BRANCH  22  25
ATOM     25  N   UNL     1       0.988  10.599  18.664  0.00  0.00    +0.000 N 
ATOM     26  C   UNL     1       1.912  11.736  18.594  0.00  0.00    +0.000 C 
ATOM     27  C   UNL     1       1.530  12.794  19.639  0.00  0.00    +0.000 C 
ATOM     28  O   UNL     1       0.148  13.188  19.510  0.00  0.00    +0.000 OA
ATOM     29  C   UNL     1      -0.712  12.049  19.676  0.00  0.00    +0.000 C 
ATOM     30  C   UNL     1      -0.434  10.963  18.621  0.00  0.00    +0.000 C 
ENDBRANCH  22  25
ENDBRANCH   7  19
TORSDOF 4
ENDMDL
MODEL 6
REMARK VINA RESULT:      -7.9      0.452      1.006
REMARK  Name = 
REMARK  4 active torsions:
REMARK  status: ('A' for Active; 'I' for Inactive)
REMARK    1  A    between atoms: C_2  and  C_4
REMARK    2  A    between atoms: N_7  and  C_8
REMARK    3  A    between atoms: C_14  and  C_15
REMARK    4  A    between atoms: C_18  and  N_19
REMARK                            x       y       z     vdW  Elec       q    Type
REMARK                         _______ _______ _______ _____ _____    ______ ____
ROOT
ATOM      1  C   UNL     1       3.703   4.058  19.831  0.00  0.00    +0.000 A 
ATOM      2  C   UNL     1       3.866   2.799  20.497  0.00  0.00    +0.000 A 
ATOM      3 CL   UNL     1       5.083   1.616  20.124  0.00  0.00    +0.000 Cl
ATOM      4  C   UNL     1       2.960   2.378  21.471  0.00  0.00    +0.000 A 
ATOM      5  N   UNL     1       1.887   3.080  21.865  0.00  0.00    +0.000 NA
ATOM      6  C   UNL     1       1.724   4.264  21.244  0.00  0.00    +0.000 A 
ATOM      7  C   UNL     1       2.557   4.820  20.242  0.00  0.00    +0.000 A 
ENDROOT
BRANCH   1  11
ATOM      8  C   UNL     1       5.632   5.780  16.467  0.00  0.00    +0.000 C 
ATOM      9  C   UNL     1       5.899   6.328  17.876  0.00  0.00    +0.000 C 
ATOM     10  C   UNL     1       5.773   5.307  19.009  0.00  0.00    +0.000 C 
ATOM     11  N   UNL     1       4.596   4.449  18.817  0.00  0.00    +0.000 N 
ATOM     12  C   UNL     1       4.643   3.718  17.546  0.00  0.00    +0.000 C 
ATOM     13  C   UNL     1       4.501   4.747  16.421  0.00  0.00    +0.000 C 
BRANCH   8  15
ATOM     14  N   UNL     1       6.894   5.367  14.442  0.00  0.00    +0.000 N 
ATOM     15  C   UNL     1       6.870   5.207  15.799  0.00  0.00    +0.000 C 
ATOM     16  O   UNL     1       7.768   4.625  16.386  0.00  0.00    +0.000 OA
ATOM     17  H   UNL     1       7.704   5.041  13.932  0.00  0.00    +0.000 HD
ATOM     18  H   UNL     1       6.189   5.892  13.935  0.00  0.00    +0.000 HD
ENDBRANCH   8  15
ENDBRANCH   1  11
BRANCH   7  19
ATOM     19  C   UNL     1       2.134   6.146  19.720  0.00  0.00    +0.000 A 
ATOM     20  C   UNL     1       1.605   7.149  20.537  0.00  0.00    +0.000 A 
ATOM     21  C   UNL     1       1.396   8.450  20.051  0.00  0.00    +0.000 A 
ATOM     22  C   UNL     1       1.582   8.771  18.702  0.00  0.00    +0.000 A 
ATOM     23  C   UNL     1       1.965   7.727  17.856  0.00  0.00    +0.000 A 
ATOM     24  C   UNL     1       2.261   6.453  18.354  0.00  0.00    +0.000 A 
BRANCH  22  25
ATOM     25  N   UNL     1       1.424  10.047  18.216  0.00  0.00    +0.000 N 
ATOM     26  C   UNL     1       2.540  10.978  18.014  0.00  0.00    +0.000 C 
ATOM     27  C   UNL     1       2.341  12.237  18.871  0.00  0.00    +0.000 C 
ATOM     28  O   UNL     1       1.056  12.844  18.627  0.00  0.00    +0.000 OA
ATOM     29  C   UNL     1       0.002  11.915  18.926  0.00  0.00    +0.000 C 
ATOM     30  C   UNL     1       0.093  10.646  18.059  0.00  0.00    +0.000 C 
ENDBRANCH  22  25
ENDBRANCH   7  19
TORSDOF 4
ENDMDL
MODEL 7
REMARK VINA RESULT:      -7.7      2.105      2.599
REMARK  Name = 
REMARK  4 active torsions:
REMARK  status: ('A' for Active; 'I' for Inactive)
REMARK    1  A    between atoms: C_2  and  C_4
REMARK    2  A    between atoms: N_7  and  C_8
REMARK    3  A    between atoms: C_14  and  C_15
REMARK    4  A    between atoms: C_18  and  N_19
REMARK                            x       y       z     vdW  Elec       q    Type
REMARK                         _______ _______ _______ _____ _____    ______ ____
ROOT
ATOM      1  C   UNL     1       3.527   4.582  18.085  0.00  0.00    +0.000 A 
ATOM      2  C   UNL     1       3.502   3.203  17.694  0.00  0.00    +0.000 A 
ATOM      3 CL   UNL     1       4.815   2.349  16.941  0.00  0.00    +0.000 Cl
ATOM      4  C   UNL     1       2.336   2.444  17.810  0.00  0.00    +0.000 A 
ATOM      5  N   UNL     1       1.170   2.909  18.278  0.00  0.00    +0.000 NA
ATOM      6  C   UNL     1       1.183   4.205  18.648  0.00  0.00    +0.000 A 
ATOM      7  C   UNL     1       2.283   5.095  18.588  0.00  0.00    +0.000 A 
ENDROOT
BRANCH   1  11
ATOM      8  C   UNL     1       7.485   6.010  17.537  0.00  0.00    +0.000 C 
ATOM      9  C   UNL     1       6.506   5.967  16.354  0.00  0.00    +0.000 C 
ATOM     10  C   UNL     1       5.030   6.131  16.720  0.00  0.00    +0.000 C 
ATOM     11  N   UNL     1       4.694   5.349  17.918  0.00  0.00    +0.000 N 
ATOM     12  C   UNL     1       5.500   5.740  19.080  0.00  0.00    +0.000 C 
ATOM     13  C   UNL     1       6.946   5.323  18.796  0.00  0.00    +0.000 C 
BRANCH   8  15
ATOM     14  N   UNL     1       8.588   7.507  19.088  0.00  0.00    +0.000 N 
ATOM     15  C   UNL     1       7.948   7.415  17.884  0.00  0.00    +0.000 C 
ATOM     16  O   UNL     1       7.759   8.399  17.189  0.00  0.00    +0.000 OA
ATOM     17  H   UNL     1       8.956   8.405  19.371  0.00  0.00    +0.000 HD
ATOM     18  H   UNL     1       8.807   6.699  19.661  0.00  0.00    +0.000 HD
ENDBRANCH   8  15
ENDBRANCH   1  11
BRANCH   7  19
ATOM     19  C   UNL     1       2.013   6.481  19.054  0.00  0.00    +0.000 A 
ATOM     20  C   UNL     1       1.997   7.581  18.191  0.00  0.00    +0.000 A 
ATOM     21  C   UNL     1       1.552   8.841  18.626  0.00  0.00    +0.000 A 
ATOM     22  C   UNL     1       1.230   9.086  19.965  0.00  0.00    +0.000 A 
ATOM     23  C   UNL     1       1.395   8.022  20.855  0.00  0.00    +0.000 A 
ATOM     24  C   UNL     1       1.749   6.744  20.409  0.00  0.00    +0.000 A 
BRANCH  22  25
ATOM     25  N   UNL     1       0.753  10.299  20.402  0.00  0.00    +0.000 N 
ATOM     26  C   UNL     1       0.609  10.648  21.819  0.00  0.00    +0.000 C 
ATOM     27  C   UNL     1      -0.859  10.959  22.143  0.00  0.00    +0.000 C 
ATOM     28  O   UNL     1      -1.390  11.971  21.262  0.00  0.00    +0.000 OA
ATOM     29  C   UNL     1      -1.304  11.537  19.895  0.00  0.00    +0.000 C 
ATOM     30  C   UNL     1       0.150  11.263  19.472  0.00  0.00    +0.000 C 
ENDBRANCH  22  25
ENDBRANCH   7  19
TORSDOF 4
ENDMDL
MODEL 8
REMARK VINA RESULT:      -7.6      0.760      1.525
REMARK  Name = 
REMARK  4 active torsions:
REMARK  status: ('A' for Active; 'I' for Inactive)
REMARK    1  A    between atoms: C_2  and  C_4
REMARK    2  A    between atoms: N_7  and  C_8
REMARK    3  A    between atoms: C_14  and  C_15
REMARK    4  A    between atoms: C_18  and  N_19
REMARK                            x       y       z     vdW  Elec       q    Type
REMARK                         _______ _______ _______ _____ _____    ______ ____
ROOT
ATOM      1  C   UNL     1       3.552   4.166  19.710  0.00  0.00    +0.000 A 
ATOM      2  C   UNL     1       3.727   2.897  20.353  0.00  0.00    +0.000 A 
ATOM      3 CL   UNL     1       4.874   1.681  19.877  0.00  0.00    +0.000 Cl
ATOM      4  C   UNL     1       2.888   2.495  21.393  0.00  0.00    +0.000 A 
ATOM      5  N   UNL     1       1.872   3.226  21.875  0.00  0.00    +0.000 NA
ATOM      6  C   UNL     1       1.698   4.420  21.276  0.00  0.00    +0.000 A 
ATOM      7  C   UNL     1       2.466   4.959  20.214  0.00  0.00    +0.000 A 
ENDROOT
BRANCH   1  11
ATOM      8  C   UNL     1       6.576   4.520  16.754  0.00  0.00    +0.000 C 
ATOM      9  C   UNL     1       5.228   3.869  16.409  0.00  0.00    +0.000 C 
ATOM     10  C   UNL     1       4.030   4.382  17.211  0.00  0.00    +0.000 C 
ATOM     11  N   UNL     1       4.374   4.538  18.630  0.00  0.00    +0.000 N 
ATOM     12  C   UNL     1       5.491   5.466  18.833  0.00  0.00    +0.000 C 
ATOM     13  C   UNL     1       6.745   4.809  18.249  0.00  0.00    +0.000 C 
BRANCH   8  15
ATOM     14  N   UNL     1       6.223   5.830  14.749  0.00  0.00    +0.000 N 
ATOM     15  C   UNL     1       6.857   5.782  15.958  0.00  0.00    +0.000 C 
ATOM     16  O   UNL     1       7.599   6.680  16.322  0.00  0.00    +0.000 OA
ATOM     17  H   UNL     1       6.335   6.656  14.178  0.00  0.00    +0.000 HD
ATOM     18  H   UNL     1       5.559   5.125  14.445  0.00  0.00    +0.000 HD
ENDBRANCH   8  15
ENDBRANCH   1  11
BRANCH   7  19
ATOM     19  C   UNL     1       2.045   6.302  19.736  0.00  0.00    +0.000 A 
ATOM     20  C   UNL     1       1.546   7.289  20.590  0.00  0.00    +0.000 A 
ATOM     21  C   UNL     1       1.339   8.604  20.142  0.00  0.00    +0.000 A 
ATOM     22  C   UNL     1       1.497   8.957  18.797  0.00  0.00    +0.000 A 
ATOM     23  C   UNL     1       1.848   7.931  17.917  0.00  0.00    +0.000 A 
ATOM     24  C   UNL     1       2.143   6.642  18.375  0.00  0.00    +0.000 A 
BRANCH  22  25
ATOM     25  N   UNL     1       1.341  10.247  18.347  0.00  0.00    +0.000 N 
ATOM     26  C   UNL     1       2.462  11.101  17.941  0.00  0.00    +0.000 C 
ATOM     27  C   UNL     1       2.514  12.360  18.817  0.00  0.00    +0.000 C 
ATOM     28  O   UNL     1       1.251  13.057  18.815  0.00  0.00    +0.000 OA
ATOM     29  C   UNL     1       0.208  12.199  19.306  0.00  0.00    +0.000 C 
ATOM     30  C   UNL     1       0.048  10.938  18.439  0.00  0.00    +0.000 C 
ENDBRANCH  22  25
ENDBRANCH   7  19
TORSDOF 4
ENDMDL
MODEL 9
REMARK VINA RESULT:      -7.6      1.706      2.041
REMARK  Name = 
REMARK  4 active torsions:
REMARK  status: ('A' for Active; 'I' for Inactive)
REMARK    1  A    between atoms: C_2  and  C_4
REMARK    2  A    between atoms: N_7  and  C_8
REMARK    3  A    between atoms: C_14  and  C_15
REMARK    4  A    between atoms: C_18  and  N_19
REMARK                            x       y       z     vdW  Elec       q    Type
REMARK                         _______ _______ _______ _____ _____    ______ ____
ROOT
ATOM      1  C   UNL     1       3.263   4.343  18.802  0.00  0.00    +0.000 A 
ATOM      2  C   UNL     1       3.187   2.914  18.717  0.00  0.00    +0.000 A 
ATOM      3 CL   UNL     1       4.426   1.879  18.074  0.00  0.00    +0.000 Cl
ATOM      4  C   UNL     1       2.022   2.233  19.074  0.00  0.00    +0.000 A 
ATOM      5  N   UNL     1       0.901   2.824  19.513  0.00  0.00    +0.000 NA
ATOM      6  C   UNL     1       0.962   4.168  19.596  0.00  0.00    +0.000 A 
ATOM      7  C   UNL     1       2.069   4.989  19.269  0.00  0.00    +0.000 A 
ENDROOT
BRANCH   1  11
ATOM      8  C   UNL     1       7.201   5.511  17.737  0.00  0.00    +0.000 C 
ATOM      9  C   UNL     1       6.170   5.181  16.648  0.00  0.00    +0.000 C 
ATOM     10  C   UNL     1       4.712   5.460  17.021  0.00  0.00    +0.000 C 
ATOM     11  N   UNL     1       4.427   5.020  18.393  0.00  0.00    +0.000 N 
ATOM     12  C   UNL     1       5.286   5.682  19.379  0.00  0.00    +0.000 C 
ATOM     13  C   UNL     1       6.715   5.181  19.152  0.00  0.00    +0.000 C 
BRANCH   8  15
ATOM     14  N   UNL     1       8.415   7.325  18.784  0.00  0.00    +0.000 N 
ATOM     15  C   UNL     1       7.689   6.948  17.690  0.00  0.00    +0.000 C 
ATOM     16  O   UNL     1       7.449   7.732  16.786  0.00  0.00    +0.000 OA
ATOM     17  H   UNL     1       8.802   8.259  18.808  0.00  0.00    +0.000 HD
ATOM     18  H   UNL     1       8.675   6.681  19.524  0.00  0.00    +0.000 HD
ENDBRANCH   8  15
ENDBRANCH   1  11
BRANCH   7  19
ATOM     19  C   UNL     1       1.857   6.451  19.446  0.00  0.00    +0.000 A 
ATOM     20  C   UNL     1       2.038   7.373  18.412  0.00  0.00    +0.000 A 
ATOM     21  C   UNL     1       1.647   8.715  18.556  0.00  0.00    +0.000 A 
ATOM     22  C   UNL     1       1.181   9.219  19.775  0.00  0.00    +0.000 A 
ATOM     23  C   UNL     1       1.145   8.328  20.850  0.00  0.00    +0.000 A 
ATOM     24  C   UNL     1       1.448   6.971  20.686  0.00  0.00    +0.000 A 
BRANCH  22  25
ATOM     25  N   UNL     1       0.753  10.517  19.924  0.00  0.00    +0.000 N 
ATOM     26  C   UNL     1       1.538  11.680  19.498  0.00  0.00    +0.000 C 
ATOM     27  C   UNL     1       1.845  12.583  20.701  0.00  0.00    +0.000 C 
ATOM     28  O   UNL     1       0.641  12.950  21.406  0.00  0.00    +0.000 OA
ATOM     29  C   UNL     1      -0.037  11.774  21.877  0.00  0.00    +0.000 C 
ATOM     30  C   UNL     1      -0.438  10.842  20.719  0.00  0.00    +0.000 C 
ENDBRANCH  22  25
ENDBRANCH   7  19
TORSDOF 4
ENDMDL
