MODEL 1
REMARK VINA RESULT:      -7.6      0.000      0.000
REMARK  Name = 
REMARK  8 active torsions:
REMARK  status: ('A' for Active; 'I' for Inactive)
REMARK    1  A    between atoms: C_1  and  C_2
REMARK    2  A    between atoms: C_2  and  N_3
REMARK    3  A    between atoms: C_4  and  C_5
REMARK    4  A    between atoms: C_5  and  N_6
REMARK    5  A    between atoms: C_10  and  C_12
REMARK    6  A    between atoms: C_13  and  C_14
REMARK    7  A    between atoms: N_16  and  C_17
REMARK    8  A    between atoms: C_18  and  C_19
REMARK                            x       y       z     vdW  Elec       q    Type
REMARK                         _______ _______ _______ _____ _____    ______ ____
ROOT
ATOM      1  N   UNL     1       1.538   6.685  19.819  0.00  0.00    +0.000 NA
ATOM      2  C   UNL     1       1.895   6.740  18.391  0.00  0.00    +0.000 C 
ATOM      3  C   UNL     1       3.137   5.953  17.887  0.00  0.00    +0.000 C 
ATOM      4  N   UNL     1       3.993   5.323  18.891  0.00  0.00    +0.000 N 
ATOM      5  C   UNL     1       5.282   4.806  18.635  0.00  0.00    +0.000 C 
ATOM      6  O   UNL     1       5.776   3.983  19.411  0.00  0.00    +0.000 OA
ATOM      7  C   UNL     1       3.367   4.934  20.159  0.00  0.00    +0.000 C 
ATOM      8  C   UNL     1       1.885   5.334  20.309  0.00  0.00    +0.000 C 
ENDROOT
BRANCH   5   9
ATOM      9  C   UNL     1       6.053   5.234  17.455  0.00  0.00    +0.000 A 
ATOM     10  C   UNL     1       7.148   6.149  17.296  0.00  0.00    +0.000 A 
ATOM     11  C   UNL     1       7.863   7.025  18.269  0.00  0.00    +0.000 C 
ATOM     12  N   UNL     1       7.603   6.189  16.046  0.00  0.00    +0.000 NA
ATOM     13  N   UNL     1       6.907   5.237  15.405  0.00  0.00    +0.000 N 
ATOM     14  C   UNL     1       7.296   4.920  14.053  0.00  0.00    +0.000 C 
ATOM     15  C   UNL     1       5.940   4.657  16.181  0.00  0.00    +0.000 A 
ATOM     16  C   UNL     1       5.042   3.586  15.666  0.00  0.00    +0.000 C 
ENDBRANCH   5   9
BRANCH   1  17
ATOM     17  C   UNL     1       2.176   7.744  20.640  0.00  0.00    +0.000 C 
BRANCH  17  19
ATOM     18  N   UNL     1       0.905   9.989  20.371  0.00  0.00    +0.000 N 
ATOM     19  C   UNL     1       1.269   8.877  21.109  0.00  0.00    +0.000 A 
ATOM     20  N   UNL     1       0.571   8.852  22.240  0.00  0.00    +0.000 NA
ATOM     21  C   UNL     1      -0.151  10.024  22.277  0.00  0.00    +0.000 A 
ATOM     22  C   UNL     1      -1.110  10.487  23.198  0.00  0.00    +0.000 A 
ATOM     23  C   UNL     1      -1.669  11.764  23.020  0.00  0.00    +0.000 A 
ATOM     24  C   UNL     1      -1.253  12.584  21.972  0.00  0.00    +0.000 A 
ATOM     25  C   UNL     1      -0.321  12.130  21.033  0.00  0.00    +0.000 A 
ATOM     26  C   UNL     1       0.166  10.823  21.187  0.00  0.00    +0.000 A 
BRANCH  18  28
ATOM     27  C   UNL     1      -0.187   9.916  18.129  0.00  0.00    +0.000 C 
ATOM     28  C   UNL     1       1.075  10.206  18.945  0.00  0.00    +0.000 C 
ENDBRANCH  18  28
ENDBRANCH  17  19
ENDBRANCH   1  17
TORSDOF 4
ENDMDL
MODEL 2
REMARK VINA RESULT:      -7.0      3.098      4.850
REMARK  Name = 
REMARK  8 active torsions:
REMARK  status: ('A' for Active; 'I' for Inactive)
REMARK    1  A    between atoms: C_1  and  C_2
REMARK    2  A    between atoms: C_2  and  N_3
REMARK    3  A    between atoms: C_4  and  C_5
REMARK    4  A    between atoms: C_5  and  N_6
REMARK    5  A    between atoms: C_10  and  C_12
REMARK    6  A    between atoms: C_13  and  C_14
REMARK    7  A    between atoms: N_16  and  C_17
REMARK    8  A    between atoms: C_18  and  C_19
REMARK                            x       y       z     vdW  Elec       q    Type
REMARK                         _______ _______ _______ _____ _____    ______ ____
ROOT
ATOM      1  N   UNL     1       0.783  10.084  18.879  0.00  0.00    +0.000 NA
ATOM      2  C   UNL     1       1.005   9.028  19.881  0.00  0.00    +0.000 C 
ATOM      3  C   UNL     1       2.056   7.918  19.595  0.00  0.00    +0.000 C 
ATOM      4  N   UNL     1       2.660   7.884  18.264  0.00  0.00    +0.000 N 
ATOM      5  C   UNL     1       3.417   6.806  17.755  0.00  0.00    +0.000 C 
ATOM      6  O   UNL     1       4.183   6.992  16.806  0.00  0.00    +0.000 OA
ATOM      7  C   UNL     1       2.741   9.151  17.531  0.00  0.00    +0.000 C 
ATOM      8  C   UNL     1       2.081  10.357  18.229  0.00  0.00    +0.000 C 
ENDROOT
BRANCH   5   9
ATOM      9  C   UNL     1       3.309   5.457  18.338  0.00  0.00    +0.000 A 
ATOM     10  C   UNL     1       2.308   4.434  18.226  0.00  0.00    +0.000 A 
ATOM     11  C   UNL     1       0.998   4.395  17.512  0.00  0.00    +0.000 C 
ATOM     12  N   UNL     1       2.643   3.319  18.870  0.00  0.00    +0.000 NA
ATOM     13  N   UNL     1       3.892   3.545  19.306  0.00  0.00    +0.000 N 
ATOM     14  C   UNL     1       4.602   2.443  19.906  0.00  0.00    +0.000 C 
ATOM     15  C   UNL     1       4.332   4.817  19.054  0.00  0.00    +0.000 A 
ATOM     16  C   UNL     1       5.684   5.288  19.464  0.00  0.00    +0.000 C 
ENDBRANCH   5   9
BRANCH   1  17
ATOM     17  C   UNL     1      -0.268   9.756  17.884  0.00  0.00    +0.000 C 
BRANCH  17  19
ATOM     18  N   UNL     1      -2.664  10.429  17.154  0.00  0.00    +0.000 N 
ATOM     19  C   UNL     1      -1.594  10.496  18.028  0.00  0.00    +0.000 A 
ATOM     20  N   UNL     1      -1.953  11.173  19.113  0.00  0.00    +0.000 NA
ATOM     21  C   UNL     1      -3.224  11.648  18.872  0.00  0.00    +0.000 A 
ATOM     22  C   UNL     1      -4.115  12.357  19.699  0.00  0.00    +0.000 A 
ATOM     23  C   UNL     1      -5.354  12.766  19.177  0.00  0.00    +0.000 A 
ATOM     24  C   UNL     1      -5.685  12.513  17.847  0.00  0.00    +0.000 A 
ATOM     25  C   UNL     1      -4.823  11.787  17.019  0.00  0.00    +0.000 A 
ATOM     26  C   UNL     1      -3.626  11.323  17.584  0.00  0.00    +0.000 A 
BRANCH  18  28
ATOM     27  C   UNL     1      -2.898  10.123  14.689  0.00  0.00    +0.000 C 
ATOM     28  C   UNL     1      -2.877   9.478  16.077  0.00  0.00    +0.000 C 
ENDBRANCH  18  28
ENDBRANCH  17  19
ENDBRANCH   1  17
TORSDOF 4
ENDMDL
MODEL 3
REMARK VINA RESULT:      -7.0      1.085      2.160
REMARK  Name = 
REMARK  8 active torsions:
REMARK  status: ('A' for Active; 'I' for Inactive)
REMARK    1  A    between atoms: C_1  and  C_2
REMARK    2  A    between atoms: C_2  and  N_3
REMARK    3  A    between atoms: C_4  and  C_5
REMARK    4  A    between atoms: C_5  and  N_6
REMARK    5  A    between atoms: C_10  and  C_12
REMARK    6  A    between atoms: C_13  and  C_14
REMARK    7  A    between atoms: N_16  and  C_17
REMARK    8  A    between atoms: C_18  and  C_19
REMARK                            x       y       z     vdW  Elec       q    Type
REMARK                         _______ _______ _______ _____ _____    ______ ____
ROOT
ATOM      1  N   UNL     1       1.454   5.814  19.768  0.00  0.00    +0.000 NA
ATOM      2  C   UNL     1       1.807   5.899  18.340  0.00  0.00    +0.000 C 
ATOM      3  C   UNL     1       3.168   5.323  17.858  0.00  0.00    +0.000 C 
ATOM      4  N   UNL     1       4.110   4.868  18.879  0.00  0.00    +0.000 N 
ATOM      5  C   UNL     1       5.470   4.571  18.639  0.00  0.00    +0.000 C 
ATOM      6  O   UNL     1       6.090   3.860  19.434  0.00  0.00    +0.000 OA
ATOM      7  C   UNL     1       3.550   4.406  20.153  0.00  0.00    +0.000 C 
ATOM      8  C   UNL     1       2.020   4.553  20.289  0.00  0.00    +0.000 C 
ENDROOT
BRANCH   5   9
ATOM      9  C   UNL     1       6.167   5.098  17.452  0.00  0.00    +0.000 A 
ATOM     10  C   UNL     1       7.158   6.124  17.291  0.00  0.00    +0.000 A 
ATOM     11  C   UNL     1       7.802   7.050  18.267  0.00  0.00    +0.000 C 
ATOM     12  N   UNL     1       7.578   6.234  16.033  0.00  0.00    +0.000 NA
ATOM     13  N   UNL     1       6.969   5.228  15.386  0.00  0.00    +0.000 N 
ATOM     14  C   UNL     1       7.357   4.979  14.020  0.00  0.00    +0.000 C 
ATOM     15  C   UNL     1       6.084   4.537  16.169  0.00  0.00    +0.000 A 
ATOM     16  C   UNL     1       5.288   3.389  15.650  0.00  0.00    +0.000 C 
ENDBRANCH   5   9
BRANCH   1  17
ATOM     17  C   UNL     1       1.897   6.983  20.567  0.00  0.00    +0.000 C 
BRANCH  17  19
ATOM     18  N   UNL     1       0.249   8.974  20.777  0.00  0.00    +0.000 N 
ATOM     19  C   UNL     1       1.315   8.336  20.171  0.00  0.00    +0.000 A 
ATOM     20  N   UNL     1       1.876   9.157  19.289  0.00  0.00    +0.000 NA
ATOM     21  C   UNL     1       1.082  10.282  19.246  0.00  0.00    +0.000 A 
ATOM     22  C   UNL     1       1.240  11.495  18.550  0.00  0.00    +0.000 A 
ATOM     23  C   UNL     1       0.239  12.476  18.650  0.00  0.00    +0.000 A 
ATOM     24  C   UNL     1      -0.918  12.241  19.392  0.00  0.00    +0.000 A 
ATOM     25  C   UNL     1      -1.079  11.052  20.110  0.00  0.00    +0.000 A 
ATOM     26  C   UNL     1      -0.032  10.120  20.058  0.00  0.00    +0.000 A 
BRANCH  18  28
ATOM     27  C   UNL     1       0.003   9.608  23.177  0.00  0.00    +0.000 C 
ATOM     28  C   UNL     1      -0.379   8.650  22.046  0.00  0.00    +0.000 C 
ENDBRANCH  18  28
ENDBRANCH  17  19
ENDBRANCH   1  17
TORSDOF 4
ENDMDL
MODEL 4
REMARK VINA RESULT:      -7.0      2.797      9.561
REMARK  Name = 
REMARK  8 active torsions:
REMARK  status: ('A' for Active; 'I' for Inactive)
REMARK    1  A    between atoms: C_1  and  C_2
REMARK    2  A    between atoms: C_2  and  N_3
REMARK    3  A    between atoms: C_4  and  C_5
REMARK    4  A    between atoms: C_5  and  N_6
REMARK    5  A    between atoms: C_10  and  C_12
REMARK    6  A    between atoms: C_13  and  C_14
REMARK    7  A    between atoms: N_16  and  C_17
REMARK    8  A    between atoms: C_18  and  C_19
REMARK                            x       y       z     vdW  Elec       q    Type
REMARK                         _______ _______ _______ _____ _____    ______ ____
ROOT
ATOM      1  N   UNL     1       1.287   9.431  17.953  0.00  0.00    +0.000 NA
ATOM      2  C   UNL     1      -0.141   9.645  18.241  0.00  0.00    +0.000 C 
ATOM      3  C   UNL     1      -0.556  10.771  19.230  0.00  0.00    +0.000 C 
ATOM      4  N   UNL     1       0.508  11.460  19.957  0.00  0.00    +0.000 N 
ATOM      5  C   UNL     1       0.302  12.306  21.069  0.00  0.00    +0.000 C 
ATOM      6  O   UNL     1       1.173  13.120  21.387  0.00  0.00    +0.000 OA
ATOM      7  C   UNL     1       1.828  11.519  19.319  0.00  0.00    +0.000 C 
ATOM      8  C   UNL     1       1.948  10.752  17.987  0.00  0.00    +0.000 C 
ENDROOT
BRANCH   5   9
ATOM      9  C   UNL     1      -0.938  12.233  21.861  0.00  0.00    +0.000 A 
ATOM     10  C   UNL     1      -1.411  11.286  22.831  0.00  0.00    +0.000 A 
ATOM     11  C   UNL     1      -0.828  10.014  23.347  0.00  0.00    +0.000 C 
ATOM     12  N   UNL     1      -2.575  11.644  23.367  0.00  0.00    +0.000 NA
ATOM     13  N   UNL     1      -2.822  12.860  22.856  0.00  0.00    +0.000 N 
ATOM     14  C   UNL     1      -3.947  13.591  23.383  0.00  0.00    +0.000 C 
ATOM     15  C   UNL     1      -1.902  13.252  21.921  0.00  0.00    +0.000 A 
ATOM     16  C   UNL     1      -1.990  14.561  21.217  0.00  0.00    +0.000 C 
ENDBRANCH   5   9
BRANCH   1  17
ATOM     17  C   UNL     1       1.946   8.466  18.867  0.00  0.00    +0.000 C 
BRANCH  17  19
ATOM     18  N   UNL     1       2.853   6.076  18.430  0.00  0.00    +0.000 N 
ATOM     19  C   UNL     1       2.873   7.442  18.220  0.00  0.00    +0.000 A 
ATOM     20  N   UNL     1       3.717   7.722  17.232  0.00  0.00    +0.000 NA
ATOM     21  C   UNL     1       4.330   6.535  16.896  0.00  0.00    +0.000 A 
ATOM     22  C   UNL     1       5.249   6.230  15.873  0.00  0.00    +0.000 A 
ATOM     23  C   UNL     1       5.759   4.924  15.781  0.00  0.00    +0.000 A 
ATOM     24  C   UNL     1       5.400   3.951  16.712  0.00  0.00    +0.000 A 
ATOM     25  C   UNL     1       4.470   4.231  17.718  0.00  0.00    +0.000 A 
ATOM     26  C   UNL     1       3.915   5.519  17.743  0.00  0.00    +0.000 A 
BRANCH  18  28
ATOM     27  C   UNL     1       2.035   5.132  20.590  0.00  0.00    +0.000 C 
ATOM     28  C   UNL     1       1.819   5.290  19.083  0.00  0.00    +0.000 C 
ENDBRANCH  18  28
ENDBRANCH  17  19
ENDBRANCH   1  17
TORSDOF 4
ENDMDL
MODEL 5
REMARK VINA RESULT:      -6.8      4.291     10.520
REMARK  Name = 
REMARK  8 active torsions:
REMARK  status: ('A' for Active; 'I' for Inactive)
REMARK    1  A    between atoms: C_1  and  C_2
REMARK    2  A    between atoms: C_2  and  N_3
REMARK    3  A    between atoms: C_4  and  C_5
REMARK    4  A    between atoms: C_5  and  N_6
REMARK    5  A    between atoms: C_10  and  C_12
REMARK    6  A    between atoms: C_13  and  C_14
REMARK    7  A    between atoms: N_16  and  C_17
REMARK    8  A    between atoms: C_18  and  C_19
REMARK                            x       y       z     vdW  Elec       q    Type
REMARK                         _______ _______ _______ _____ _____    ______ ____
ROOT
ATOM      1  N   UNL     1      -0.283  11.731  18.592  0.00  0.00    +0.000 NA
ATOM      2  C   UNL     1      -1.679  11.263  18.634  0.00  0.00    +0.000 C 
ATOM      3  C   UNL     1      -2.749  12.127  19.358  0.00  0.00    +0.000 C 
ATOM      4  N   UNL     1      -2.284  13.292  20.109  0.00  0.00    +0.000 N 
ATOM      5  C   UNL     1      -3.071  14.020  21.028  0.00  0.00    +0.000 C 
ATOM      6  O   UNL     1      -2.748  15.171  21.332  0.00  0.00    +0.000 OA
ATOM      7  C   UNL     1      -1.036  13.922  19.666  0.00  0.00    +0.000 C 
ATOM      8  C   UNL     1      -0.314  13.206  18.507  0.00  0.00    +0.000 C 
ENDROOT
BRANCH   5   9
ATOM      9  C   UNL     1      -4.276  13.427  21.635  0.00  0.00    +0.000 A 
ATOM     10  C   UNL     1      -4.498  12.758  22.885  0.00  0.00    +0.000 A 
ATOM     11  C   UNL     1      -3.573  12.388  23.995  0.00  0.00    +0.000 C 
ATOM     12  N   UNL     1      -5.776  12.439  23.073  0.00  0.00    +0.000 NA
ATOM     13  N   UNL     1      -6.416  12.984  22.027  0.00  0.00    +0.000 N 
ATOM     14  C   UNL     1      -7.858  12.951  22.034  0.00  0.00    +0.000 C 
ATOM     15  C   UNL     1      -5.573  13.555  21.113  0.00  0.00    +0.000 A 
ATOM     16  C   UNL     1      -6.069  14.206  19.869  0.00  0.00    +0.000 C 
ENDBRANCH   5   9
BRANCH   1  17
ATOM     17  C   UNL     1       0.541  11.267  19.735  0.00  0.00    +0.000 C 
BRANCH  17  19
ATOM     18  N   UNL     1       0.819   8.818  20.544  0.00  0.00    +0.000 N 
ATOM     19  C   UNL     1       1.078   9.841  19.651  0.00  0.00    +0.000 A 
ATOM     20  N   UNL     1       1.735   9.355  18.603  0.00  0.00    +0.000 NA
ATOM     21  C   UNL     1       2.003   8.035  18.890  0.00  0.00    +0.000 A 
ATOM     22  C   UNL     1       2.602   7.026  18.113  0.00  0.00    +0.000 A 
ATOM     23  C   UNL     1       2.800   5.754  18.678  0.00  0.00    +0.000 A 
ATOM     24  C   UNL     1       2.450   5.502  20.004  0.00  0.00    +0.000 A 
ATOM     25  C   UNL     1       1.831   6.485  20.782  0.00  0.00    +0.000 A 
ATOM     26  C   UNL     1       1.573   7.722  20.172  0.00  0.00    +0.000 A 
BRANCH  18  28
ATOM     27  C   UNL     1       0.272   9.385  22.911  0.00  0.00    +0.000 C 
ATOM     28  C   UNL     1      -0.194   8.779  21.585  0.00  0.00    +0.000 C 
ENDBRANCH  18  28
ENDBRANCH  17  19
ENDBRANCH   1  17
TORSDOF 4
ENDMDL
MODEL 6
REMARK VINA RESULT:      -6.8      3.007      9.559
REMARK  Name = 
REMARK  8 active torsions:
REMARK  status: ('A' for Active; 'I' for Inactive)
REMARK    1  A    between atoms: C_1  and  C_2
REMARK    2  A    between atoms: C_2  and  N_3
REMARK    3  A    between atoms: C_4  and  C_5
REMARK    4  A    between atoms: C_5  and  N_6
REMARK    5  A    between atoms: C_10  and  C_12
REMARK    6  A    between atoms: C_13  and  C_14
REMARK    7  A    between atoms: N_16  and  C_17
REMARK    8  A    between atoms: C_18  and  C_19
REMARK                            x       y       z     vdW  Elec       q    Type
REMARK                         _______ _______ _______ _____ _____    ______ ____
ROOT
ATOM      1  N   UNL     1       0.828   9.720  18.480  0.00  0.00    +0.000 NA
ATOM      2  C   UNL     1      -0.542  10.217  18.697  0.00  0.00    +0.000 C 
ATOM      3  C   UNL     1      -0.760  11.486  19.568  0.00  0.00    +0.000 C 
ATOM      4  N   UNL     1       0.400  12.035  20.269  0.00  0.00    +0.000 N 
ATOM      5  C   UNL     1       0.333  13.003  21.294  0.00  0.00    +0.000 C 
ATOM      6  O   UNL     1       1.333  13.671  21.570  0.00  0.00    +0.000 OA
ATOM      7  C   UNL     1       1.719  11.793  19.675  0.00  0.00    +0.000 C 
ATOM      8  C   UNL     1       1.720  10.896  18.421  0.00  0.00    +0.000 C 
ENDROOT
BRANCH   5   9
ATOM      9  C   UNL     1      -0.913  13.232  22.046  0.00  0.00    +0.000 A 
ATOM     10  C   UNL     1      -1.844  14.325  22.063  0.00  0.00    +0.000 A 
ATOM     11  C   UNL     1      -1.851  15.639  21.356  0.00  0.00    +0.000 C 
ATOM     12  N   UNL     1      -2.893  14.090  22.847  0.00  0.00    +0.000 NA
ATOM     13  N   UNL     1      -2.730  12.822  23.255  0.00  0.00    +0.000 N 
ATOM     14  C   UNL     1      -3.808  12.213  23.995  0.00  0.00    +0.000 C 
ATOM     15  C   UNL     1      -1.549  12.267  22.842  0.00  0.00    +0.000 A 
ATOM     16  C   UNL     1      -1.158  10.873  23.192  0.00  0.00    +0.000 C 
ENDBRANCH   5   9
BRANCH   1  17
ATOM     17  C   UNL     1       1.280   8.740  19.498  0.00  0.00    +0.000 C 
BRANCH  17  19
ATOM     18  N   UNL     1       2.587   6.506  19.660  0.00  0.00    +0.000 N 
ATOM     19  C   UNL     1       2.305   7.708  19.038  0.00  0.00    +0.000 A 
ATOM     20  N   UNL     1       2.943   7.761  17.873  0.00  0.00    +0.000 NA
ATOM     21  C   UNL     1       3.735   6.636  17.813  0.00  0.00    +0.000 A 
ATOM     22  C   UNL     1       4.559   6.143  16.783  0.00  0.00    +0.000 A 
ATOM     23  C   UNL     1       5.307   4.975  17.006  0.00  0.00    +0.000 A 
ATOM     24  C   UNL     1       5.272   4.332  18.242  0.00  0.00    +0.000 A 
ATOM     25  C   UNL     1       4.440   4.793  19.267  0.00  0.00    +0.000 A 
ATOM     26  C   UNL     1       3.644   5.915  18.995  0.00  0.00    +0.000 A 
BRANCH  18  28
ATOM     27  C   UNL     1       1.162   4.544  20.243  0.00  0.00    +0.000 C 
ATOM     28  C   UNL     1       1.825   5.843  20.705  0.00  0.00    +0.000 C 
ENDBRANCH  18  28
ENDBRANCH  17  19
ENDBRANCH   1  17
TORSDOF 4
ENDMDL
MODEL 7
REMARK VINA RESULT:      -6.7      2.965      8.944
REMARK  Name = 
REMARK  8 active torsions:
REMARK  status: ('A' for Active; 'I' for Inactive)
REMARK    1  A    between atoms: C_1  and  C_2
REMARK    2  A    between atoms: C_2  and  N_3
REMARK    3  A    between atoms: C_4  and  C_5
REMARK    4  A    between atoms: C_5  and  N_6
REMARK    5  A    between atoms: C_10  and  C_12
REMARK    6  A    between atoms: C_13  and  C_14
REMARK    7  A    between atoms: N_16  and  C_17
REMARK    8  A    between atoms: C_18  and  C_19
REMARK                            x       y       z     vdW  Elec       q    Type
REMARK                         _______ _______ _______ _____ _____    ______ ____
ROOT
ATOM      1  N   UNL     1       1.781   9.352  17.852  0.00  0.00    +0.000 NA
ATOM      2  C   UNL     1       0.366   9.289  18.257  0.00  0.00    +0.000 C 
ATOM      3  C   UNL     1      -0.192  10.357  19.239  0.00  0.00    +0.000 C 
ATOM      4  N   UNL     1       0.763  11.284  19.845  0.00  0.00    +0.000 N 
ATOM      5  C   UNL     1       0.476  12.127  20.941  0.00  0.00    +0.000 C 
ATOM      6  O   UNL     1       1.183  13.115  21.153  0.00  0.00    +0.000 OA
ATOM      7  C   UNL     1       1.988  11.575  19.092  0.00  0.00    +0.000 C 
ATOM      8  C   UNL     1       2.157  10.779  17.782  0.00  0.00    +0.000 C 
ENDROOT
BRANCH   5   9
ATOM      9  C   UNL     1      -0.656  11.847  21.842  0.00  0.00    +0.000 A 
ATOM     10  C   UNL     1      -0.883  10.819  22.817  0.00  0.00    +0.000 A 
ATOM     11  C   UNL     1      -0.067   9.641  23.232  0.00  0.00    +0.000 C 
ATOM     12  N   UNL     1      -2.031  10.980  23.471  0.00  0.00    +0.000 NA
ATOM     13  N   UNL     1      -2.508  12.154  23.028  0.00  0.00    +0.000 N 
ATOM     14  C   UNL     1      -3.675  12.691  23.683  0.00  0.00    +0.000 C 
ATOM     15  C   UNL     1      -1.753  12.703  22.027  0.00  0.00    +0.000 A 
ATOM     16  C   UNL     1      -2.107  13.997  21.380  0.00  0.00    +0.000 C 
ENDBRANCH   5   9
BRANCH   1  17
ATOM     17  C   UNL     1       2.694   8.589  18.737  0.00  0.00    +0.000 C 
BRANCH  17  19
ATOM     18  N   UNL     1       2.872   6.078  18.111  0.00  0.00    +0.000 N 
ATOM     19  C   UNL     1       2.392   7.103  18.905  0.00  0.00    +0.000 A 
ATOM     20  N   UNL     1       1.756   6.588  19.952  0.00  0.00    +0.000 NA
ATOM     21  C   UNL     1       1.725   5.224  19.756  0.00  0.00    +0.000 A 
ATOM     22  C   UNL     1       1.248   4.186  20.577  0.00  0.00    +0.000 A 
ATOM     23  C   UNL     1       1.298   2.863  20.105  0.00  0.00    +0.000 A 
ATOM     24  C   UNL     1       1.770   2.581  18.824  0.00  0.00    +0.000 A 
ATOM     25  C   UNL     1       2.271   3.598  18.005  0.00  0.00    +0.000 A 
ATOM     26  C   UNL     1       2.283   4.900  18.528  0.00  0.00    +0.000 A 
BRANCH  18  28
ATOM     27  C   UNL     1       5.340   6.033  17.749  0.00  0.00    +0.000 C 
ATOM     28  C   UNL     1       3.944   6.137  17.132  0.00  0.00    +0.000 C 
ENDBRANCH  18  28
ENDBRANCH  17  19
ENDBRANCH   1  17
TORSDOF 4
ENDMDL
MODEL 8
REMARK VINA RESULT:      -6.7      5.422      9.093
REMARK  Name = 
REMARK  8 active torsions:
REMARK  status: ('A' for Active; 'I' for Inactive)
REMARK    1  A    between atoms: C_1  and  C_2
REMARK    2  A    between atoms: C_2  and  N_3
REMARK    3  A    between atoms: C_4  and  C_5
REMARK    4  A    between atoms: C_5  and  N_6
REMARK    5  A    between atoms: C_10  and  C_12
REMARK    6  A    between atoms: C_13  and  C_14
REMARK    7  A    between atoms: N_16  and  C_17
REMARK    8  A    between atoms: C_18  and  C_19
REMARK                            x       y       z     vdW  Elec       q    Type
REMARK                         _______ _______ _______ _____ _____    ______ ____
ROOT
ATOM      1  N   UNL     1      -4.040  13.777  24.022  0.00  0.00    +0.000 NA
ATOM      2  C   UNL     1      -3.805  12.332  23.850  0.00  0.00    +0.000 C 
ATOM      3  C   UNL     1      -2.431  11.845  23.312  0.00  0.00    +0.000 C 
ATOM      4  N   UNL     1      -1.488  12.859  22.844  0.00  0.00    +0.000 N 
ATOM      5  C   UNL     1      -0.325  12.586  22.091  0.00  0.00    +0.000 C 
ATOM      6  O   UNL     1       0.587  13.415  22.054  0.00  0.00    +0.000 OA
ATOM      7  C   UNL     1      -1.589  14.196  23.440  0.00  0.00    +0.000 C 
ATOM      8  C   UNL     1      -2.757  14.387  24.428  0.00  0.00    +0.000 C 
ENDROOT
BRANCH   5   9
ATOM      9  C   UNL     1      -0.180  11.324  21.344  0.00  0.00    +0.000 A 
ATOM     10  C   UNL     1      -0.159  11.031  19.939  0.00  0.00    +0.000 A 
ATOM     11  C   UNL     1      -0.319  11.900  18.737  0.00  0.00    +0.000 C 
ATOM     12  N   UNL     1       0.069   9.744  19.690  0.00  0.00    +0.000 NA
ATOM     13  N   UNL     1       0.310   9.205  20.896  0.00  0.00    +0.000 N 
ATOM     14  C   UNL     1       0.760   7.836  20.939  0.00  0.00    +0.000 C 
ATOM     15  C   UNL     1       0.139  10.089  21.927  0.00  0.00    +0.000 A 
ATOM     16  C   UNL     1       0.342   9.700  23.351  0.00  0.00    +0.000 C 
ENDBRANCH   5   9
BRANCH   1  17
ATOM     17  C   UNL     1      -4.606  14.441  22.823  0.00  0.00    +0.000 C 
BRANCH  17  19
ATOM     18  N   UNL     1      -6.265  12.913  21.543  0.00  0.00    +0.000 N 
ATOM     19  C   UNL     1      -5.033  13.527  21.679  0.00  0.00    +0.000 A 
ATOM     20  N   UNL     1      -4.324  13.340  20.571  0.00  0.00    +0.000 NA
ATOM     21  C   UNL     1      -5.063  12.495  19.773  0.00  0.00    +0.000 A 
ATOM     22  C   UNL     1      -4.834  12.026  18.466  0.00  0.00    +0.000 A 
ATOM     23  C   UNL     1      -5.743  11.119  17.896  0.00  0.00    +0.000 A 
ATOM     24  C   UNL     1      -6.836  10.652  18.625  0.00  0.00    +0.000 A 
ATOM     25  C   UNL     1      -7.093  11.127  19.914  0.00  0.00    +0.000 A 
ATOM     26  C   UNL     1      -6.214  12.090  20.434  0.00  0.00    +0.000 A 
BRANCH  18  28
ATOM     27  C   UNL     1      -7.662  12.300  23.517  0.00  0.00    +0.000 C 
ATOM     28  C   UNL     1      -7.484  13.187  22.283  0.00  0.00    +0.000 C 
ENDBRANCH  18  28
ENDBRANCH  17  19
ENDBRANCH   1  17
TORSDOF 4
ENDMDL
MODEL 9
REMARK VINA RESULT:      -6.6      3.306      8.406
REMARK  Name = 
REMARK  8 active torsions:
REMARK  status: ('A' for Active; 'I' for Inactive)
REMARK    1  A    between atoms: C_1  and  C_2
REMARK    2  A    between atoms: C_2  and  N_3
REMARK    3  A    between atoms: C_4  and  C_5
REMARK    4  A    between atoms: C_5  and  N_6
REMARK    5  A    between atoms: C_10  and  C_12
REMARK    6  A    between atoms: C_13  and  C_14
REMARK    7  A    between atoms: N_16  and  C_17
REMARK    8  A    between atoms: C_18  and  C_19
REMARK                            x       y       z     vdW  Elec       q    Type
REMARK                         _______ _______ _______ _____ _____    ______ ____
ROOT
ATOM      1  N   UNL     1       0.925   8.666  21.354  0.00  0.00    +0.000 NA
ATOM      2  C   UNL     1       1.220   9.995  21.917  0.00  0.00    +0.000 C 
ATOM      3  C   UNL     1       0.643  11.260  21.220  0.00  0.00    +0.000 C 
ATOM      4  N   UNL     1      -0.033  11.077  19.937  0.00  0.00    +0.000 N 
ATOM      5  C   UNL     1      -0.374  12.126  19.055  0.00  0.00    +0.000 C 
ATOM      6  O   UNL     1      -1.245  11.946  18.199  0.00  0.00    +0.000 OA
ATOM      7  C   UNL     1      -0.661   9.775  19.688  0.00  0.00    +0.000 C 
ATOM      8  C   UNL     1      -0.439   8.718  20.788  0.00  0.00    +0.000 C 
ENDROOT
BRANCH   5   9
ATOM      9  C   UNL     1       0.294  13.437  19.135  0.00  0.00    +0.000 A 
ATOM     10  C   UNL     1      -0.093  14.682  19.735  0.00  0.00    +0.000 A 
ATOM     11  C   UNL     1      -1.331  15.100  20.454  0.00  0.00    +0.000 C 
ATOM     12  N   UNL     1       0.854  15.612  19.636  0.00  0.00    +0.000 NA
ATOM     13  N   UNL     1       1.898  14.972  19.086  0.00  0.00    +0.000 N 
ATOM     14  C   UNL     1       3.150  15.681  19.003  0.00  0.00    +0.000 C 
ATOM     15  C   UNL     1       1.614  13.681  18.729  0.00  0.00    +0.000 A 
ATOM     16  C   UNL     1       2.623  12.792  18.089  0.00  0.00    +0.000 C 
ENDBRANCH   5   9
BRANCH   1  17
ATOM     17  C   UNL     1       1.916   8.205  20.351  0.00  0.00    +0.000 C 
BRANCH  17  19
ATOM     18  N   UNL     1       2.340   6.168  18.803  0.00  0.00    +0.000 N 
ATOM     19  C   UNL     1       1.863   6.728  19.974  0.00  0.00    +0.000 A 
ATOM     20  N   UNL     1       1.499   5.760  20.808  0.00  0.00    +0.000 NA
ATOM     21  C   UNL     1       1.630   4.578  20.113  0.00  0.00    +0.000 A 
ATOM     22  C   UNL     1       1.458   3.243  20.525  0.00  0.00    +0.000 A 
ATOM     23  C   UNL     1       1.613   2.211  19.583  0.00  0.00    +0.000 A 
ATOM     24  C   UNL     1       1.891   2.502  18.249  0.00  0.00    +0.000 A 
ATOM     25  C   UNL     1       2.091   3.820  17.828  0.00  0.00    +0.000 A 
ATOM     26  C   UNL     1       2.007   4.827  18.801  0.00  0.00    +0.000 A 
BRANCH  18  28
ATOM     27  C   UNL     1       4.653   6.285  17.874  0.00  0.00    +0.000 C 
ATOM     28  C   UNL     1       3.206   6.781  17.810  0.00  0.00    +0.000 C 
ENDBRANCH  18  28
ENDBRANCH  17  19
ENDBRANCH   1  17
TORSDOF 4
ENDMDL
