MODEL 1
REMARK VINA RESULT:      -8.7      0.000      0.000
REMARK  Name = 
REMARK  4 active torsions:
REMARK  status: ('A' for Active; 'I' for Inactive)
REMARK    1  A    between atoms: C_1  and  C_2
REMARK    2  A    between atoms: C_5  and  N_6
REMARK    3  A    between atoms: N_9  and  C_10
REMARK    4  A    between atoms: N_18  and  C_19
REMARK                            x       y       z     vdW  Elec       q    Type
REMARK                         _______ _______ _______ _____ _____    ______ ____
ROOT
ATOM      1  C   UNL     1       2.177   6.469  20.305  0.00  0.00    +0.000 A 
ATOM      2  C   UNL     1       1.449   5.479  20.952  0.00  0.00    +0.000 A 
ATOM      3  C   UNL     1       1.452   4.175  20.446  0.00  0.00    +0.000 A 
ATOM      4  C   UNL     1       2.226   3.810  19.353  0.00  0.00    +0.000 A 
ATOM      5  N   UNL     1       2.195   2.534  18.960  0.00  0.00    +0.000 NA
ATOM      6  C   UNL     1       2.973   2.208  17.925  0.00  0.00    +0.000 A 
ATOM      7  N   UNL     1       3.784   3.035  17.265  0.00  0.00    +0.000 NA
ATOM      8  C   UNL     1       3.816   4.320  17.669  0.00  0.00    +0.000 A 
ATOM      9  N   UNL     1       4.722   5.208  17.019  0.00  0.00    +0.000 N 
ATOM     10  C   UNL     1       3.013   4.787  18.728  0.00  0.00    +0.000 A 
ATOM     11  C   UNL     1       2.949   6.128  19.189  0.00  0.00    +0.000 A 
ATOM     12  H   UNL     1       5.314   5.641  17.720  0.00  0.00    +0.000 HD
ENDROOT
BRANCH   9  13
ATOM     13  C   UNL     1       5.440   4.875  15.844  0.00  0.00    +0.000 A 
ATOM     14  C   UNL     1       6.824   5.102  15.765  0.00  0.00    +0.000 A 
ATOM     15  C   UNL     1       7.537   4.847  14.591  0.00  0.00    +0.000 A 
ATOM     16  C   UNL     1       6.868   4.349  13.478  0.00  0.00    +0.000 A 
ATOM     17  C   UNL     1       5.504   4.094  13.559  0.00  0.00    +0.000 A 
ATOM     18  F   UNL     1       4.862   3.618  12.484  0.00  0.00    +0.000 F 
ATOM     19  C   UNL     1       4.788   4.341  14.729  0.00  0.00    +0.000 A 
ENDBRANCH   9  13
BRANCH   1  23
ATOM     20  N   UNL     1       1.040   9.737  21.391  0.00  0.00    +0.000 N 
ATOM     21  C   UNL     1       0.892   8.434  20.941  0.00  0.00    +0.000 C 
ATOM     22  O   UNL     1      -0.173   7.871  20.731  0.00  0.00    +0.000 OA
ATOM     23  N   UNL     1       2.118   7.795  20.793  0.00  0.00    +0.000 N 
ATOM     24  H   UNL     1       1.953  10.151  21.271  0.00  0.00    +0.000 HD
ATOM     25  H   UNL     1       2.797   8.044  21.499  0.00  0.00    +0.000 HD
BRANCH  20  30
ATOM     26  C   UNL     1      -3.237  13.275  22.921  0.00  0.00    +0.000 C 
ATOM     27  C   UNL     1      -2.110  12.376  22.502  0.00  0.00    +0.000 A 
ATOM     28  C   UNL     1      -1.781  11.286  23.311  0.00  0.00    +0.000 A 
ATOM     29  C   UNL     1      -0.745  10.417  22.960  0.00  0.00    +0.000 A 
ATOM     30  C   UNL     1      -0.016  10.598  21.784  0.00  0.00    +0.000 A 
ATOM     31  C   UNL     1      -0.329  11.694  20.972  0.00  0.00    +0.000 A 
ATOM     32  C   UNL     1      -1.367  12.574  21.329  0.00  0.00    +0.000 A 
ATOM     33 CL   UNL     1      -1.702  13.902  20.275  0.00  0.00    +0.000 Cl
ENDBRANCH  20  30
ENDBRANCH   1  23
TORSDOF 3
ENDMDL
MODEL 2
REMARK VINA RESULT:      -8.6      3.472      4.378
REMARK  Name = 
REMARK  4 active torsions:
REMARK  status: ('A' for Active; 'I' for Inactive)
REMARK    1  A    between atoms: C_1  and  C_2
REMARK    2  A    between atoms: C_5  and  N_6
REMARK    3  A    between atoms: N_9  and  C_10
REMARK    4  A    between atoms: N_18  and  C_19
REMARK                            x       y       z     vdW  Elec       q    Type
REMARK                         _______ _______ _______ _____ _____    ______ ____
ROOT
ATOM      1  C   UNL     1       1.223   9.551  18.890  0.00  0.00    +0.000 A 
ATOM      2  C   UNL     1       0.577   9.162  20.057  0.00  0.00    +0.000 A 
ATOM      3  C   UNL     1       0.849   7.908  20.613  0.00  0.00    +0.000 A 
ATOM      4  C   UNL     1       1.809   7.058  20.082  0.00  0.00    +0.000 A 
ATOM      5  N   UNL     1       2.028   5.894  20.700  0.00  0.00    +0.000 NA
ATOM      6  C   UNL     1       2.979   5.113  20.182  0.00  0.00    +0.000 A 
ATOM      7  N   UNL     1       3.733   5.396  19.120  0.00  0.00    +0.000 NA
ATOM      8  C   UNL     1       3.511   6.573  18.504  0.00  0.00    +0.000 A 
ATOM      9  N   UNL     1       4.348   6.925  17.405  0.00  0.00    +0.000 N 
ATOM     10  C   UNL     1       2.512   7.465  18.940  0.00  0.00    +0.000 A 
ATOM     11  C   UNL     1       2.180   8.701  18.326  0.00  0.00    +0.000 A 
ATOM     12  H   UNL     1       4.767   7.831  17.590  0.00  0.00    +0.000 HD
ENDROOT
BRANCH   9  13
ATOM     13  C   UNL     1       5.259   6.030  16.794  0.00  0.00    +0.000 A 
ATOM     14  C   UNL     1       5.034   5.563  15.488  0.00  0.00    +0.000 A 
ATOM     15  C   UNL     1       5.882   4.624  14.894  0.00  0.00    +0.000 A 
ATOM     16  C   UNL     1       6.979   4.146  15.604  0.00  0.00    +0.000 A 
ATOM     17  C   UNL     1       7.224   4.626  16.886  0.00  0.00    +0.000 A 
ATOM     18  F   UNL     1       8.278   4.161  17.569  0.00  0.00    +0.000 F 
ATOM     19  C   UNL     1       6.384   5.567  17.482  0.00  0.00    +0.000 A 
ENDBRANCH   9  13
BRANCH   1  23
ATOM     20  N   UNL     1       0.654  13.084  18.304  0.00  0.00    +0.000 N 
ATOM     21  C   UNL     1       1.066  11.974  19.026  0.00  0.00    +0.000 C 
ATOM     22  O   UNL     1       1.562  11.998  20.143  0.00  0.00    +0.000 OA
ATOM     23  N   UNL     1       0.896  10.796  18.307  0.00  0.00    +0.000 N 
ATOM     24  H   UNL     1       0.034  12.907  17.527  0.00  0.00    +0.000 HD
ATOM     25  H   UNL     1       1.080  10.891  17.318  0.00  0.00    +0.000 HD
BRANCH  20  30
ATOM     26  C   UNL     1       1.460  18.564  19.875  0.00  0.00    +0.000 C 
ATOM     27  C   UNL     1       1.282  17.129  19.471  0.00  0.00    +0.000 A 
ATOM     28  C   UNL     1      -0.003  16.583  19.473  0.00  0.00    +0.000 A 
ATOM     29  C   UNL     1      -0.221  15.255  19.099  0.00  0.00    +0.000 A 
ATOM     30  C   UNL     1       0.834  14.435  18.694  0.00  0.00    +0.000 A 
ATOM     31  C   UNL     1       2.127  14.969  18.699  0.00  0.00    +0.000 A 
ATOM     32  C   UNL     1       2.348  16.303  19.084  0.00  0.00    +0.000 A 
ATOM     33 CL   UNL     1       3.971  16.897  19.060  0.00  0.00    +0.000 Cl
ENDBRANCH  20  30
ENDBRANCH   1  23
TORSDOF 3
ENDMDL
MODEL 3
REMARK VINA RESULT:      -8.6      4.800     10.581
REMARK  Name = 
REMARK  4 active torsions:
REMARK  status: ('A' for Active; 'I' for Inactive)
REMARK    1  A    between atoms: C_1  and  C_2
REMARK    2  A    between atoms: C_5  and  N_6
REMARK    3  A    between atoms: N_9  and  C_10
REMARK    4  A    between atoms: N_18  and  C_19
REMARK                            x       y       z     vdW  Elec       q    Type
REMARK                         _______ _______ _______ _____ _____    ______ ____
ROOT
ATOM      1  C   UNL     1       0.054  10.773  22.279  0.00  0.00    +0.000 A 
ATOM      2  C   UNL     1      -1.068  10.583  23.076  0.00  0.00    +0.000 A 
ATOM      3  C   UNL     1      -1.964  11.639  23.274  0.00  0.00    +0.000 A 
ATOM      4  C   UNL     1      -1.816  12.862  22.634  0.00  0.00    +0.000 A 
ATOM      5  N   UNL     1      -2.740  13.801  22.853  0.00  0.00    +0.000 NA
ATOM      6  C   UNL     1      -2.585  14.955  22.199  0.00  0.00    +0.000 A 
ATOM      7  N   UNL     1      -1.606  15.244  21.342  0.00  0.00    +0.000 NA
ATOM      8  C   UNL     1      -0.680  14.291  21.120  0.00  0.00    +0.000 A 
ATOM      9  N   UNL     1       0.340  14.554  20.160  0.00  0.00    +0.000 N 
ATOM     10  C   UNL     1      -0.721  13.046  21.779  0.00  0.00    +0.000 A 
ATOM     11  C   UNL     1       0.234  12.005  21.640  0.00  0.00    +0.000 A 
ATOM     12  H   UNL     1       0.338  13.812  19.468  0.00  0.00    +0.000 HD
ENDROOT
BRANCH   9  13
ATOM     13  C   UNL     1       0.560  15.826  19.578  0.00  0.00    +0.000 A 
ATOM     14  C   UNL     1       1.469  16.728  20.155  0.00  0.00    +0.000 A 
ATOM     15  C   UNL     1       1.646  18.014  19.637  0.00  0.00    +0.000 A 
ATOM     16  C   UNL     1       0.917  18.410  18.521  0.00  0.00    +0.000 A 
ATOM     17  C   UNL     1       0.037  17.512  17.927  0.00  0.00    +0.000 A 
ATOM     18  F   UNL     1      -0.667  17.897  16.855  0.00  0.00    +0.000 F 
ATOM     19  C   UNL     1      -0.141  16.226  18.436  0.00  0.00    +0.000 A 
ENDBRANCH   9  13
BRANCH   1  23
ATOM     20  N   UNL     1       1.777   7.770  21.202  0.00  0.00    +0.000 N 
ATOM     21  C   UNL     1       0.788   8.741  21.162  0.00  0.00    +0.000 C 
ATOM     22  O   UNL     1      -0.130   8.788  20.357  0.00  0.00    +0.000 OA
ATOM     23  N   UNL     1       0.982   9.717  22.135  0.00  0.00    +0.000 N 
ATOM     24  H   UNL     1       2.306   7.705  22.060  0.00  0.00    +0.000 HD
ATOM     25  H   UNL     1       1.952   9.946  22.297  0.00  0.00    +0.000 HD
BRANCH  20  30
ATOM     26  C   UNL     1       2.441   3.500  17.398  0.00  0.00    +0.000 C 
ATOM     27  C   UNL     1       2.264   4.591  18.414  0.00  0.00    +0.000 A 
ATOM     28  C   UNL     1       2.712   5.877  18.106  0.00  0.00    +0.000 A 
ATOM     29  C   UNL     1       2.564   6.927  19.017  0.00  0.00    +0.000 A 
ATOM     30  C   UNL     1       1.949   6.730  20.254  0.00  0.00    +0.000 A 
ATOM     31  C   UNL     1       1.506   5.443  20.577  0.00  0.00    +0.000 A 
ATOM     32  C   UNL     1       1.663   4.384  19.665  0.00  0.00    +0.000 A 
ATOM     33 CL   UNL     1       1.087   2.821  20.129  0.00  0.00    +0.000 Cl
ENDBRANCH  20  30
ENDBRANCH   1  23
TORSDOF 3
ENDMDL
MODEL 4
REMARK VINA RESULT:      -8.6      3.337      4.294
REMARK  Name = 
REMARK  4 active torsions:
REMARK  status: ('A' for Active; 'I' for Inactive)
REMARK    1  A    between atoms: C_1  and  C_2
REMARK    2  A    between atoms: C_5  and  N_6
REMARK    3  A    between atoms: N_9  and  C_10
REMARK    4  A    between atoms: N_18  and  C_19
REMARK                            x       y       z     vdW  Elec       q    Type
REMARK                         _______ _______ _______ _____ _____    ______ ____
ROOT
ATOM      1  C   UNL     1       1.268   9.612  18.797  0.00  0.00    +0.000 A 
ATOM      2  C   UNL     1       0.637   9.220  19.971  0.00  0.00    +0.000 A 
ATOM      3  C   UNL     1       0.924   7.968  20.525  0.00  0.00    +0.000 A 
ATOM      4  C   UNL     1       1.884   7.124  19.984  0.00  0.00    +0.000 A 
ATOM      5  N   UNL     1       2.118   5.963  20.601  0.00  0.00    +0.000 NA
ATOM      6  C   UNL     1       3.068   5.187  20.074  0.00  0.00    +0.000 A 
ATOM      7  N   UNL     1       3.809   5.475  19.003  0.00  0.00    +0.000 NA
ATOM      8  C   UNL     1       3.573   6.650  18.388  0.00  0.00    +0.000 A 
ATOM      9  N   UNL     1       4.395   7.007  17.280  0.00  0.00    +0.000 N 
ATOM     10  C   UNL     1       2.572   7.535  18.834  0.00  0.00    +0.000 A 
ATOM     11  C   UNL     1       2.225   8.768  18.223  0.00  0.00    +0.000 A 
ATOM     12  H   UNL     1       4.810   7.915  17.460  0.00  0.00    +0.000 HD
ENDROOT
BRANCH   9  13
ATOM     13  C   UNL     1       5.306   6.117  16.660  0.00  0.00    +0.000 A 
ATOM     14  C   UNL     1       5.127   5.732  15.321  0.00  0.00    +0.000 A 
ATOM     15  C   UNL     1       5.973   4.800  14.713  0.00  0.00    +0.000 A 
ATOM     16  C   UNL     1       7.020   4.247  15.443  0.00  0.00    +0.000 A 
ATOM     17  C   UNL     1       7.219   4.646  16.760  0.00  0.00    +0.000 A 
ATOM     18  F   UNL     1       8.226   4.109  17.461  0.00  0.00    +0.000 F 
ATOM     19  C   UNL     1       6.382   5.579  17.370  0.00  0.00    +0.000 A 
ENDBRANCH   9  13
BRANCH   1  23
ATOM     20  N   UNL     1       0.649  13.138  18.220  0.00  0.00    +0.000 N 
ATOM     21  C   UNL     1       1.073  12.032  18.941  0.00  0.00    +0.000 C 
ATOM     22  O   UNL     1       1.560  12.059  20.062  0.00  0.00    +0.000 OA
ATOM     23  N   UNL     1       0.926  10.855  18.216  0.00  0.00    +0.000 N 
ATOM     24  H   UNL     1       0.037  12.955  17.438  0.00  0.00    +0.000 HD
ATOM     25  H   UNL     1       1.116  10.956  17.229  0.00  0.00    +0.000 HD
BRANCH  20  30
ATOM     26  C   UNL     1       1.214  18.631  19.853  0.00  0.00    +0.000 C 
ATOM     27  C   UNL     1       1.033  17.203  19.424  0.00  0.00    +0.000 A 
ATOM     28  C   UNL     1       2.143  16.495  18.957  0.00  0.00    +0.000 A 
ATOM     29  C   UNL     1       2.027  15.163  18.553  0.00  0.00    +0.000 A 
ATOM     30  C   UNL     1       0.805  14.491  18.618  0.00  0.00    +0.000 A 
ATOM     31  C   UNL     1      -0.315  15.194  19.074  0.00  0.00    +0.000 A 
ATOM     32  C   UNL     1      -0.201  16.538  19.472  0.00  0.00    +0.000 A 
ATOM     33 CL   UNL     1      -1.625  17.342  20.030  0.00  0.00    +0.000 Cl
ENDBRANCH  20  30
ENDBRANCH   1  23
TORSDOF 3
ENDMDL
MODEL 5
REMARK VINA RESULT:      -8.5      5.224     11.768
REMARK  Name = 
REMARK  4 active torsions:
REMARK  status: ('A' for Active; 'I' for Inactive)
REMARK    1  A    between atoms: C_1  and  C_2
REMARK    2  A    between atoms: C_5  and  N_6
REMARK    3  A    between atoms: N_9  and  C_10
REMARK    4  A    between atoms: N_18  and  C_19
REMARK                            x       y       z     vdW  Elec       q    Type
REMARK                         _______ _______ _______ _____ _____    ______ ____
ROOT
ATOM      1  C   UNL     1       0.380  11.479  21.301  0.00  0.00    +0.000 A 
ATOM      2  C   UNL     1       1.164  12.528  20.837  0.00  0.00    +0.000 A 
ATOM      3  C   UNL     1       0.571  13.763  20.554  0.00  0.00    +0.000 A 
ATOM      4  C   UNL     1      -0.774  14.008  20.794  0.00  0.00    +0.000 A 
ATOM      5  N   UNL     1      -1.246  15.228  20.527  0.00  0.00    +0.000 NA
ATOM      6  C   UNL     1      -2.537  15.441  20.798  0.00  0.00    +0.000 A 
ATOM      7  N   UNL     1      -3.384  14.554  21.321  0.00  0.00    +0.000 NA
ATOM      8  C   UNL     1      -2.900  13.327  21.593  0.00  0.00    +0.000 A 
ATOM      9  N   UNL     1      -3.771  12.382  22.211  0.00  0.00    +0.000 N 
ATOM     10  C   UNL     1      -1.564  12.976  21.319  0.00  0.00    +0.000 A 
ATOM     11  C   UNL     1      -0.983  11.698  21.531  0.00  0.00    +0.000 A 
ATOM     12  H   UNL     1      -3.334  12.043  23.062  0.00  0.00    +0.000 HD
ENDROOT
BRANCH   9  13
ATOM     13  C   UNL     1      -5.163  12.585  22.369  0.00  0.00    +0.000 A 
ATOM     14  C   UNL     1      -6.036  12.424  21.280  0.00  0.00    +0.000 A 
ATOM     15  C   UNL     1      -7.403  12.689  21.398  0.00  0.00    +0.000 A 
ATOM     16  C   UNL     1      -7.916  13.112  22.619  0.00  0.00    +0.000 A 
ATOM     17  C   UNL     1      -7.062  13.245  23.709  0.00  0.00    +0.000 A 
ATOM     18  F   UNL     1      -7.559  13.656  24.883  0.00  0.00    +0.000 F 
ATOM     19  C   UNL     1      -5.698  12.977  23.599  0.00  0.00    +0.000 A 
ENDBRANCH   9  13
BRANCH   1  23
ATOM     20  N   UNL     1       1.577   8.075  20.949  0.00  0.00    +0.000 N 
ATOM     21  C   UNL     1       0.980   9.253  20.527  0.00  0.00    +0.000 C 
ATOM     22  O   UNL     1       0.536   9.463  19.408  0.00  0.00    +0.000 OA
ATOM     23  N   UNL     1       0.981  10.220  21.527  0.00  0.00    +0.000 N 
ATOM     24  H   UNL     1       1.656   7.946  21.948  0.00  0.00    +0.000 HD
ATOM     25  H   UNL     1       1.814  10.216  22.099  0.00  0.00    +0.000 HD
BRANCH  20  30
ATOM     26  C   UNL     1       2.718   3.492  17.656  0.00  0.00    +0.000 C 
ATOM     27  C   UNL     1       2.416   4.667  18.541  0.00  0.00    +0.000 A 
ATOM     28  C   UNL     1       2.831   5.938  18.137  0.00  0.00    +0.000 A 
ATOM     29  C   UNL     1       2.567   7.063  18.923  0.00  0.00    +0.000 A 
ATOM     30  C   UNL     1       1.867   6.957  20.126  0.00  0.00    +0.000 A 
ATOM     31  C   UNL     1       1.457   5.687  20.545  0.00  0.00    +0.000 A 
ATOM     32  C   UNL     1       1.729   4.553  19.759  0.00  0.00    +0.000 A 
ATOM     33 CL   UNL     1       1.188   3.016  20.335  0.00  0.00    +0.000 Cl
ENDBRANCH  20  30
ENDBRANCH   1  23
TORSDOF 3
ENDMDL
MODEL 6
REMARK VINA RESULT:      -8.4      3.137      4.054
REMARK  Name = 
REMARK  4 active torsions:
REMARK  status: ('A' for Active; 'I' for Inactive)
REMARK    1  A    between atoms: C_1  and  C_2
REMARK    2  A    between atoms: C_5  and  N_6
REMARK    3  A    between atoms: N_9  and  C_10
REMARK    4  A    between atoms: N_18  and  C_19
REMARK                            x       y       z     vdW  Elec       q    Type
REMARK                         _______ _______ _______ _____ _____    ______ ____
ROOT
ATOM      1  C   UNL     1       1.294   9.538  18.853  0.00  0.00    +0.000 A 
ATOM      2  C   UNL     1       0.659   9.185  20.037  0.00  0.00    +0.000 A 
ATOM      3  C   UNL     1       0.915   7.937  20.614  0.00  0.00    +0.000 A 
ATOM      4  C   UNL     1       1.849   7.057  20.084  0.00  0.00    +0.000 A 
ATOM      5  N   UNL     1       2.054   5.901  20.721  0.00  0.00    +0.000 NA
ATOM      6  C   UNL     1       2.980   5.090  20.204  0.00  0.00    +0.000 A 
ATOM      7  N   UNL     1       3.722   5.337  19.124  0.00  0.00    +0.000 NA
ATOM      8  C   UNL     1       3.515   6.506  18.488  0.00  0.00    +0.000 A 
ATOM      9  N   UNL     1       4.340   6.820  17.369  0.00  0.00    +0.000 N 
ATOM     10  C   UNL     1       2.541   7.427  18.923  0.00  0.00    +0.000 A 
ATOM     11  C   UNL     1       2.224   8.658  18.289  0.00  0.00    +0.000 A 
ATOM     12  H   UNL     1       4.781   7.720  17.529  0.00  0.00    +0.000 HD
ENDROOT
BRANCH   9  13
ATOM     13  C   UNL     1       5.222   5.894  16.761  0.00  0.00    +0.000 A 
ATOM     14  C   UNL     1       6.454   5.582  17.361  0.00  0.00    +0.000 A 
ATOM     15  C   UNL     1       7.368   4.726  16.741  0.00  0.00    +0.000 A 
ATOM     16  C   UNL     1       7.053   4.162  15.510  0.00  0.00    +0.000 A 
ATOM     17  C   UNL     1       5.824   4.443  14.925  0.00  0.00    +0.000 A 
ATOM     18  F   UNL     1       5.524   3.902  13.737  0.00  0.00    +0.000 F 
ATOM     19  C   UNL     1       4.904   5.292  15.540  0.00  0.00    +0.000 A 
ENDBRANCH   9  13
BRANCH   1  23
ATOM     20  N   UNL     1       0.734  13.065  18.223  0.00  0.00    +0.000 N 
ATOM     21  C   UNL     1       1.125  11.962  18.967  0.00  0.00    +0.000 C 
ATOM     22  O   UNL     1       1.584  11.995  20.099  0.00  0.00    +0.000 OA
ATOM     23  N   UNL     1       0.982  10.778  18.250  0.00  0.00    +0.000 N 
ATOM     24  H   UNL     1       0.140  12.881  17.428  0.00  0.00    +0.000 HD
ATOM     25  H   UNL     1       1.199  10.867  17.267  0.00  0.00    +0.000 HD
BRANCH  20  30
ATOM     26  C   UNL     1       1.325  18.568  19.810  0.00  0.00    +0.000 C 
ATOM     27  C   UNL     1       1.138  17.138  19.391  0.00  0.00    +0.000 A 
ATOM     28  C   UNL     1       2.255  16.404  18.985  0.00  0.00    +0.000 A 
ATOM     29  C   UNL     1       2.133  15.069  18.593  0.00  0.00    +0.000 A 
ATOM     30  C   UNL     1       0.897  14.420  18.610  0.00  0.00    +0.000 A 
ATOM     31  C   UNL     1      -0.229  15.149  19.005  0.00  0.00    +0.000 A 
ATOM     32  C   UNL     1      -0.109  16.496  19.392  0.00  0.00    +0.000 A 
ATOM     33 CL   UNL     1      -1.542  17.333  19.874  0.00  0.00    +0.000 Cl
ENDBRANCH  20  30
ENDBRANCH   1  23
TORSDOF 3
ENDMDL
MODEL 7
REMARK VINA RESULT:      -8.4      5.116     10.820
REMARK  Name = 
REMARK  4 active torsions:
REMARK  status: ('A' for Active; 'I' for Inactive)
REMARK    1  A    between atoms: C_1  and  C_2
REMARK    2  A    between atoms: C_5  and  N_6
REMARK    3  A    between atoms: N_9  and  C_10
REMARK    4  A    between atoms: N_18  and  C_19
REMARK                            x       y       z     vdW  Elec       q    Type
REMARK                         _______ _______ _______ _____ _____    ______ ____
ROOT
ATOM      1  C   UNL     1       0.808  10.537  18.626  0.00  0.00    +0.000 A 
ATOM      2  C   UNL     1       1.611  11.368  19.397  0.00  0.00    +0.000 A 
ATOM      3  C   UNL     1       1.049  12.484  20.026  0.00  0.00    +0.000 A 
ATOM      4  C   UNL     1      -0.311  12.754  19.973  0.00  0.00    +0.000 A 
ATOM      5  N   UNL     1      -0.765  13.822  20.634  0.00  0.00    +0.000 NA
ATOM      6  C   UNL     1      -2.082  14.037  20.589  0.00  0.00    +0.000 A 
ATOM      7  N   UNL     1      -2.978  13.277  19.960  0.00  0.00    +0.000 NA
ATOM      8  C   UNL     1      -2.516  12.198  19.299  0.00  0.00    +0.000 A 
ATOM      9  N   UNL     1      -3.462  11.335  18.672  0.00  0.00    +0.000 N 
ATOM     10  C   UNL     1      -1.142  11.889  19.249  0.00  0.00    +0.000 A 
ATOM     11  C   UNL     1      -0.564  10.802  18.542  0.00  0.00    +0.000 A 
ATOM     12  H   UNL     1      -3.320  10.391  19.015  0.00  0.00    +0.000 HD
ENDROOT
BRANCH   9  13
ATOM     13  C   UNL     1      -4.834  11.651  18.527  0.00  0.00    +0.000 A 
ATOM     14  C   UNL     1      -5.314  12.217  17.334  0.00  0.00    +0.000 A 
ATOM     15  C   UNL     1      -6.651  12.601  17.197  0.00  0.00    +0.000 A 
ATOM     16  C   UNL     1      -7.530  12.413  18.258  0.00  0.00    +0.000 A 
ATOM     17  C   UNL     1      -7.068  11.826  19.431  0.00  0.00    +0.000 A 
ATOM     18  F   UNL     1      -7.916  11.650  20.453  0.00  0.00    +0.000 F 
ATOM     19  C   UNL     1      -5.737  11.436  19.572  0.00  0.00    +0.000 A 
ENDBRANCH   9  13
BRANCH   1  23
ATOM     20  N   UNL     1       2.446   7.402  17.829  0.00  0.00    +0.000 N 
ATOM     21  C   UNL     1       1.865   8.347  18.661  0.00  0.00    +0.000 C 
ATOM     22  O   UNL     1       1.726   8.240  19.871  0.00  0.00    +0.000 OA
ATOM     23  N   UNL     1       1.399   9.447  17.948  0.00  0.00    +0.000 N 
ATOM     24  H   UNL     1       2.730   7.724  16.916  0.00  0.00    +0.000 HD
ATOM     25  H   UNL     1       1.007   9.213  17.046  0.00  0.00    +0.000 HD
BRANCH  20  30
ATOM     26  C   UNL     1       4.136   2.133  19.421  0.00  0.00    +0.000 C 
ATOM     27  C   UNL     1       3.664   3.498  19.011  0.00  0.00    +0.000 A 
ATOM     28  C   UNL     1       4.570   4.561  19.039  0.00  0.00    +0.000 A 
ATOM     29  C   UNL     1       4.179   5.848  18.660  0.00  0.00    +0.000 A 
ATOM     30  C   UNL     1       2.879   6.111  18.225  0.00  0.00    +0.000 A 
ATOM     31  C   UNL     1       1.961   5.056  18.204  0.00  0.00    +0.000 A 
ATOM     32  C   UNL     1       2.351   3.762  18.593  0.00  0.00    +0.000 A 
ATOM     33 CL   UNL     1       1.165   2.505  18.536  0.00  0.00    +0.000 Cl
ENDBRANCH  20  30
ENDBRANCH   1  23
TORSDOF 3
ENDMDL
MODEL 8
REMARK VINA RESULT:      -8.4      3.283      4.138
REMARK  Name = 
REMARK  4 active torsions:
REMARK  status: ('A' for Active; 'I' for Inactive)
REMARK    1  A    between atoms: C_1  and  C_2
REMARK    2  A    between atoms: C_5  and  N_6
REMARK    3  A    between atoms: N_9  and  C_10
REMARK    4  A    between atoms: N_18  and  C_19
REMARK                            x       y       z     vdW  Elec       q    Type
REMARK                         _______ _______ _______ _____ _____    ______ ____
ROOT
ATOM      1  C   UNL     1       1.302   9.524  18.858  0.00  0.00    +0.000 A 
ATOM      2  C   UNL     1       0.675   9.165  20.045  0.00  0.00    +0.000 A 
ATOM      3  C   UNL     1       0.936   7.915  20.615  0.00  0.00    +0.000 A 
ATOM      4  C   UNL     1       1.867   7.038  20.077  0.00  0.00    +0.000 A 
ATOM      5  N   UNL     1       2.078   5.881  20.709  0.00  0.00    +0.000 NA
ATOM      6  C   UNL     1       3.002   5.073  20.183  0.00  0.00    +0.000 A 
ATOM      7  N   UNL     1       3.738   5.325  19.100  0.00  0.00    +0.000 NA
ATOM      8  C   UNL     1       3.525   6.496  18.469  0.00  0.00    +0.000 A 
ATOM      9  N   UNL     1       4.343   6.815  17.347  0.00  0.00    +0.000 N 
ATOM     10  C   UNL     1       2.552   7.414  18.913  0.00  0.00    +0.000 A 
ATOM     11  C   UNL     1       2.230   8.646  18.286  0.00  0.00    +0.000 A 
ATOM     12  H   UNL     1       4.784   7.715  17.508  0.00  0.00    +0.000 HD
ENDROOT
BRANCH   9  13
ATOM     13  C   UNL     1       5.223   5.892  16.730  0.00  0.00    +0.000 A 
ATOM     14  C   UNL     1       6.462   5.586  17.318  0.00  0.00    +0.000 A 
ATOM     15  C   UNL     1       7.374   4.733  16.689  0.00  0.00    +0.000 A 
ATOM     16  C   UNL     1       7.048   4.167  15.461  0.00  0.00    +0.000 A 
ATOM     17  C   UNL     1       5.812   4.443  14.889  0.00  0.00    +0.000 A 
ATOM     18  F   UNL     1       5.502   3.899  13.705  0.00  0.00    +0.000 F 
ATOM     19  C   UNL     1       4.895   5.288  15.513  0.00  0.00    +0.000 A 
ENDBRANCH   9  13
BRANCH   1  23
ATOM     20  N   UNL     1       0.723  13.051  18.248  0.00  0.00    +0.000 N 
ATOM     21  C   UNL     1       1.118  11.945  18.986  0.00  0.00    +0.000 C 
ATOM     22  O   UNL     1       1.572  11.974  20.121  0.00  0.00    +0.000 OA
ATOM     23  N   UNL     1       0.986  10.766  18.261  0.00  0.00    +0.000 N 
ATOM     24  H   UNL     1       0.134  12.868  17.449  0.00  0.00    +0.000 HD
ATOM     25  H   UNL     1       1.206  10.861  17.280  0.00  0.00    +0.000 HD
BRANCH  20  30
ATOM     26  C   UNL     1       1.420  18.539  19.845  0.00  0.00    +0.000 C 
ATOM     27  C   UNL     1       1.270  17.102  19.435  0.00  0.00    +0.000 A 
ATOM     28  C   UNL     1      -0.010  16.547  19.381  0.00  0.00    +0.000 A 
ATOM     29  C   UNL     1      -0.201  15.216  18.999  0.00  0.00    +0.000 A 
ATOM     30  C   UNL     1       0.876  14.404  18.644  0.00  0.00    +0.000 A 
ATOM     31  C   UNL     1       2.165  14.947  18.706  0.00  0.00    +0.000 A 
ATOM     32  C   UNL     1       2.358  16.283  19.098  0.00  0.00    +0.000 A 
ATOM     33 CL   UNL     1       3.977  16.888  19.146  0.00  0.00    +0.000 Cl
ENDBRANCH  20  30
ENDBRANCH   1  23
TORSDOF 3
ENDMDL
MODEL 9
REMARK VINA RESULT:      -8.4      4.368      9.456
REMARK  Name = 
REMARK  4 active torsions:
REMARK  status: ('A' for Active; 'I' for Inactive)
REMARK    1  A    between atoms: C_1  and  C_2
REMARK    2  A    between atoms: C_5  and  N_6
REMARK    3  A    between atoms: N_9  and  C_10
REMARK    4  A    between atoms: N_18  and  C_19
REMARK                            x       y       z     vdW  Elec       q    Type
REMARK                         _______ _______ _______ _____ _____    ______ ____
ROOT
ATOM      1  C   UNL     1       1.095   8.521  21.252  0.00  0.00    +0.000 A 
ATOM      2  C   UNL     1       1.174   9.248  22.434  0.00  0.00    +0.000 A 
ATOM      3  C   UNL     1       0.442  10.433  22.567  0.00  0.00    +0.000 A 
ATOM      4  C   UNL     1      -0.431  10.875  21.584  0.00  0.00    +0.000 A 
ATOM      5  N   UNL     1      -1.116  11.999  21.813  0.00  0.00    +0.000 NA
ATOM      6  C   UNL     1      -1.970  12.382  20.860  0.00  0.00    +0.000 A 
ATOM      7  N   UNL     1      -2.208  11.738  19.717  0.00  0.00    +0.000 NA
ATOM      8  C   UNL     1      -1.518  10.603  19.494  0.00  0.00    +0.000 A 
ATOM      9  N   UNL     1      -1.802   9.864  18.308  0.00  0.00    +0.000 N 
ATOM     10  C   UNL     1      -0.565  10.119  20.412  0.00  0.00    +0.000 A 
ATOM     11  C   UNL     1       0.237   8.960  20.239  0.00  0.00    +0.000 A 
ATOM     12  H   UNL     1      -2.041   8.912  18.565  0.00  0.00    +0.000 HD
ENDROOT
BRANCH   9  13
ATOM     13  C   UNL     1      -2.613  10.353  17.255  0.00  0.00    +0.000 A 
ATOM     14  C   UNL     1      -3.714  11.182  17.528  0.00  0.00    +0.000 A 
ATOM     15  C   UNL     1      -4.568  11.615  16.510  0.00  0.00    +0.000 A 
ATOM     16  C   UNL     1      -4.320  11.230  15.197  0.00  0.00    +0.000 A 
ATOM     17  C   UNL     1      -3.215  10.434  14.917  0.00  0.00    +0.000 A 
ATOM     18  F   UNL     1      -2.981  10.060  13.652  0.00  0.00    +0.000 F 
ATOM     19  C   UNL     1      -2.356  10.002  15.927  0.00  0.00    +0.000 A 
ENDBRANCH   9  13
BRANCH   1  23
ATOM     20  N   UNL     1       3.103   5.815  19.912  0.00  0.00    +0.000 N 
ATOM     21  C   UNL     1       2.390   7.004  19.861  0.00  0.00    +0.000 C 
ATOM     22  O   UNL     1       2.242   7.702  18.868  0.00  0.00    +0.000 OA
ATOM     23  N   UNL     1       1.885   7.358  21.108  0.00  0.00    +0.000 N 
ATOM     24  H   UNL     1       2.927   5.222  20.709  0.00  0.00    +0.000 HD
ATOM     25  H   UNL     1       2.501   7.135  21.877  0.00  0.00    +0.000 HD
BRANCH  20  30
ATOM     26  C   UNL     1       6.259   3.600  15.636  0.00  0.00    +0.000 C 
ATOM     27  C   UNL     1       5.462   4.196  16.760  0.00  0.00    +0.000 A 
ATOM     28  C   UNL     1       4.068   4.118  16.713  0.00  0.00    +0.000 A 
ATOM     29  C   UNL     1       3.284   4.652  17.739  0.00  0.00    +0.000 A 
ATOM     30  C   UNL     1       3.865   5.265  18.850  0.00  0.00    +0.000 A 
ATOM     31  C   UNL     1       5.260   5.359  18.901  0.00  0.00    +0.000 A 
ATOM     32  C   UNL     1       6.050   4.829  17.866  0.00  0.00    +0.000 A 
ATOM     33 CL   UNL     1       7.767   4.976  17.999  0.00  0.00    +0.000 Cl
ENDBRANCH  20  30
ENDBRANCH   1  23
TORSDOF 3
ENDMDL
