MODEL 1
REMARK VINA RESULT:      -7.1      0.000      0.000
REMARK  Name = 
REMARK  5 active torsions:
REMARK  status: ('A' for Active; 'I' for Inactive)
REMARK    1  A    between atoms: C_1  and  C_2
REMARK    2  A    between atoms: C_6  and  C_7
REMARK    3  A    between atoms: C_7  and  N_8
REMARK    4  A    between atoms: C_16  and  C_18
REMARK    5  A    between atoms: C_22  and  C_23
REMARK                            x       y       z     vdW  Elec       q    Type
REMARK                         _______ _______ _______ _____ _____    ______ ____
ROOT
ATOM      1  N   UNL     1       0.826  10.290  19.954  0.00  0.00    +0.000 NA
ATOM      2  C   UNL     1       0.356   9.709  21.247  0.00  0.00    +0.000 C 
ATOM      3  C   UNL     1       0.823   8.224  21.285  0.00  0.00    +0.000 C 
ATOM      4  C   UNL     1       1.886   8.206  20.215  0.00  0.00    +0.000 C 
ATOM      5  C   UNL     1       1.202   9.110  19.189  0.00  0.00    +0.000 C 
ATOM      6  C   UNL     1       2.225   9.125  18.078  0.00  0.00    +0.000 C 
ATOM      7  C   UNL     1       2.607   7.635  18.044  0.00  0.00    +0.000 C 
ATOM      8  N   UNL     1       2.271   7.091  19.371  0.00  0.00    +0.000 N 
ATOM      9  C   UNL     1       2.236   5.762  19.762  0.00  0.00    +0.000 C 
ATOM     10  O   UNL     1       1.867   5.434  20.884  0.00  0.00    +0.000 OA
ENDROOT
BRANCH   9  11
ATOM     11  C   UNL     1       2.589   4.746  18.757  0.00  0.00    +0.000 A 
ATOM     12  C   UNL     1       1.772   4.028  17.823  0.00  0.00    +0.000 A 
ATOM     13  C   UNL     1       2.583   3.140  17.164  0.00  0.00    +0.000 A 
ATOM     14  O   UNL     1       3.865   3.295  17.563  0.00  0.00    +0.000 OA
ATOM     15  C   UNL     1       3.874   4.280  18.508  0.00  0.00    +0.000 A 
ATOM     16  C   UNL     1       5.208   4.591  19.069  0.00  0.00    +0.000 C 
ENDBRANCH   9  11
BRANCH   1  17
ATOM     17  C   UNL     1      -0.238  11.025  19.236  0.00  0.00    +0.000 C 
BRANCH  17  23
ATOM     18  C   UNL     1       2.459  14.980  18.317  0.00  0.00    +0.000 C 
ATOM     19  C   UNL     1       1.172  14.425  18.848  0.00  0.00    +0.000 A 
ATOM     20  C   UNL     1       0.198  15.261  19.378  0.00  0.00    +0.000 A 
ATOM     21  C   UNL     1      -0.978  14.697  19.864  0.00  0.00    +0.000 A 
ATOM     22  C   UNL     1      -1.150  13.317  19.806  0.00  0.00    +0.000 A 
ATOM     23  C   UNL     1      -0.136  12.539  19.256  0.00  0.00    +0.000 A 
ATOM     24  N   UNL     1       1.018  13.080  18.782  0.00  0.00    +0.000 NA
ENDBRANCH  17  23
ENDBRANCH   1  17
TORSDOF 3
ENDMDL
MODEL 2
REMARK VINA RESULT:      -7.0      0.895      1.606
REMARK  Name = 
REMARK  5 active torsions:
REMARK  status: ('A' for Active; 'I' for Inactive)
REMARK    1  A    between atoms: C_1  and  C_2
REMARK    2  A    between atoms: C_6  and  C_7
REMARK    3  A    between atoms: C_7  and  N_8
REMARK    4  A    between atoms: C_16  and  C_18
REMARK    5  A    between atoms: C_22  and  C_23
REMARK                            x       y       z     vdW  Elec       q    Type
REMARK                         _______ _______ _______ _____ _____    ______ ____
ROOT
ATOM      1  N   UNL     1       0.659  10.375  19.918  0.00  0.00    +0.000 NA
ATOM      2  C   UNL     1       0.224   9.788  21.220  0.00  0.00    +0.000 C 
ATOM      3  C   UNL     1       0.749   8.323  21.267  0.00  0.00    +0.000 C 
ATOM      4  C   UNL     1       1.803   8.337  20.187  0.00  0.00    +0.000 C 
ATOM      5  C   UNL     1       1.075   9.204  19.160  0.00  0.00    +0.000 C 
ATOM      6  C   UNL     1       2.087   9.249  18.040  0.00  0.00    +0.000 C 
ATOM      7  C   UNL     1       2.528   7.775  18.016  0.00  0.00    +0.000 C 
ATOM      8  N   UNL     1       2.225   7.230  19.351  0.00  0.00    +0.000 N 
ATOM      9  C   UNL     1       2.246   5.905  19.754  0.00  0.00    +0.000 C 
ATOM     10  O   UNL     1       1.899   5.573  20.882  0.00  0.00    +0.000 OA
ENDROOT
BRANCH   9  11
ATOM     11  C   UNL     1       2.630   4.894  18.755  0.00  0.00    +0.000 A 
ATOM     12  C   UNL     1       1.836   4.145  17.826  0.00  0.00    +0.000 A 
ATOM     13  C   UNL     1       2.673   3.279  17.172  0.00  0.00    +0.000 A 
ATOM     14  O   UNL     1       3.951   3.477  17.569  0.00  0.00    +0.000 OA
ATOM     15  C   UNL     1       3.928   4.467  18.508  0.00  0.00    +0.000 A 
ATOM     16  C   UNL     1       5.253   4.823  19.066  0.00  0.00    +0.000 C 
ENDBRANCH   9  11
BRANCH   1  17
ATOM     17  C   UNL     1      -0.439  11.061  19.203  0.00  0.00    +0.000 C 
BRANCH  17  23
ATOM     18  C   UNL     1      -2.505  14.738  21.647  0.00  0.00    +0.000 C 
ATOM     19  C   UNL     1      -1.561  14.315  20.563  0.00  0.00    +0.000 A 
ATOM     20  C   UNL     1      -0.903  15.257  19.782  0.00  0.00    +0.000 A 
ATOM     21  C   UNL     1      -0.040  14.814  18.783  0.00  0.00    +0.000 A 
ATOM     22  C   UNL     1       0.143  13.448  18.593  0.00  0.00    +0.000 A 
ATOM     23  C   UNL     1      -0.543  12.560  19.415  0.00  0.00    +0.000 A 
ATOM     24  N   UNL     1      -1.391  12.982  20.391  0.00  0.00    +0.000 NA
ENDBRANCH  17  23
ENDBRANCH   1  17
TORSDOF 3
ENDMDL
MODEL 3
REMARK VINA RESULT:      -7.0      1.255      2.140
REMARK  Name = 
REMARK  5 active torsions:
REMARK  status: ('A' for Active; 'I' for Inactive)
REMARK    1  A    between atoms: C_1  and  C_2
REMARK    2  A    between atoms: C_6  and  C_7
REMARK    3  A    between atoms: C_7  and  N_8
REMARK    4  A    between atoms: C_16  and  C_18
REMARK    5  A    between atoms: C_22  and  C_23
REMARK                            x       y       z     vdW  Elec       q    Type
REMARK                         _______ _______ _______ _____ _____    ______ ____
ROOT
ATOM      1  N   UNL     1       0.681  10.475  19.753  0.00  0.00    +0.000 NA
ATOM      2  C   UNL     1       0.216   9.924  21.061  0.00  0.00    +0.000 C 
ATOM      3  C   UNL     1       0.727   8.457  21.154  0.00  0.00    +0.000 C 
ATOM      4  C   UNL     1       1.802   8.435  20.095  0.00  0.00    +0.000 C 
ATOM      5  C   UNL     1       1.101   9.282  19.032  0.00  0.00    +0.000 C 
ATOM      6  C   UNL     1       2.135   9.291  17.932  0.00  0.00    +0.000 C 
ATOM      7  C   UNL     1       2.563   7.814  17.952  0.00  0.00    +0.000 C 
ATOM      8  N   UNL     1       2.230   7.305  19.294  0.00  0.00    +0.000 N 
ATOM      9  C   UNL     1       2.231   5.989  19.729  0.00  0.00    +0.000 C 
ATOM     10  O   UNL     1       1.861   5.688  20.859  0.00  0.00    +0.000 OA
ENDROOT
BRANCH   9  11
ATOM     11  C   UNL     1       2.626   4.951  18.763  0.00  0.00    +0.000 A 
ATOM     12  C   UNL     1       1.843   4.187  17.836  0.00  0.00    +0.000 A 
ATOM     13  C   UNL     1       2.685   3.298  17.221  0.00  0.00    +0.000 A 
ATOM     14  O   UNL     1       3.956   3.493  17.639  0.00  0.00    +0.000 OA
ATOM     15  C   UNL     1       3.925   4.506  18.554  0.00  0.00    +0.000 A 
ATOM     16  C   UNL     1       5.241   4.862  19.130  0.00  0.00    +0.000 C 
ENDBRANCH   9  11
BRANCH   1  17
ATOM     17  C   UNL     1      -0.398  11.153  19.001  0.00  0.00    +0.000 C 
BRANCH  17  23
ATOM     18  C   UNL     1      -4.561  12.963  20.775  0.00  0.00    +0.000 C 
ATOM     19  C   UNL     1      -3.098  13.170  20.529  0.00  0.00    +0.000 A 
ATOM     20  C   UNL     1      -2.477  14.364  20.876  0.00  0.00    +0.000 A 
ATOM     21  C   UNL     1      -1.117  14.510  20.621  0.00  0.00    +0.000 A 
ATOM     22  C   UNL     1      -0.414  13.465  20.031  0.00  0.00    +0.000 A 
ATOM     23  C   UNL     1      -1.097  12.294  19.714  0.00  0.00    +0.000 A 
ATOM     24  N   UNL     1      -2.427  12.142  19.955  0.00  0.00    +0.000 NA
ENDBRANCH  17  23
ENDBRANCH   1  17
TORSDOF 3
ENDMDL
MODEL 4
REMARK VINA RESULT:      -7.0      2.058      3.095
REMARK  Name = 
REMARK  5 active torsions:
REMARK  status: ('A' for Active; 'I' for Inactive)
REMARK    1  A    between atoms: C_1  and  C_2
REMARK    2  A    between atoms: C_6  and  C_7
REMARK    3  A    between atoms: C_7  and  N_8
REMARK    4  A    between atoms: C_16  and  C_18
REMARK    5  A    between atoms: C_22  and  C_23
REMARK                            x       y       z     vdW  Elec       q    Type
REMARK                         _______ _______ _______ _____ _____    ______ ____
ROOT
ATOM      1  N   UNL     1       1.833   9.084  18.968  0.00  0.00    +0.000 NA
ATOM      2  C   UNL     1       1.080   8.946  20.251  0.00  0.00    +0.000 C 
ATOM      3  C   UNL     1       1.337   7.507  20.786  0.00  0.00    +0.000 C 
ATOM      4  C   UNL     1       2.554   7.094  19.996  0.00  0.00    +0.000 C 
ATOM      5  C   UNL     1       2.176   7.707  18.647  0.00  0.00    +0.000 C 
ATOM      6  C   UNL     1       3.366   7.317  17.802  0.00  0.00    +0.000 C 
ATOM      7  C   UNL     1       3.551   5.858  18.254  0.00  0.00    +0.000 C 
ATOM      8  N   UNL     1       2.928   5.755  19.585  0.00  0.00    +0.000 N 
ATOM      9  C   UNL     1       2.655   4.606  20.310  0.00  0.00    +0.000 C 
ATOM     10  O   UNL     1       2.062   4.651  21.382  0.00  0.00    +0.000 OA
ENDROOT
BRANCH   9  11
ATOM     11  C   UNL     1       3.038   3.316  19.713  0.00  0.00    +0.000 A 
ATOM     12  C   UNL     1       4.301   2.639  19.676  0.00  0.00    +0.000 A 
ATOM     13  C   UNL     1       4.136   1.500  18.930  0.00  0.00    +0.000 A 
ATOM     14  O   UNL     1       2.843   1.372  18.554  0.00  0.00    +0.000 OA
ATOM     15  C   UNL     1       2.175   2.457  19.045  0.00  0.00    +0.000 A 
ATOM     16  C   UNL     1       0.729   2.491  18.728  0.00  0.00    +0.000 C 
ENDBRANCH   9  11
BRANCH   1  17
ATOM     17  C   UNL     1       1.010   9.655  17.880  0.00  0.00    +0.000 C 
BRANCH  17  23
ATOM     18  C   UNL     1      -3.827  10.236  17.715  0.00  0.00    +0.000 C 
ATOM     19  C   UNL     1      -2.508  10.760  18.196  0.00  0.00    +0.000 A 
ATOM     20  C   UNL     1      -2.430  11.945  18.917  0.00  0.00    +0.000 A 
ATOM     21  C   UNL     1      -1.181  12.393  19.337  0.00  0.00    +0.000 A 
ATOM     22  C   UNL     1      -0.047  11.648  19.028  0.00  0.00    +0.000 A 
ATOM     23  C   UNL     1      -0.198  10.467  18.308  0.00  0.00    +0.000 A 
ATOM     24  N   UNL     1      -1.413  10.022  17.890  0.00  0.00    +0.000 NA
ENDBRANCH  17  23
ENDBRANCH   1  17
TORSDOF 3
ENDMDL
MODEL 5
REMARK VINA RESULT:      -7.0      5.304      7.842
REMARK  Name = 
REMARK  5 active torsions:
REMARK  status: ('A' for Active; 'I' for Inactive)
REMARK    1  A    between atoms: C_1  and  C_2
REMARK    2  A    between atoms: C_6  and  C_7
REMARK    3  A    between atoms: C_7  and  N_8
REMARK    4  A    between atoms: C_16  and  C_18
REMARK    5  A    between atoms: C_22  and  C_23
REMARK                            x       y       z     vdW  Elec       q    Type
REMARK                         _______ _______ _______ _____ _____    ______ ____
ROOT
ATOM      1  N   UNL     1       4.177   6.492  18.850  0.00  0.00    +0.000 NA
ATOM      2  C   UNL     1       5.035   5.510  19.577  0.00  0.00    +0.000 C 
ATOM      3  C   UNL     1       5.995   4.870  18.530  0.00  0.00    +0.000 C 
ATOM      4  C   UNL     1       5.902   5.848  17.385  0.00  0.00    +0.000 C 
ATOM      5  C   UNL     1       4.404   6.148  17.454  0.00  0.00    +0.000 C 
ATOM      6  C   UNL     1       4.245   7.127  16.315  0.00  0.00    +0.000 C 
ATOM      7  C   UNL     1       5.109   6.437  15.245  0.00  0.00    +0.000 C 
ATOM      8  N   UNL     1       6.052   5.570  15.970  0.00  0.00    +0.000 N 
ATOM      9  C   UNL     1       6.887   4.595  15.447  0.00  0.00    +0.000 C 
ATOM     10  O   UNL     1       7.576   3.886  16.171  0.00  0.00    +0.000 OA
ENDROOT
BRANCH   9  11
ATOM     11  C   UNL     1       6.865   4.390  13.989  0.00  0.00    +0.000 A 
ATOM     12  C   UNL     1       6.018   3.573  13.170  0.00  0.00    +0.000 A 
ATOM     13  C   UNL     1       6.465   3.681  11.879  0.00  0.00    +0.000 A 
ATOM     14  O   UNL     1       7.489   4.562  11.812  0.00  0.00    +0.000 OA
ATOM     15  C   UNL     1       7.717   5.007  13.082  0.00  0.00    +0.000 A 
ATOM     16  C   UNL     1       8.817   5.990  13.207  0.00  0.00    +0.000 C 
ENDBRANCH   9  11
BRANCH   1  17
ATOM     17  C   UNL     1       2.740   6.343  19.169  0.00  0.00    +0.000 C 
BRANCH  17  23
ATOM     18  C   UNL     1       1.624   2.464  21.902  0.00  0.00    +0.000 C 
ATOM     19  C   UNL     1       1.712   3.058  20.529  0.00  0.00    +0.000 A 
ATOM     20  C   UNL     1       1.393   2.308  19.404  0.00  0.00    +0.000 A 
ATOM     21  C   UNL     1       1.496   2.903  18.150  0.00  0.00    +0.000 A 
ATOM     22  C   UNL     1       1.912   4.227  18.053  0.00  0.00    +0.000 A 
ATOM     23  C   UNL     1       2.210   4.922  19.220  0.00  0.00    +0.000 A 
ATOM     24  N   UNL     1       2.116   4.349  20.450  0.00  0.00    +0.000 NA
ENDBRANCH  17  23
ENDBRANCH   1  17
TORSDOF 3
ENDMDL
MODEL 6
REMARK VINA RESULT:      -6.9      1.200      1.710
REMARK  Name = 
REMARK  5 active torsions:
REMARK  status: ('A' for Active; 'I' for Inactive)
REMARK    1  A    between atoms: C_1  and  C_2
REMARK    2  A    between atoms: C_6  and  C_7
REMARK    3  A    between atoms: C_7  and  N_8
REMARK    4  A    between atoms: C_16  and  C_18
REMARK    5  A    between atoms: C_22  and  C_23
REMARK                            x       y       z     vdW  Elec       q    Type
REMARK                         _______ _______ _______ _____ _____    ______ ____
ROOT
ATOM      1  N   UNL     1       1.406   9.488  19.506  0.00  0.00    +0.000 NA
ATOM      2  C   UNL     1       0.811   9.098  20.820  0.00  0.00    +0.000 C 
ATOM      3  C   UNL     1       1.167   7.602  21.064  0.00  0.00    +0.000 C 
ATOM      4  C   UNL     1       2.294   7.387  20.085  0.00  0.00    +0.000 C 
ATOM      5  C   UNL     1       1.746   8.202  18.913  0.00  0.00    +0.000 C 
ATOM      6  C   UNL     1       2.839   8.018  17.887  0.00  0.00    +0.000 C 
ATOM      7  C   UNL     1       3.114   6.514  18.054  0.00  0.00    +0.000 C 
ATOM      8  N   UNL     1       2.654   6.157  19.407  0.00  0.00    +0.000 N 
ATOM      9  C   UNL     1       2.497   4.889  19.945  0.00  0.00    +0.000 C 
ATOM     10  O   UNL     1       2.032   4.723  21.068  0.00  0.00    +0.000 OA
ENDROOT
BRANCH   9  11
ATOM     11  C   UNL     1       2.842   3.739  19.094  0.00  0.00    +0.000 A 
ATOM     12  C   UNL     1       4.100   3.320  18.549  0.00  0.00    +0.000 A 
ATOM     13  C   UNL     1       3.863   2.223  17.761  0.00  0.00    +0.000 A 
ATOM     14  O   UNL     1       2.558   1.876  17.826  0.00  0.00    +0.000 OA
ATOM     15  C   UNL     1       1.945   2.777  18.648  0.00  0.00    +0.000 A 
ATOM     16  C   UNL     1       0.494   2.554  18.840  0.00  0.00    +0.000 C 
ENDBRANCH   9  11
BRANCH   1  17
ATOM     17  C   UNL     1       0.447  10.197  18.632  0.00  0.00    +0.000 C 
BRANCH  17  23
ATOM     18  C   UNL     1       3.349  14.109  18.436  0.00  0.00    +0.000 C 
ATOM     19  C   UNL     1       1.952  13.577  18.548  0.00  0.00    +0.000 A 
ATOM     20  C   UNL     1       0.870  14.436  18.690  0.00  0.00    +0.000 A 
ATOM     21  C   UNL     1      -0.407  13.893  18.795  0.00  0.00    +0.000 A 
ATOM     22  C   UNL     1      -0.570  12.512  18.756  0.00  0.00    +0.000 A 
ATOM     23  C   UNL     1       0.558  11.710  18.605  0.00  0.00    +0.000 A 
ATOM     24  N   UNL     1       1.810  12.230  18.505  0.00  0.00    +0.000 NA
ENDBRANCH  17  23
ENDBRANCH   1  17
TORSDOF 3
ENDMDL
MODEL 7
REMARK VINA RESULT:      -6.9      1.526      2.334
REMARK  Name = 
REMARK  5 active torsions:
REMARK  status: ('A' for Active; 'I' for Inactive)
REMARK    1  A    between atoms: C_1  and  C_2
REMARK    2  A    between atoms: C_6  and  C_7
REMARK    3  A    between atoms: C_7  and  N_8
REMARK    4  A    between atoms: C_16  and  C_18
REMARK    5  A    between atoms: C_22  and  C_23
REMARK                            x       y       z     vdW  Elec       q    Type
REMARK                         _______ _______ _______ _____ _____    ______ ____
ROOT
ATOM      1  N   UNL     1       1.662   9.110  19.064  0.00  0.00    +0.000 NA
ATOM      2  C   UNL     1       1.017   8.951  20.402  0.00  0.00    +0.000 C 
ATOM      3  C   UNL     1       1.344   7.514  20.906  0.00  0.00    +0.000 C 
ATOM      4  C   UNL     1       2.502   7.130  20.018  0.00  0.00    +0.000 C 
ATOM      5  C   UNL     1       2.005   7.741  18.708  0.00  0.00    +0.000 C 
ATOM      6  C   UNL     1       3.131   7.380  17.768  0.00  0.00    +0.000 C 
ATOM      7  C   UNL     1       3.380   5.923  18.194  0.00  0.00    +0.000 C 
ATOM      8  N   UNL     1       2.868   5.801  19.570  0.00  0.00    +0.000 N 
ATOM      9  C   UNL     1       2.676   4.643  20.307  0.00  0.00    +0.000 C 
ATOM     10  O   UNL     1       2.170   4.671  21.424  0.00  0.00    +0.000 OA
ENDROOT
BRANCH   9  11
ATOM     11  C   UNL     1       3.035   3.363  19.673  0.00  0.00    +0.000 A 
ATOM     12  C   UNL     1       4.298   2.694  19.564  0.00  0.00    +0.000 A 
ATOM     13  C   UNL     1       4.102   1.565  18.810  0.00  0.00    +0.000 A 
ATOM     14  O   UNL     1       2.793   1.436  18.496  0.00  0.00    +0.000 OA
ATOM     15  C   UNL     1       2.144   2.510  19.036  0.00  0.00    +0.000 A 
ATOM     16  C   UNL     1       0.685   2.540  18.791  0.00  0.00    +0.000 C 
ENDBRANCH   9  11
BRANCH   1  17
ATOM     17  C   UNL     1       0.743   9.670  18.049  0.00  0.00    +0.000 C 
BRANCH  17  23
ATOM     18  C   UNL     1       0.431  14.198  19.825  0.00  0.00    +0.000 C 
ATOM     19  C   UNL     1      -0.292  12.960  19.391  0.00  0.00    +0.000 A 
ATOM     20  C   UNL     1      -1.675  12.870  19.485  0.00  0.00    +0.000 A 
ATOM     21  C   UNL     1      -2.300  11.696  19.075  0.00  0.00    +0.000 A 
ATOM     22  C   UNL     1      -1.530  10.647  18.581  0.00  0.00    +0.000 A 
ATOM     23  C   UNL     1      -0.150  10.807  18.508  0.00  0.00    +0.000 A 
ATOM     24  N   UNL     1       0.471  11.948  18.910  0.00  0.00    +0.000 NA
ENDBRANCH  17  23
ENDBRANCH   1  17
TORSDOF 3
ENDMDL
MODEL 8
REMARK VINA RESULT:      -6.8      2.734      8.553
REMARK  Name = 
REMARK  5 active torsions:
REMARK  status: ('A' for Active; 'I' for Inactive)
REMARK    1  A    between atoms: C_1  and  C_2
REMARK    2  A    between atoms: C_6  and  C_7
REMARK    3  A    between atoms: C_7  and  N_8
REMARK    4  A    between atoms: C_16  and  C_18
REMARK    5  A    between atoms: C_22  and  C_23
REMARK                            x       y       z     vdW  Elec       q    Type
REMARK                         _______ _______ _______ _____ _____    ______ ____
ROOT
ATOM      1  N   UNL     1       2.031   6.795  19.236  0.00  0.00    +0.000 NA
ATOM      2  C   UNL     1       1.715   6.717  20.694  0.00  0.00    +0.000 C 
ATOM      3  C   UNL     1       1.345   8.155  21.164  0.00  0.00    +0.000 C 
ATOM      4  C   UNL     1       1.059   8.846  19.854  0.00  0.00    +0.000 C 
ATOM      5  C   UNL     1       2.175   8.226  19.013  0.00  0.00    +0.000 C 
ATOM      6  C   UNL     1       1.943   8.892  17.677  0.00  0.00    +0.000 C 
ATOM      7  C   UNL     1       1.683  10.336  18.137  0.00  0.00    +0.000 C 
ATOM      8  N   UNL     1       1.237  10.250  19.539  0.00  0.00    +0.000 N 
ATOM      9  C   UNL     1       1.083  11.285  20.447  0.00  0.00    +0.000 C 
ATOM     10  O   UNL     1       0.772  11.071  21.614  0.00  0.00    +0.000 OA
ENDROOT
BRANCH   9  11
ATOM     11  C   UNL     1       1.375  12.651  19.983  0.00  0.00    +0.000 A 
ATOM     12  C   UNL     1       2.504  13.501  20.224  0.00  0.00    +0.000 A 
ATOM     13  C   UNL     1       2.249  14.706  19.621  0.00  0.00    +0.000 A 
ATOM     14  O   UNL     1       1.072  14.654  18.957  0.00  0.00    +0.000 OA
ATOM     15  C   UNL     1       0.554  13.407  19.156  0.00  0.00    +0.000 A 
ATOM     16  C   UNL     1      -0.748  13.163  18.497  0.00  0.00    +0.000 C 
ENDBRANCH   9  11
BRANCH   1  17
ATOM     17  C   UNL     1       3.295   6.111  18.886  0.00  0.00    +0.000 C 
BRANCH  17  23
ATOM     18  C   UNL     1       4.723   1.716  20.437  0.00  0.00    +0.000 C 
ATOM     19  C   UNL     1       3.932   2.507  19.441  0.00  0.00    +0.000 A 
ATOM     20  C   UNL     1       3.249   1.877  18.408  0.00  0.00    +0.000 A 
ATOM     21  C   UNL     1       2.533   2.657  17.504  0.00  0.00    +0.000 A 
ATOM     22  C   UNL     1       2.516   4.039  17.656  0.00  0.00    +0.000 A 
ATOM     23  C   UNL     1       3.217   4.605  18.717  0.00  0.00    +0.000 A 
ATOM     24  N   UNL     1       3.923   3.853  19.604  0.00  0.00    +0.000 NA
ENDBRANCH  17  23
ENDBRANCH   1  17
TORSDOF 3
ENDMDL
MODEL 9
REMARK VINA RESULT:      -6.8      3.007      8.494
REMARK  Name = 
REMARK  5 active torsions:
REMARK  status: ('A' for Active; 'I' for Inactive)
REMARK    1  A    between atoms: C_1  and  C_2
REMARK    2  A    between atoms: C_6  and  C_7
REMARK    3  A    between atoms: C_7  and  N_8
REMARK    4  A    between atoms: C_16  and  C_18
REMARK    5  A    between atoms: C_22  and  C_23
REMARK                            x       y       z     vdW  Elec       q    Type
REMARK                         _______ _______ _______ _____ _____    ______ ____
ROOT
ATOM      1  N   UNL     1       1.389   7.818  19.873  0.00  0.00    +0.000 NA
ATOM      2  C   UNL     1       1.123   8.079  21.320  0.00  0.00    +0.000 C 
ATOM      3  C   UNL     1       1.041   9.623  21.504  0.00  0.00    +0.000 C 
ATOM      4  C   UNL     1       0.834  10.094  20.086  0.00  0.00    +0.000 C 
ATOM      5  C   UNL     1       1.783   9.128  19.377  0.00  0.00    +0.000 C 
ATOM      6  C   UNL     1       1.624   9.559  17.938  0.00  0.00    +0.000 C 
ATOM      7  C   UNL     1       1.651  11.088  18.111  0.00  0.00    +0.000 C 
ATOM      8  N   UNL     1       1.252  11.354  19.504  0.00  0.00    +0.000 N 
ATOM      9  C   UNL     1       1.326  12.553  20.195  0.00  0.00    +0.000 C 
ATOM     10  O   UNL     1       1.028  12.626  21.383  0.00  0.00    +0.000 OA
ENDROOT
BRANCH   9  11
ATOM     11  C   UNL     1       1.844  13.727  19.473  0.00  0.00    +0.000 A 
ATOM     12  C   UNL     1       3.170  14.046  19.035  0.00  0.00    +0.000 A 
ATOM     13  C   UNL     1       3.129  15.297  18.475  0.00  0.00    +0.000 A 
ATOM     14  O   UNL     1       1.859  15.761  18.464  0.00  0.00    +0.000 OA
ATOM     15  C   UNL     1       1.079  14.804  19.046  0.00  0.00    +0.000 A 
ATOM     16  C   UNL     1      -0.361  15.140  19.125  0.00  0.00    +0.000 C 
ENDBRANCH   9  11
BRANCH   1  17
ATOM     17  C   UNL     1       2.492   6.856  19.658  0.00  0.00    +0.000 C 
BRANCH  17  23
ATOM     18  C   UNL     1       1.506   2.526  21.668  0.00  0.00    +0.000 C 
ATOM     19  C   UNL     1       1.652   3.331  20.413  0.00  0.00    +0.000 A 
ATOM     20  C   UNL     1       1.493   2.744  19.165  0.00  0.00    +0.000 A 
ATOM     21  C   UNL     1       1.645   3.533  18.028  0.00  0.00    +0.000 A 
ATOM     22  C   UNL     1       1.949   4.883  18.168  0.00  0.00    +0.000 A 
ATOM     23  C   UNL     1       2.088   5.409  19.449  0.00  0.00    +0.000 A 
ATOM     24  N   UNL     1       1.945   4.646  20.566  0.00  0.00    +0.000 NA
ENDBRANCH  17  23
ENDBRANCH   1  17
TORSDOF 3
ENDMDL
