MODEL 1
REMARK VINA RESULT:      -8.4      0.000      0.000
REMARK  Name = 
REMARK  6 active torsions:
REMARK  status: ('A' for Active; 'I' for Inactive)
REMARK    1  A    between atoms: C_5  and  C_6
REMARK    2  A    between atoms: C_6  and  C_7
REMARK    3  A    between atoms: C_7  and  N_8
REMARK    4  A    between atoms: N_8  and  C_9
REMARK    5  A    between atoms: C_9  and  C_10
REMARK    6  A    between atoms: C_13  and  C_14
REMARK                            x       y       z     vdW  Elec       q    Type
REMARK                         _______ _______ _______ _____ _____    ______ ____
ROOT
ATOM      1  C   UNL     1       4.193   5.620  18.365  0.00  0.00    +0.000 A 
ATOM      2  C   UNL     1       3.859   6.702  17.577  0.00  0.00    +0.000 A 
ATOM      3  N   UNL     1       3.004   7.668  17.948  0.00  0.00    +0.000 NA
ATOM      4  C   UNL     1       2.452   7.541  19.169  0.00  0.00    +0.000 A 
ATOM      5  N   UNL     1       2.684   6.511  20.006  0.00  0.00    +0.000 NA
ATOM      6  C   UNL     1       3.551   5.573  19.583  0.00  0.00    +0.000 A 
ENDROOT
BRANCH   4   7
ATOM      7  C   UNL     1       1.542   8.605  19.621  0.00  0.00    +0.000 A 
ATOM      8  C   UNL     1       1.109   9.620  18.750  0.00  0.00    +0.000 A 
ATOM      9  C   UNL     1       0.237  10.623  19.176  0.00  0.00    +0.000 A 
ATOM     10  C   UNL     1      -0.227  10.644  20.495  0.00  0.00    +0.000 A 
ATOM     11  C   UNL     1      -1.116  11.635  20.940  0.00  0.00    +0.000 A 
ATOM     12  C   UNL     1      -1.565  11.642  22.260  0.00  0.00    +0.000 A 
ATOM     13  C   UNL     1      -1.131  10.666  23.153  0.00  0.00    +0.000 A 
ATOM     14  C   UNL     1      -0.251   9.674  22.724  0.00  0.00    +0.000 A 
ATOM     15  C   UNL     1       0.202   9.648  21.397  0.00  0.00    +0.000 A 
ATOM     16  C   UNL     1       1.076   8.646  20.948  0.00  0.00    +0.000 A 
ENDBRANCH   4   7
BRANCH   1  17
ATOM     17  C   UNL     1       5.158   4.571  17.918  0.00  0.00    +0.000 C 
BRANCH  17  18
ATOM     18  N   UNL     1       4.608   3.226  18.108  0.00  0.00    +0.000 NA
ATOM     19  H   UNL     1       5.330   2.532  17.912  0.00  0.00    +0.000 HD
BRANCH  18  20
ATOM     20  C   UNL     1       3.479   2.997  17.204  0.00  0.00    +0.000 C 
BRANCH  20  21
ATOM     21  C   UNL     1       2.563   1.922  17.782  0.00  0.00    +0.000 C 
BRANCH  21  26
ATOM     22  O   UNL     1       1.806   2.875  22.335  0.00  0.00    +0.000 OA
ATOM     23  C   UNL     1       1.628   2.788  21.136  0.00  0.00    +0.000 A 
ATOM     24  N   UNL     1       0.524   3.204  20.408  0.00  0.00    +0.000 N 
ATOM     25  N   UNL     1       0.704   2.954  19.075  0.00  0.00    +0.000 NA
ATOM     26  C   UNL     1       1.887   2.413  19.022  0.00  0.00    +0.000 A 
ATOM     27  N   UNL     1       2.486   2.263  20.217  0.00  0.00    +0.000 N 
ATOM     28  H   UNL     1      -0.306   3.647  20.780  0.00  0.00    +0.000 HD
ATOM     29  H   UNL     1       3.393   1.889  20.438  0.00  0.00    +0.000 HD
ENDBRANCH  21  26
ENDBRANCH  20  21
ENDBRANCH  18  20
ENDBRANCH  17  18
ENDBRANCH   1  17
TORSDOF 6
ENDMDL
MODEL 2
REMARK VINA RESULT:      -8.3      1.014      2.236
REMARK  Name = 
REMARK  6 active torsions:
REMARK  status: ('A' for Active; 'I' for Inactive)
REMARK    1  A    between atoms: C_5  and  C_6
REMARK    2  A    between atoms: C_6  and  C_7
REMARK    3  A    between atoms: C_7  and  N_8
REMARK    4  A    between atoms: N_8  and  C_9
REMARK    5  A    between atoms: C_9  and  C_10
REMARK    6  A    between atoms: C_13  and  C_14
REMARK                            x       y       z     vdW  Elec       q    Type
REMARK                         _______ _______ _______ _____ _____    ______ ____
ROOT
ATOM      1  C   UNL     1       2.819   6.798  18.547  0.00  0.00    +0.000 A 
ATOM      2  C   UNL     1       2.436   6.490  19.835  0.00  0.00    +0.000 A 
ATOM      3  N   UNL     1       1.702   7.299  20.617  0.00  0.00    +0.000 NA
ATOM      4  C   UNL     1       1.338   8.479  20.080  0.00  0.00    +0.000 A 
ATOM      5  N   UNL     1       1.683   8.892  18.844  0.00  0.00    +0.000 NA
ATOM      6  C   UNL     1       2.417   8.040  18.106  0.00  0.00    +0.000 A 
ENDROOT
BRANCH   4   7
ATOM      7  C   UNL     1       0.500   9.371  20.895  0.00  0.00    +0.000 A 
ATOM      8  C   UNL     1       0.357   9.180  22.281  0.00  0.00    +0.000 A 
ATOM      9  C   UNL     1      -0.430  10.033  23.057  0.00  0.00    +0.000 A 
ATOM     10  C   UNL     1      -1.106  11.105  22.466  0.00  0.00    +0.000 A 
ATOM     11  C   UNL     1      -1.890  11.983  23.230  0.00  0.00    +0.000 A 
ATOM     12  C   UNL     1      -2.560  13.045  22.622  0.00  0.00    +0.000 A 
ATOM     13  C   UNL     1      -2.460  13.241  21.248  0.00  0.00    +0.000 A 
ATOM     14  C   UNL     1      -1.682  12.379  20.477  0.00  0.00    +0.000 A 
ATOM     15  C   UNL     1      -0.995  11.313  21.075  0.00  0.00    +0.000 A 
ATOM     16  C   UNL     1      -0.196  10.447  20.313  0.00  0.00    +0.000 A 
ENDBRANCH   4   7
BRANCH   1  17
ATOM     17  C   UNL     1       3.628   5.864  17.707  0.00  0.00    +0.000 C 
BRANCH  17  18
ATOM     18  N   UNL     1       3.758   4.551  18.345  0.00  0.00    +0.000 NA
ATOM     19  H   UNL     1       4.608   4.529  18.908  0.00  0.00    +0.000 HD
BRANCH  18  20
ATOM     20  C   UNL     1       3.837   3.492  17.336  0.00  0.00    +0.000 C 
BRANCH  20  21
ATOM     21  C   UNL     1       2.780   2.429  17.619  0.00  0.00    +0.000 C 
BRANCH  21  26
ATOM     22  O   UNL     1       1.775   2.697  22.216  0.00  0.00    +0.000 OA
ATOM     23  C   UNL     1       1.665   2.796  21.010  0.00  0.00    +0.000 A 
ATOM     24  N   UNL     1       0.609   3.338  20.295  0.00  0.00    +0.000 N 
ATOM     25  N   UNL     1       0.862   3.289  18.951  0.00  0.00    +0.000 NA
ATOM     26  C   UNL     1       2.040   2.739  18.881  0.00  0.00    +0.000 A 
ATOM     27  N   UNL     1       2.569   2.399  20.070  0.00  0.00    +0.000 N 
ATOM     28  H   UNL     1      -0.237   3.736  20.684  0.00  0.00    +0.000 HD
ATOM     29  H   UNL     1       3.457   1.978  20.280  0.00  0.00    +0.000 HD
ENDBRANCH  21  26
ENDBRANCH  20  21
ENDBRANCH  18  20
ENDBRANCH  17  18
ENDBRANCH   1  17
TORSDOF 6
ENDMDL
MODEL 3
REMARK VINA RESULT:      -8.2      0.696      1.170
REMARK  Name = 
REMARK  6 active torsions:
REMARK  status: ('A' for Active; 'I' for Inactive)
REMARK    1  A    between atoms: C_5  and  C_6
REMARK    2  A    between atoms: C_6  and  C_7
REMARK    3  A    between atoms: C_7  and  N_8
REMARK    4  A    between atoms: N_8  and  C_9
REMARK    5  A    between atoms: C_9  and  C_10
REMARK    6  A    between atoms: C_13  and  C_14
REMARK                            x       y       z     vdW  Elec       q    Type
REMARK                         _______ _______ _______ _____ _____    ______ ____
ROOT
ATOM      1  C   UNL     1       3.677   6.344  18.165  0.00  0.00    +0.000 A 
ATOM      2  C   UNL     1       2.984   6.208  19.349  0.00  0.00    +0.000 A 
ATOM      3  N   UNL     1       2.140   7.132  19.838  0.00  0.00    +0.000 NA
ATOM      4  C   UNL     1       1.987   8.249  19.104  0.00  0.00    +0.000 A 
ATOM      5  N   UNL     1       2.637   8.497  17.949  0.00  0.00    +0.000 NA
ATOM      6  C   UNL     1       3.468   7.536  17.507  0.00  0.00    +0.000 A 
ENDROOT
BRANCH   4   7
ATOM      7  C   UNL     1       1.039   9.263  19.591  0.00  0.00    +0.000 A 
ATOM      8  C   UNL     1       0.491  10.229  18.729  0.00  0.00    +0.000 A 
ATOM      9  C   UNL     1      -0.417  11.185  19.189  0.00  0.00    +0.000 A 
ATOM     10  C   UNL     1      -0.803  11.205  20.533  0.00  0.00    +0.000 A 
ATOM     11  C   UNL     1      -1.726  12.147  21.013  0.00  0.00    +0.000 A 
ATOM     12  C   UNL     1      -2.096  12.155  22.358  0.00  0.00    +0.000 A 
ATOM     13  C   UNL     1      -1.548  11.228  23.240  0.00  0.00    +0.000 A 
ATOM     14  C   UNL     1      -0.632  10.284  22.776  0.00  0.00    +0.000 A 
ATOM     15  C   UNL     1      -0.258  10.258  21.425  0.00  0.00    +0.000 A 
ATOM     16  C   UNL     1       0.650   9.304  20.943  0.00  0.00    +0.000 A 
ENDBRANCH   4   7
BRANCH   1  17
ATOM     17  C   UNL     1       4.599   5.286  17.651  0.00  0.00    +0.000 C 
BRANCH  17  18
ATOM     18  N   UNL     1       4.205   3.958  18.128  0.00  0.00    +0.000 NA
ATOM     19  H   UNL     1       5.037   3.388  18.273  0.00  0.00    +0.000 HD
BRANCH  18  20
ATOM     20  C   UNL     1       3.345   3.292  17.146  0.00  0.00    +0.000 C 
BRANCH  20  21
ATOM     21  C   UNL     1       2.600   2.138  17.810  0.00  0.00    +0.000 C 
BRANCH  21  26
ATOM     22  O   UNL     1       2.309   3.136  22.407  0.00  0.00    +0.000 OA
ATOM     23  C   UNL     1       1.991   2.976  21.246  0.00  0.00    +0.000 A 
ATOM     24  N   UNL     1       0.748   3.186  20.669  0.00  0.00    +0.000 N 
ATOM     25  N   UNL     1       0.787   2.915  19.328  0.00  0.00    +0.000 NA
ATOM     26  C   UNL     1       2.024   2.564  19.123  0.00  0.00    +0.000 A 
ATOM     27  N   UNL     1       2.793   2.556  20.226  0.00  0.00    +0.000 N 
ATOM     28  H   UNL     1      -0.086   3.507  21.143  0.00  0.00    +0.000 HD
ATOM     29  H   UNL     1       3.769   2.337  20.328  0.00  0.00    +0.000 HD
ENDBRANCH  21  26
ENDBRANCH  20  21
ENDBRANCH  18  20
ENDBRANCH  17  18
ENDBRANCH   1  17
TORSDOF 6
ENDMDL
MODEL 4
REMARK VINA RESULT:      -8.1      2.527      3.938
REMARK  Name = 
REMARK  6 active torsions:
REMARK  status: ('A' for Active; 'I' for Inactive)
REMARK    1  A    between atoms: C_5  and  C_6
REMARK    2  A    between atoms: C_6  and  C_7
REMARK    3  A    between atoms: C_7  and  N_8
REMARK    4  A    between atoms: N_8  and  C_9
REMARK    5  A    between atoms: C_9  and  C_10
REMARK    6  A    between atoms: C_13  and  C_14
REMARK                            x       y       z     vdW  Elec       q    Type
REMARK                         _______ _______ _______ _____ _____    ______ ____
ROOT
ATOM      1  C   UNL     1       3.547   4.733  18.598  0.00  0.00    +0.000 A 
ATOM      2  C   UNL     1       3.461   5.871  17.824  0.00  0.00    +0.000 A 
ATOM      3  N   UNL     1       2.815   6.988  18.195  0.00  0.00    +0.000 NA
ATOM      4  C   UNL     1       2.222   6.962  19.403  0.00  0.00    +0.000 A 
ATOM      5  N   UNL     1       2.218   5.895  20.226  0.00  0.00    +0.000 NA
ATOM      6  C   UNL     1       2.882   4.804  19.803  0.00  0.00    +0.000 A 
ENDROOT
BRANCH   4   7
ATOM      7  C   UNL     1       1.542   8.184  19.857  0.00  0.00    +0.000 A 
ATOM      8  C   UNL     1       1.483   9.334  19.050  0.00  0.00    +0.000 A 
ATOM      9  C   UNL     1       0.828  10.491  19.475  0.00  0.00    +0.000 A 
ATOM     10  C   UNL     1       0.213  10.534  20.730  0.00  0.00    +0.000 A 
ATOM     11  C   UNL     1      -0.465  11.682  21.172  0.00  0.00    +0.000 A 
ATOM     12  C   UNL     1      -1.069  11.708  22.429  0.00  0.00    +0.000 A 
ATOM     13  C   UNL     1      -1.002  10.594  23.261  0.00  0.00    +0.000 A 
ATOM     14  C   UNL     1      -0.336   9.446  22.834  0.00  0.00    +0.000 A 
ATOM     15  C   UNL     1       0.268   9.401  21.570  0.00  0.00    +0.000 A 
ATOM     16  C   UNL     1       0.928   8.248  21.122  0.00  0.00    +0.000 A 
ENDBRANCH   4   7
BRANCH   1  17
ATOM     17  C   UNL     1       4.284   3.513  18.151  0.00  0.00    +0.000 C 
BRANCH  17  18
ATOM     18  N   UNL     1       5.598   3.857  17.601  0.00  0.00    +0.000 NA
ATOM     19  H   UNL     1       5.757   4.859  17.702  0.00  0.00    +0.000 HD
BRANCH  18  20
ATOM     20  C   UNL     1       5.668   3.513  16.179  0.00  0.00    +0.000 C 
BRANCH  20  21
ATOM     21  C   UNL     1       6.643   4.446  15.468  0.00  0.00    +0.000 C 
BRANCH  21  26
ATOM     22  O   UNL     1       8.341   7.532  18.601  0.00  0.00    +0.000 OA
ATOM     23  C   UNL     1       7.655   7.049  17.722  0.00  0.00    +0.000 A 
ATOM     24  N   UNL     1       6.620   7.653  17.024  0.00  0.00    +0.000 N 
ATOM     25  N   UNL     1       6.101   6.793  16.095  0.00  0.00    +0.000 NA
ATOM     26  C   UNL     1       6.819   5.716  16.238  0.00  0.00    +0.000 A 
ATOM     27  N   UNL     1       7.749   5.791  17.206  0.00  0.00    +0.000 N 
ATOM     28  H   UNL     1       6.284   8.599  17.151  0.00  0.00    +0.000 HD
ATOM     29  H   UNL     1       8.426   5.108  17.500  0.00  0.00    +0.000 HD
ENDBRANCH  21  26
ENDBRANCH  20  21
ENDBRANCH  18  20
ENDBRANCH  17  18
ENDBRANCH   1  17
TORSDOF 6
ENDMDL
MODEL 5
REMARK VINA RESULT:      -7.9      3.255      4.708
REMARK  Name = 
REMARK  6 active torsions:
REMARK  status: ('A' for Active; 'I' for Inactive)
REMARK    1  A    between atoms: C_5  and  C_6
REMARK    2  A    between atoms: C_6  and  C_7
REMARK    3  A    between atoms: C_7  and  N_8
REMARK    4  A    between atoms: N_8  and  C_9
REMARK    5  A    between atoms: C_9  and  C_10
REMARK    6  A    between atoms: C_13  and  C_14
REMARK                            x       y       z     vdW  Elec       q    Type
REMARK                         _______ _______ _______ _____ _____    ______ ____
ROOT
ATOM      1  C   UNL     1       2.986   6.844  18.323  0.00  0.00    +0.000 A 
ATOM      2  C   UNL     1       2.630   6.494  19.608  0.00  0.00    +0.000 A 
ATOM      3  N   UNL     1       1.891   7.265  20.422  0.00  0.00    +0.000 NA
ATOM      4  C   UNL     1       1.491   8.449  19.921  0.00  0.00    +0.000 A 
ATOM      5  N   UNL     1       1.807   8.903  18.692  0.00  0.00    +0.000 NA
ATOM      6  C   UNL     1       2.549   8.087  17.921  0.00  0.00    +0.000 A 
ENDROOT
BRANCH   4   7
ATOM      7  C   UNL     1       0.645   9.300  20.772  0.00  0.00    +0.000 A 
ATOM      8  C   UNL     1       0.515   9.059  22.151  0.00  0.00    +0.000 A 
ATOM      9  C   UNL     1      -0.279   9.872  22.961  0.00  0.00    +0.000 A 
ATOM     10  C   UNL     1      -0.974  10.955  22.413  0.00  0.00    +0.000 A 
ATOM     11  C   UNL     1      -1.766  11.794  23.212  0.00  0.00    +0.000 A 
ATOM     12  C   UNL     1      -2.455  12.867  22.646  0.00  0.00    +0.000 A 
ATOM     13  C   UNL     1      -2.367  13.113  21.278  0.00  0.00    +0.000 A 
ATOM     14  C   UNL     1      -1.581  12.289  20.473  0.00  0.00    +0.000 A 
ATOM     15  C   UNL     1      -0.875  11.213  21.029  0.00  0.00    +0.000 A 
ATOM     16  C   UNL     1      -0.069  10.385  20.233  0.00  0.00    +0.000 A 
ENDBRANCH   4   7
BRANCH   1  17
ATOM     17  C   UNL     1       3.803   5.951  17.446  0.00  0.00    +0.000 C 
BRANCH  17  18
ATOM     18  N   UNL     1       5.225   6.300  17.507  0.00  0.00    +0.000 NA
ATOM     19  H   UNL     1       5.658   6.122  16.602  0.00  0.00    +0.000 HD
BRANCH  18  20
ATOM     20  C   UNL     1       5.911   5.496  18.521  0.00  0.00    +0.000 C 
BRANCH  20  21
ATOM     21  C   UNL     1       7.127   4.812  17.903  0.00  0.00    +0.000 C 
BRANCH  21  26
ATOM     22  O   UNL     1       7.555   5.403  13.246  0.00  0.00    +0.000 OA
ATOM     23  C   UNL     1       7.181   4.970  14.318  0.00  0.00    +0.000 A 
ATOM     24  N   UNL     1       6.278   3.944  14.552  0.00  0.00    +0.000 N 
ATOM     25  N   UNL     1       6.128   3.732  15.895  0.00  0.00    +0.000 NA
ATOM     26  C   UNL     1       6.929   4.605  16.435  0.00  0.00    +0.000 A 
ATOM     27  N   UNL     1       7.572   5.392  15.554  0.00  0.00    +0.000 N 
ATOM     28  H   UNL     1       5.794   3.401  13.849  0.00  0.00    +0.000 HD
ATOM     29  H   UNL     1       8.243   6.123  15.716  0.00  0.00    +0.000 HD
ENDBRANCH  21  26
ENDBRANCH  20  21
ENDBRANCH  18  20
ENDBRANCH  17  18
ENDBRANCH   1  17
TORSDOF 6
ENDMDL
MODEL 6
REMARK VINA RESULT:      -7.9      1.415      2.138
REMARK  Name = 
REMARK  6 active torsions:
REMARK  status: ('A' for Active; 'I' for Inactive)
REMARK    1  A    between atoms: C_5  and  C_6
REMARK    2  A    between atoms: C_6  and  C_7
REMARK    3  A    between atoms: C_7  and  N_8
REMARK    4  A    between atoms: N_8  and  C_9
REMARK    5  A    between atoms: C_9  and  C_10
REMARK    6  A    between atoms: C_13  and  C_14
REMARK                            x       y       z     vdW  Elec       q    Type
REMARK                         _______ _______ _______ _____ _____    ______ ____
ROOT
ATOM      1  C   UNL     1       3.389   6.479  18.202  0.00  0.00    +0.000 A 
ATOM      2  C   UNL     1       2.916   7.708  17.796  0.00  0.00    +0.000 A 
ATOM      3  N   UNL     1       2.130   8.499  18.545  0.00  0.00    +0.000 NA
ATOM      4  C   UNL     1       1.799   8.030  19.763  0.00  0.00    +0.000 A 
ATOM      5  N   UNL     1       2.181   6.831  20.247  0.00  0.00    +0.000 NA
ATOM      6  C   UNL     1       2.969   6.083  19.453  0.00  0.00    +0.000 A 
ENDROOT
BRANCH   4   7
ATOM      7  C   UNL     1       0.973   8.889  20.625  0.00  0.00    +0.000 A 
ATOM      8  C   UNL     1       0.923   8.699  22.017  0.00  0.00    +0.000 A 
ATOM      9  C   UNL     1       0.147   9.521  22.837  0.00  0.00    +0.000 A 
ATOM     10  C   UNL     1      -0.610  10.560  22.285  0.00  0.00    +0.000 A 
ATOM     11  C   UNL     1      -1.384  11.407  23.092  0.00  0.00    +0.000 A 
ATOM     12  C   UNL     1      -2.136  12.435  22.523  0.00  0.00    +0.000 A 
ATOM     13  C   UNL     1      -2.128  12.628  21.144  0.00  0.00    +0.000 A 
ATOM     14  C   UNL     1      -1.360  11.796  20.331  0.00  0.00    +0.000 A 
ATOM     15  C   UNL     1      -0.592  10.764  20.889  0.00  0.00    +0.000 A 
ATOM     16  C   UNL     1       0.197   9.930  20.083  0.00  0.00    +0.000 A 
ENDBRANCH   4   7
BRANCH   1  17
ATOM     17  C   UNL     1       4.270   5.635  17.340  0.00  0.00    +0.000 C 
BRANCH  17  18
ATOM     18  N   UNL     1       4.178   4.219  17.709  0.00  0.00    +0.000 NA
ATOM     19  H   UNL     1       5.080   3.769  17.558  0.00  0.00    +0.000 HD
BRANCH  18  20
ATOM     20  C   UNL     1       3.171   3.538  16.892  0.00  0.00    +0.000 C 
BRANCH  20  21
ATOM     21  C   UNL     1       2.654   2.307  17.631  0.00  0.00    +0.000 C 
BRANCH  21  26
ATOM     22  O   UNL     1       5.469   1.521  21.328  0.00  0.00    +0.000 OA
ATOM     23  C   UNL     1       4.506   1.864  20.672  0.00  0.00    +0.000 A 
ATOM     24  N   UNL     1       3.341   2.465  21.124  0.00  0.00    +0.000 N 
ATOM     25  N   UNL     1       2.494   2.719  20.080  0.00  0.00    +0.000 NA
ATOM     26  C   UNL     1       3.150   2.287  19.041  0.00  0.00    +0.000 A 
ATOM     27  N   UNL     1       4.347   1.744  19.324  0.00  0.00    +0.000 N 
ATOM     28  H   UNL     1       3.124   2.706  22.083  0.00  0.00    +0.000 HD
ATOM     29  H   UNL     1       5.038   1.355  18.705  0.00  0.00    +0.000 HD
ENDBRANCH  21  26
ENDBRANCH  20  21
ENDBRANCH  18  20
ENDBRANCH  17  18
ENDBRANCH   1  17
TORSDOF 6
ENDMDL
MODEL 7
REMARK VINA RESULT:      -7.9      2.800      4.195
REMARK  Name = 
REMARK  6 active torsions:
REMARK  status: ('A' for Active; 'I' for Inactive)
REMARK    1  A    between atoms: C_5  and  C_6
REMARK    2  A    between atoms: C_6  and  C_7
REMARK    3  A    between atoms: C_7  and  N_8
REMARK    4  A    between atoms: N_8  and  C_9
REMARK    5  A    between atoms: C_9  and  C_10
REMARK    6  A    between atoms: C_13  and  C_14
REMARK                            x       y       z     vdW  Elec       q    Type
REMARK                         _______ _______ _______ _____ _____    ______ ____
ROOT
ATOM      1  C   UNL     1       3.375   4.485  19.084  0.00  0.00    +0.000 A 
ATOM      2  C   UNL     1       3.275   5.538  18.200  0.00  0.00    +0.000 A 
ATOM      3  N   UNL     1       2.650   6.695  18.474  0.00  0.00    +0.000 NA
ATOM      4  C   UNL     1       2.095   6.798  19.696  0.00  0.00    +0.000 A 
ATOM      5  N   UNL     1       2.107   5.821  20.624  0.00  0.00    +0.000 NA
ATOM      6  C   UNL     1       2.749   4.685  20.295  0.00  0.00    +0.000 A 
ENDROOT
BRANCH   4   7
ATOM      7  C   UNL     1       1.438   8.068  20.043  0.00  0.00    +0.000 A 
ATOM      8  C   UNL     1       1.428   9.156  19.152  0.00  0.00    +0.000 A 
ATOM      9  C   UNL     1       0.796  10.357  19.476  0.00  0.00    +0.000 A 
ATOM     10  C   UNL     1       0.155  10.510  20.710  0.00  0.00    +0.000 A 
ATOM     11  C   UNL     1      -0.499  11.704  21.050  0.00  0.00    +0.000 A 
ATOM     12  C   UNL     1      -1.129  11.839  22.287  0.00  0.00    +0.000 A 
ATOM     13  C   UNL     1      -1.110  10.789  23.200  0.00  0.00    +0.000 A 
ATOM     14  C   UNL     1      -0.466   9.596  22.875  0.00  0.00    +0.000 A 
ATOM     15  C   UNL     1       0.163   9.442  21.631  0.00  0.00    +0.000 A 
ATOM     16  C   UNL     1       0.800   8.241  21.285  0.00  0.00    +0.000 A 
ENDBRANCH   4   7
BRANCH   1  17
ATOM     17  C   UNL     1       4.089   3.217  18.743  0.00  0.00    +0.000 C 
BRANCH  17  18
ATOM     18  N   UNL     1       5.530   3.336  18.983  0.00  0.00    +0.000 NA
ATOM     19  H   UNL     1       5.737   3.067  19.944  0.00  0.00    +0.000 HD
BRANCH  18  20
ATOM     20  C   UNL     1       5.975   4.716  18.776  0.00  0.00    +0.000 C 
BRANCH  20  21
ATOM     21  C   UNL     1       7.259   4.726  17.951  0.00  0.00    +0.000 C 
BRANCH  21  26
ATOM     22  O   UNL     1       7.443   5.364  13.285  0.00  0.00    +0.000 OA
ATOM     23  C   UNL     1       7.103   4.943  14.372  0.00  0.00    +0.000 A 
ATOM     24  N   UNL     1       6.138   3.987  14.650  0.00  0.00    +0.000 N 
ATOM     25  N   UNL     1       6.055   3.763  15.997  0.00  0.00    +0.000 NA
ATOM     26  C   UNL     1       6.955   4.561  16.496  0.00  0.00    +0.000 A 
ATOM     27  N   UNL     1       7.602   5.311  15.586  0.00  0.00    +0.000 N 
ATOM     28  H   UNL     1       5.569   3.496  13.972  0.00  0.00    +0.000 HD
ATOM     29  H   UNL     1       8.337   5.984  15.715  0.00  0.00    +0.000 HD
ENDBRANCH  21  26
ENDBRANCH  20  21
ENDBRANCH  18  20
ENDBRANCH  17  18
ENDBRANCH   1  17
TORSDOF 6
ENDMDL
MODEL 8
REMARK VINA RESULT:      -7.8      2.763      4.283
REMARK  Name = 
REMARK  6 active torsions:
REMARK  status: ('A' for Active; 'I' for Inactive)
REMARK    1  A    between atoms: C_5  and  C_6
REMARK    2  A    between atoms: C_6  and  C_7
REMARK    3  A    between atoms: C_7  and  N_8
REMARK    4  A    between atoms: N_8  and  C_9
REMARK    5  A    between atoms: C_9  and  C_10
REMARK    6  A    between atoms: C_13  and  C_14
REMARK                            x       y       z     vdW  Elec       q    Type
REMARK                         _______ _______ _______ _____ _____    ______ ____
ROOT
ATOM      1  C   UNL     1       3.490   4.825  18.896  0.00  0.00    +0.000 A 
ATOM      2  C   UNL     1       2.938   5.016  20.145  0.00  0.00    +0.000 A 
ATOM      3  N   UNL     1       2.285   6.128  20.519  0.00  0.00    +0.000 NA
ATOM      4  C   UNL     1       2.183   7.100  19.593  0.00  0.00    +0.000 A 
ATOM      5  N   UNL     1       2.710   7.031  18.355  0.00  0.00    +0.000 NA
ATOM      6  C   UNL     1       3.352   5.892  18.035  0.00  0.00    +0.000 A 
ENDROOT
BRANCH   4   7
ATOM      7  C   UNL     1       1.438   8.315  19.957  0.00  0.00    +0.000 A 
ATOM      8  C   UNL     1       1.293   9.384  19.056  0.00  0.00    +0.000 A 
ATOM      9  C   UNL     1       0.578  10.533  19.397  0.00  0.00    +0.000 A 
ATOM     10  C   UNL     1      -0.014  10.650  20.659  0.00  0.00    +0.000 A 
ATOM     11  C   UNL     1      -0.750  11.789  21.017  0.00  0.00    +0.000 A 
ATOM     12  C   UNL     1      -1.330  11.890  22.282  0.00  0.00    +0.000 A 
ATOM     13  C   UNL     1      -1.178  10.859  23.205  0.00  0.00    +0.000 A 
ATOM     14  C   UNL     1      -0.452   9.720  22.862  0.00  0.00    +0.000 A 
ATOM     15  C   UNL     1       0.128   9.600  21.591  0.00  0.00    +0.000 A 
ATOM     16  C   UNL     1       0.849   8.453  21.227  0.00  0.00    +0.000 A 
ENDBRANCH   4   7
BRANCH   1  17
ATOM     17  C   UNL     1       4.200   3.567  18.517  0.00  0.00    +0.000 C 
BRANCH  17  18
ATOM     18  N   UNL     1       5.462   3.854  17.829  0.00  0.00    +0.000 NA
ATOM     19  H   UNL     1       5.900   2.979  17.542  0.00  0.00    +0.000 HD
BRANCH  18  20
ATOM     20  C   UNL     1       6.382   4.570  18.716  0.00  0.00    +0.000 C 
BRANCH  20  21
ATOM     21  C   UNL     1       7.192   5.583  17.912  0.00  0.00    +0.000 C 
BRANCH  21  26
ATOM     22  O   UNL     1       7.029   4.211  13.407  0.00  0.00    +0.000 OA
ATOM     23  C   UNL     1       6.819   4.846  14.420  0.00  0.00    +0.000 A 
ATOM     24  N   UNL     1       5.990   5.947  14.577  0.00  0.00    +0.000 N 
ATOM     25  N   UNL     1       6.000   6.376  15.876  0.00  0.00    +0.000 NA
ATOM     26  C   UNL     1       6.807   5.543  16.468  0.00  0.00    +0.000 A 
ATOM     27  N   UNL     1       7.349   4.618  15.655  0.00  0.00    +0.000 N 
ATOM     28  H   UNL     1       5.433   6.385  13.854  0.00  0.00    +0.000 HD
ATOM     29  H   UNL     1       7.983   3.868  15.869  0.00  0.00    +0.000 HD
ENDBRANCH  21  26
ENDBRANCH  20  21
ENDBRANCH  18  20
ENDBRANCH  17  18
ENDBRANCH   1  17
TORSDOF 6
ENDMDL
MODEL 9
REMARK VINA RESULT:      -7.8      3.227      4.701
REMARK  Name = 
REMARK  6 active torsions:
REMARK  status: ('A' for Active; 'I' for Inactive)
REMARK    1  A    between atoms: C_5  and  C_6
REMARK    2  A    between atoms: C_6  and  C_7
REMARK    3  A    between atoms: C_7  and  N_8
REMARK    4  A    between atoms: N_8  and  C_9
REMARK    5  A    between atoms: C_9  and  C_10
REMARK    6  A    between atoms: C_13  and  C_14
REMARK                            x       y       z     vdW  Elec       q    Type
REMARK                         _______ _______ _______ _____ _____    ______ ____
ROOT
ATOM      1  C   UNL     1       4.082   5.409  18.469  0.00  0.00    +0.000 A 
ATOM      2  C   UNL     1       3.343   5.356  19.632  0.00  0.00    +0.000 A 
ATOM      3  N   UNL     1       2.524   6.335  20.049  0.00  0.00    +0.000 NA
ATOM      4  C   UNL     1       2.446   7.424  19.262  0.00  0.00    +0.000 A 
ATOM      5  N   UNL     1       3.146   7.593  18.123  0.00  0.00    +0.000 NA
ATOM      6  C   UNL     1       3.949   6.578  17.753  0.00  0.00    +0.000 A 
ENDROOT
BRANCH   4   7
ATOM      7  C   UNL     1       1.527   8.498  19.670  0.00  0.00    +0.000 A 
ATOM      8  C   UNL     1       1.053   9.447  18.748  0.00  0.00    +0.000 A 
ATOM      9  C   UNL     1       0.172  10.460  19.132  0.00  0.00    +0.000 A 
ATOM     10  C   UNL     1      -0.259  10.557  20.459  0.00  0.00    +0.000 A 
ATOM     11  C   UNL     1      -1.156  11.558  20.863  0.00  0.00    +0.000 A 
ATOM     12  C   UNL     1      -1.573  11.641  22.192  0.00  0.00    +0.000 A 
ATOM     13  C   UNL     1      -1.097  10.732  23.133  0.00  0.00    +0.000 A 
ATOM     14  C   UNL     1      -0.208   9.730  22.744  0.00  0.00    +0.000 A 
ATOM     15  C   UNL     1       0.212   9.628  21.411  0.00  0.00    +0.000 A 
ATOM     16  C   UNL     1       1.093   8.616  21.003  0.00  0.00    +0.000 A 
ENDBRANCH   4   7
BRANCH   1  17
ATOM     17  C   UNL     1       4.975   4.292  18.035  0.00  0.00    +0.000 C 
BRANCH  17  18
ATOM     18  N   UNL     1       6.330   4.457  18.567  0.00  0.00    +0.000 NA
ATOM     19  H   UNL     1       6.421   5.381  18.987  0.00  0.00    +0.000 HD
BRANCH  18  20
ATOM     20  C   UNL     1       7.323   4.329  17.497  0.00  0.00    +0.000 C 
BRANCH  20  21
ATOM     21  C   UNL     1       7.073   5.392  16.431  0.00  0.00    +0.000 C 
BRANCH  21  26
ATOM     22  O   UNL     1       7.502   4.660  11.794  0.00  0.00    +0.000 OA
ATOM     23  C   UNL     1       7.148   4.527  12.949  0.00  0.00    +0.000 A 
ATOM     24  N   UNL     1       6.315   3.551  13.474  0.00  0.00    +0.000 N 
ATOM     25  N   UNL     1       6.167   3.720  14.824  0.00  0.00    +0.000 NA
ATOM     26  C   UNL     1       6.903   4.763  15.085  0.00  0.00    +0.000 A 
ATOM     27  N   UNL     1       7.499   5.307  14.009  0.00  0.00    +0.000 N 
ATOM     28  H   UNL     1       5.874   2.800  12.960  0.00  0.00    +0.000 HD
ATOM     29  H   UNL     1       8.118   6.098  13.950  0.00  0.00    +0.000 HD
ENDBRANCH  21  26
ENDBRANCH  20  21
ENDBRANCH  18  20
ENDBRANCH  17  18
ENDBRANCH   1  17
TORSDOF 6
ENDMDL
