MODEL 1
REMARK VINA RESULT:      -6.9      0.000      0.000
REMARK  Name = 
REMARK  4 active torsions:
REMARK  status: ('A' for Active; 'I' for Inactive)
REMARK    1  A    between atoms: C_1  and  C_2
REMARK    2  A    between atoms: C_2  and  O_3
REMARK    3  A    between atoms: O_3  and  C_4
REMARK    4  A    between atoms: C_10  and  N_11
REMARK                            x       y       z     vdW  Elec       q    Type
REMARK                         _______ _______ _______ _____ _____    ______ ____
ROOT
ATOM      1  C   UNL     1       4.346   3.891  19.081  0.00  0.00    +0.000 A 
ATOM      2  O   UNL     1       5.582   4.425  19.512  0.00  0.00    +0.000 OA
ATOM      3  C   UNL     1       6.596   4.719  18.645  0.00  0.00    +0.000 A 
ATOM      4  O   UNL     1       7.679   5.126  19.037  0.00  0.00    +0.000 OA
ATOM      5  C   UNL     1       6.305   4.565  17.203  0.00  0.00    +0.000 A 
ATOM      6  C   UNL     1       7.284   4.963  16.277  0.00  0.00    +0.000 A 
ATOM      7  C   UNL     1       7.025   4.926  14.907  0.00  0.00    +0.000 A 
ATOM      8  C   UNL     1       5.758   4.531  14.485  0.00  0.00    +0.000 A 
ATOM      9  C   UNL     1       4.809   4.059  15.397  0.00  0.00    +0.000 A 
ATOM     10  C   UNL     1       5.062   4.088  16.776  0.00  0.00    +0.000 A 
ATOM     11  C   UNL     1       4.073   3.693  17.783  0.00  0.00    +0.000 A 
ATOM     12 CL   UNL     1       2.562   3.006  17.286  0.00  0.00    +0.000 Cl
ENDROOT
BRANCH   7  13
ATOM     13  N   UNL     1       7.918   5.506  14.003  0.00  0.00    +0.000 N 
ATOM     14  H   UNL     1       8.794   5.002  13.898  0.00  0.00    +0.000 HD
ATOM     15  H   UNL     1       7.509   5.758  13.108  0.00  0.00    +0.000 HD
ENDBRANCH   7  13
BRANCH   1  16
ATOM     16  O   UNL     1       3.413   3.540  20.041  0.00  0.00    +0.000 OA
BRANCH  16  18
ATOM     17  C   UNL     1       1.170   4.150  20.494  0.00  0.00    +0.000 C 
ATOM     18  C   UNL     1       2.609   4.628  20.497  0.00  0.00    +0.000 C 
ENDBRANCH  16  18
ENDBRANCH   1  16
TORSDOF 3
ENDMDL
MODEL 2
REMARK VINA RESULT:      -6.7      3.508      5.354
REMARK  Name = 
REMARK  4 active torsions:
REMARK  status: ('A' for Active; 'I' for Inactive)
REMARK    1  A    between atoms: C_1  and  C_2
REMARK    2  A    between atoms: C_2  and  O_3
REMARK    3  A    between atoms: O_3  and  C_4
REMARK    4  A    between atoms: C_10  and  N_11
REMARK                            x       y       z     vdW  Elec       q    Type
REMARK                         _______ _______ _______ _____ _____    ______ ____
ROOT
ATOM      1  C   UNL     1       5.135   6.124  16.921  0.00  0.00    +0.000 A 
ATOM      2  O   UNL     1       4.287   6.968  17.673  0.00  0.00    +0.000 OA
ATOM      3  C   UNL     1       3.109   6.533  18.209  0.00  0.00    +0.000 A 
ATOM      4  O   UNL     1       2.357   7.288  18.808  0.00  0.00    +0.000 OA
ATOM      5  C   UNL     1       2.806   5.092  18.073  0.00  0.00    +0.000 A 
ATOM      6  C   UNL     1       1.659   4.586  18.708  0.00  0.00    +0.000 A 
ATOM      7  C   UNL     1       1.379   3.220  18.688  0.00  0.00    +0.000 A 
ATOM      8  C   UNL     1       2.288   2.368  18.066  0.00  0.00    +0.000 A 
ATOM      9  C   UNL     1       3.387   2.875  17.365  0.00  0.00    +0.000 A 
ATOM     10  C   UNL     1       3.675   4.247  17.375  0.00  0.00    +0.000 A 
ATOM     11  C   UNL     1       4.862   4.824  16.737  0.00  0.00    +0.000 A 
ATOM     12 CL   UNL     1       5.903   3.820  15.784  0.00  0.00    +0.000 Cl
ENDROOT
BRANCH   7  13
ATOM     13  N   UNL     1       0.356   2.697  19.482  0.00  0.00    +0.000 N 
ATOM     14  H   UNL     1      -0.287   2.085  18.987  0.00  0.00    +0.000 HD
ATOM     15  H   UNL     1       0.667   2.297  20.363  0.00  0.00    +0.000 HD
ENDBRANCH   7  13
BRANCH   1  16
ATOM     16  O   UNL     1       6.263   6.677  16.339  0.00  0.00    +0.000 OA
BRANCH  16  18
ATOM     17  C   UNL     1       7.661   8.155  17.553  0.00  0.00    +0.000 C 
ATOM     18  C   UNL     1       7.406   6.703  17.194  0.00  0.00    +0.000 C 
ENDBRANCH  16  18
ENDBRANCH   1  16
TORSDOF 3
ENDMDL
MODEL 3
REMARK VINA RESULT:      -6.5      2.042      2.209
REMARK  Name = 
REMARK  4 active torsions:
REMARK  status: ('A' for Active; 'I' for Inactive)
REMARK    1  A    between atoms: C_1  and  C_2
REMARK    2  A    between atoms: C_2  and  O_3
REMARK    3  A    between atoms: O_3  and  C_4
REMARK    4  A    between atoms: C_10  and  N_11
REMARK                            x       y       z     vdW  Elec       q    Type
REMARK                         _______ _______ _______ _____ _____    ______ ____
ROOT
ATOM      1  C   UNL     1       2.281   4.539  18.289  0.00  0.00    +0.000 A 
ATOM      2  O   UNL     1       2.561   5.923  18.216  0.00  0.00    +0.000 OA
ATOM      3  C   UNL     1       3.691   6.412  17.625  0.00  0.00    +0.000 A 
ATOM      4  O   UNL     1       3.948   7.607  17.620  0.00  0.00    +0.000 OA
ATOM      5  C   UNL     1       4.568   5.431  16.950  0.00  0.00    +0.000 A 
ATOM      6  C   UNL     1       5.681   5.908  16.236  0.00  0.00    +0.000 A 
ATOM      7  C   UNL     1       6.485   5.035  15.506  0.00  0.00    +0.000 A 
ATOM      8  C   UNL     1       6.131   3.689  15.463  0.00  0.00    +0.000 A 
ATOM      9  C   UNL     1       5.073   3.198  16.235  0.00  0.00    +0.000 A 
ATOM     10  C   UNL     1       4.261   4.067  16.977  0.00  0.00    +0.000 A 
ATOM     11  C   UNL     1       3.085   3.622  17.729  0.00  0.00    +0.000 A 
ATOM     12 CL   UNL     1       2.735   1.931  17.863  0.00  0.00    +0.000 Cl
ENDROOT
BRANCH   7  13
ATOM     13  N   UNL     1       7.464   5.531  14.642  0.00  0.00    +0.000 N 
ATOM     14  H   UNL     1       7.871   4.834  14.025  0.00  0.00    +0.000 HD
ATOM     15  H   UNL     1       7.201   6.378  14.146  0.00  0.00    +0.000 HD
ENDBRANCH   7  13
BRANCH   1  16
ATOM     16  O   UNL     1       1.157   4.133  18.987  0.00  0.00    +0.000 OA
BRANCH  16  18
ATOM     17  C   UNL     1       1.315   2.998  21.060  0.00  0.00    +0.000 C 
ATOM     18  C   UNL     1       1.233   4.359  20.394  0.00  0.00    +0.000 C 
ENDBRANCH  16  18
ENDBRANCH   1  16
TORSDOF 3
ENDMDL
MODEL 4
REMARK VINA RESULT:      -6.4      3.520      5.846
REMARK  Name = 
REMARK  4 active torsions:
REMARK  status: ('A' for Active; 'I' for Inactive)
REMARK    1  A    between atoms: C_1  and  C_2
REMARK    2  A    between atoms: C_2  and  O_3
REMARK    3  A    between atoms: O_3  and  C_4
REMARK    4  A    between atoms: C_10  and  N_11
REMARK                            x       y       z     vdW  Elec       q    Type
REMARK                         _______ _______ _______ _____ _____    ______ ____
ROOT
ATOM      1  C   UNL     1       4.364   4.552  16.855  0.00  0.00    +0.000 A 
ATOM      2  O   UNL     1       4.339   3.141  16.928  0.00  0.00    +0.000 OA
ATOM      3  C   UNL     1       3.831   2.472  18.005  0.00  0.00    +0.000 A 
ATOM      4  O   UNL     1       3.868   1.253  18.080  0.00  0.00    +0.000 OA
ATOM      5  C   UNL     1       3.189   3.291  19.056  0.00  0.00    +0.000 A 
ATOM      6  C   UNL     1       2.555   2.633  20.124  0.00  0.00    +0.000 A 
ATOM      7  C   UNL     1       1.856   3.354  21.091  0.00  0.00    +0.000 A 
ATOM      8  C   UNL     1       1.762   4.736  20.944  0.00  0.00    +0.000 A 
ATOM      9  C   UNL     1       2.456   5.402  19.928  0.00  0.00    +0.000 A 
ATOM     10  C   UNL     1       3.166   4.686  18.954  0.00  0.00    +0.000 A 
ATOM     11  C   UNL     1       3.835   5.323  17.817  0.00  0.00    +0.000 A 
ATOM     12 CL   UNL     1       3.908   7.050  17.716  0.00  0.00    +0.000 Cl
ENDROOT
BRANCH   7  13
ATOM     13  N   UNL     1       1.066   2.693  22.032  0.00  0.00    +0.000 N 
ATOM     14  H   UNL     1       1.549   1.962  22.547  0.00  0.00    +0.000 HD
ATOM     15  H   UNL     1       0.533   3.306  22.642  0.00  0.00    +0.000 HD
ENDBRANCH   7  13
BRANCH   1  16
ATOM     16  O   UNL     1       4.982   5.141  15.765  0.00  0.00    +0.000 OA
BRANCH  16  18
ATOM     17  C   UNL     1       6.007   3.988  13.968  0.00  0.00    +0.000 C 
ATOM     18  C   UNL     1       6.204   4.511  15.378  0.00  0.00    +0.000 C 
ENDBRANCH  16  18
ENDBRANCH   1  16
TORSDOF 3
ENDMDL
MODEL 5
REMARK VINA RESULT:      -6.3      2.316      2.840
REMARK  Name = 
REMARK  4 active torsions:
REMARK  status: ('A' for Active; 'I' for Inactive)
REMARK    1  A    between atoms: C_1  and  C_2
REMARK    2  A    between atoms: C_2  and  O_3
REMARK    3  A    between atoms: O_3  and  C_4
REMARK    4  A    between atoms: C_10  and  N_11
REMARK                            x       y       z     vdW  Elec       q    Type
REMARK                         _______ _______ _______ _____ _____    ______ ____
ROOT
ATOM      1  C   UNL     1       2.498   4.552  19.381  0.00  0.00    +0.000 A 
ATOM      2  O   UNL     1       2.908   3.287  18.900  0.00  0.00    +0.000 OA
ATOM      3  C   UNL     1       3.681   3.143  17.783  0.00  0.00    +0.000 A 
ATOM      4  O   UNL     1       3.979   2.041  17.346  0.00  0.00    +0.000 OA
ATOM      5  C   UNL     1       4.180   4.384  17.154  0.00  0.00    +0.000 A 
ATOM      6  C   UNL     1       5.069   4.274  16.071  0.00  0.00    +0.000 A 
ATOM      7  C   UNL     1       5.641   5.411  15.502  0.00  0.00    +0.000 A 
ATOM      8  C   UNL     1       5.347   6.651  16.064  0.00  0.00    +0.000 A 
ATOM      9  C   UNL     1       4.403   6.772  17.089  0.00  0.00    +0.000 A 
ATOM     10  C   UNL     1       3.818   5.635  17.664  0.00  0.00    +0.000 A 
ATOM     11  C   UNL     1       2.894   5.694  18.800  0.00  0.00    +0.000 A 
ATOM     12 CL   UNL     1       2.351   7.228  19.391  0.00  0.00    +0.000 Cl
ENDROOT
BRANCH   7  13
ATOM     13  N   UNL     1       6.670   5.292  14.564  0.00  0.00    +0.000 N 
ATOM     14  H   UNL     1       6.360   5.025  13.634  0.00  0.00    +0.000 HD
ATOM     15  H   UNL     1       7.317   6.075  14.545  0.00  0.00    +0.000 HD
ENDBRANCH   7  13
BRANCH   1  16
ATOM     16  O   UNL     1       1.640   4.594  20.466  0.00  0.00    +0.000 OA
BRANCH  16  18
ATOM     17  C   UNL     1       1.627   2.679  21.861  0.00  0.00    +0.000 C 
ATOM     18  C   UNL     1       0.938   3.373  20.701  0.00  0.00    +0.000 C 
ENDBRANCH  16  18
ENDBRANCH   1  16
TORSDOF 3
ENDMDL
MODEL 6
REMARK VINA RESULT:      -6.3      3.637      4.803
REMARK  Name = 
REMARK  4 active torsions:
REMARK  status: ('A' for Active; 'I' for Inactive)
REMARK    1  A    between atoms: C_1  and  C_2
REMARK    2  A    between atoms: C_2  and  O_3
REMARK    3  A    between atoms: O_3  and  C_4
REMARK    4  A    between atoms: C_10  and  N_11
REMARK                            x       y       z     vdW  Elec       q    Type
REMARK                         _______ _______ _______ _____ _____    ______ ____
ROOT
ATOM      1  C   UNL     1       2.088   6.764  19.911  0.00  0.00    +0.000 A 
ATOM      2  O   UNL     1       1.638   5.805  20.847  0.00  0.00    +0.000 OA
ATOM      3  C   UNL     1       1.776   4.462  20.642  0.00  0.00    +0.000 A 
ATOM      4  O   UNL     1       1.330   3.642  21.433  0.00  0.00    +0.000 OA
ATOM      5  C   UNL     1       2.531   4.044  19.442  0.00  0.00    +0.000 A 
ATOM      6  C   UNL     1       2.790   2.675  19.257  0.00  0.00    +0.000 A 
ATOM      7  C   UNL     1       3.576   2.237  18.193  0.00  0.00    +0.000 A 
ATOM      8  C   UNL     1       4.137   3.193  17.348  0.00  0.00    +0.000 A 
ATOM      9  C   UNL     1       3.818   4.548  17.482  0.00  0.00    +0.000 A 
ATOM     10  C   UNL     1       3.024   4.998  18.545  0.00  0.00    +0.000 A 
ATOM     11  C   UNL     1       2.732   6.413  18.789  0.00  0.00    +0.000 A 
ATOM     12 CL   UNL     1       3.244   7.608  17.644  0.00  0.00    +0.000 Cl
ENDROOT
BRANCH   7  13
ATOM     13  N   UNL     1       3.996   0.907  18.123  0.00  0.00    +0.000 N 
ATOM     14  H   UNL     1       3.629   0.313  18.861  0.00  0.00    +0.000 HD
ATOM     15  H   UNL     1       3.904   0.482  17.205  0.00  0.00    +0.000 HD
ENDBRANCH   7  13
BRANCH   1  16
ATOM     16  O   UNL     1       1.823   8.099  20.163  0.00  0.00    +0.000 OA
BRANCH  16  18
ATOM     17  C   UNL     1      -0.095   8.914  21.290  0.00  0.00    +0.000 C 
ATOM     18  C   UNL     1       1.304   8.354  21.468  0.00  0.00    +0.000 C 
ENDBRANCH  16  18
ENDBRANCH   1  16
TORSDOF 3
ENDMDL
MODEL 7
REMARK VINA RESULT:      -6.2      2.453      2.872
REMARK  Name = 
REMARK  4 active torsions:
REMARK  status: ('A' for Active; 'I' for Inactive)
REMARK    1  A    between atoms: C_1  and  C_2
REMARK    2  A    between atoms: C_2  and  O_3
REMARK    3  A    between atoms: O_3  and  C_4
REMARK    4  A    between atoms: C_10  and  N_11
REMARK                            x       y       z     vdW  Elec       q    Type
REMARK                         _______ _______ _______ _____ _____    ______ ____
ROOT
ATOM      1  C   UNL     1       2.146   4.095  17.902  0.00  0.00    +0.000 A 
ATOM      2  O   UNL     1       1.959   5.495  17.969  0.00  0.00    +0.000 OA
ATOM      3  C   UNL     1       2.998   6.377  17.896  0.00  0.00    +0.000 A 
ATOM      4  O   UNL     1       2.828   7.582  18.013  0.00  0.00    +0.000 OA
ATOM      5  C   UNL     1       4.336   5.811  17.620  0.00  0.00    +0.000 A 
ATOM      6  C   UNL     1       5.411   6.695  17.427  0.00  0.00    +0.000 A 
ATOM      7  C   UNL     1       6.672   6.217  17.073  0.00  0.00    +0.000 A 
ATOM      8  C   UNL     1       6.825   4.847  16.870  0.00  0.00    +0.000 A 
ATOM      9  C   UNL     1       5.780   3.957  17.138  0.00  0.00    +0.000 A 
ATOM     10  C   UNL     1       4.510   4.428  17.500  0.00  0.00    +0.000 A 
ATOM     11  C   UNL     1       3.355   3.550  17.703  0.00  0.00    +0.000 A 
ATOM     12 CL   UNL     1       3.560   1.831  17.658  0.00  0.00    +0.000 Cl
ENDROOT
BRANCH   7  13
ATOM     13  N   UNL     1       7.681   7.101  16.689  0.00  0.00    +0.000 N 
ATOM     14  H   UNL     1       8.526   6.651  16.348  0.00  0.00    +0.000 HD
ATOM     15  H   UNL     1       7.374   7.855  16.080  0.00  0.00    +0.000 HD
ENDBRANCH   7  13
BRANCH   1  16
ATOM     16  O   UNL     1       1.043   3.277  18.077  0.00  0.00    +0.000 OA
BRANCH  16  18
ATOM     17  C   UNL     1       0.831   3.831  20.370  0.00  0.00    +0.000 C 
ATOM     18  C   UNL     1       0.954   2.692  19.376  0.00  0.00    +0.000 C 
ENDBRANCH  16  18
ENDBRANCH   1  16
TORSDOF 3
ENDMDL
MODEL 8
REMARK VINA RESULT:      -6.2      3.252      5.111
REMARK  Name = 
REMARK  4 active torsions:
REMARK  status: ('A' for Active; 'I' for Inactive)
REMARK    1  A    between atoms: C_1  and  C_2
REMARK    2  A    between atoms: C_2  and  O_3
REMARK    3  A    between atoms: O_3  and  C_4
REMARK    4  A    between atoms: C_10  and  N_11
REMARK                            x       y       z     vdW  Elec       q    Type
REMARK                         _______ _______ _______ _____ _____    ______ ____
ROOT
ATOM      1  C   UNL     1       6.008   4.964  17.995  0.00  0.00    +0.000 A 
ATOM      2  O   UNL     1       6.131   3.899  18.916  0.00  0.00    +0.000 OA
ATOM      3  C   UNL     1       5.048   3.299  19.492  0.00  0.00    +0.000 A 
ATOM      4  O   UNL     1       5.171   2.418  20.329  0.00  0.00    +0.000 OA
ATOM      5  C   UNL     1       3.716   3.733  19.019  0.00  0.00    +0.000 A 
ATOM      6  C   UNL     1       2.581   3.062  19.506  0.00  0.00    +0.000 A 
ATOM      7  C   UNL     1       1.310   3.370  19.023  0.00  0.00    +0.000 A 
ATOM      8  C   UNL     1       1.200   4.323  18.014  0.00  0.00    +0.000 A 
ATOM      9  C   UNL     1       2.315   5.049  17.583  0.00  0.00    +0.000 A 
ATOM     10  C   UNL     1       3.597   4.751  18.067  0.00  0.00    +0.000 A 
ATOM     11  C   UNL     1       4.812   5.413  17.585  0.00  0.00    +0.000 A 
ATOM     12 CL   UNL     1       4.690   6.742  16.481  0.00  0.00    +0.000 Cl
ENDROOT
BRANCH   7  13
ATOM     13  N   UNL     1       0.214   2.572  19.358  0.00  0.00    +0.000 N 
ATOM     14  H   UNL     1      -0.618   3.092  19.623  0.00  0.00    +0.000 HD
ATOM     15  H   UNL     1       0.010   1.832  18.691  0.00  0.00    +0.000 HD
ENDBRANCH   7  13
BRANCH   1  16
ATOM     16  O   UNL     1       7.164   5.569  17.533  0.00  0.00    +0.000 OA
BRANCH  16  18
ATOM     17  C   UNL     1       7.831   7.830  17.767  0.00  0.00    +0.000 C 
ATOM     18  C   UNL     1       7.752   6.483  18.460  0.00  0.00    +0.000 C 
ENDBRANCH  16  18
ENDBRANCH   1  16
TORSDOF 3
ENDMDL
MODEL 9
REMARK VINA RESULT:      -6.1      3.450      5.240
REMARK  Name = 
REMARK  4 active torsions:
REMARK  status: ('A' for Active; 'I' for Inactive)
REMARK    1  A    between atoms: C_1  and  C_2
REMARK    2  A    between atoms: C_2  and  O_3
REMARK    3  A    between atoms: O_3  and  C_4
REMARK    4  A    between atoms: C_10  and  N_11
REMARK                            x       y       z     vdW  Elec       q    Type
REMARK                         _______ _______ _______ _____ _____    ______ ____
ROOT
ATOM      1  C   UNL     1       7.035   6.266  17.101  0.00  0.00    +0.000 A 
ATOM      2  O   UNL     1       6.402   6.036  15.858  0.00  0.00    +0.000 OA
ATOM      3  C   UNL     1       5.486   5.040  15.675  0.00  0.00    +0.000 A 
ATOM      4  O   UNL     1       4.989   4.816  14.581  0.00  0.00    +0.000 OA
ATOM      5  C   UNL     1       5.086   4.273  16.875  0.00  0.00    +0.000 A 
ATOM      6  C   UNL     1       4.065   3.316  16.749  0.00  0.00    +0.000 A 
ATOM      7  C   UNL     1       3.588   2.633  17.867  0.00  0.00    +0.000 A 
ATOM      8  C   UNL     1       4.115   2.959  19.115  0.00  0.00    +0.000 A 
ATOM      9  C   UNL     1       5.184   3.852  19.235  0.00  0.00    +0.000 A 
ATOM     10  C   UNL     1       5.675   4.540  18.116  0.00  0.00    +0.000 A 
ATOM     11  C   UNL     1       6.730   5.553  18.195  0.00  0.00    +0.000 A 
ATOM     12 CL   UNL     1       7.546   5.835  19.697  0.00  0.00    +0.000 Cl
ENDROOT
BRANCH   7  13
ATOM     13  N   UNL     1       2.446   1.835  17.773  0.00  0.00    +0.000 N 
ATOM     14  H   UNL     1       2.422   1.060  18.430  0.00  0.00    +0.000 HD
ATOM     15  H   UNL     1       1.571   2.350  17.752  0.00  0.00    +0.000 HD
ENDBRANCH   7  13
BRANCH   1  16
ATOM     16  O   UNL     1       8.017   7.239  17.166  0.00  0.00    +0.000 OA
BRANCH  16  18
ATOM     17  C   UNL     1       8.585   9.216  18.341  0.00  0.00    +0.000 C 
ATOM     18  C   UNL     1       7.526   8.540  17.490  0.00  0.00    +0.000 C 
ENDBRANCH  16  18
ENDBRANCH   1  16
TORSDOF 3
ENDMDL
