MODEL 1
REMARK VINA RESULT:      -8.3      0.000      0.000
REMARK  Name = 
REMARK  5 active torsions:
REMARK  status: ('A' for Active; 'I' for Inactive)
REMARK    1  A    between atoms: C_2  and  C_15
REMARK    2  A    between atoms: N_3  and  C_4
REMARK    3  A    between atoms: C_6  and  C_7
REMARK    4  A    between atoms: N_21  and  C_22
REMARK    5  A    between atoms: C_22  and  C_23
REMARK                            x       y       z     vdW  Elec       q    Type
REMARK                         _______ _______ _______ _____ _____    ______ ____
ROOT
ATOM      1  O   UNL     1       3.032   3.812  16.676  0.00  0.00    +0.000 OA
ATOM      2  C   UNL     1       3.886   3.513  17.511  0.00  0.00    +0.000 C 
ATOM      3  N   UNL     1       5.260   3.634  17.339  0.00  0.00    +0.000 N 
ATOM      4  H   UNL     1       5.857   3.231  18.059  0.00  0.00    +0.000 HD
ENDROOT
BRANCH   3   5
ATOM      5  C   UNL     1       5.921   4.066  16.160  0.00  0.00    +0.000 A 
ATOM      6  C   UNL     1       5.548   3.598  14.897  0.00  0.00    +0.000 A 
ATOM      7  C   UNL     1       6.216   4.004  13.732  0.00  0.00    +0.000 A 
ATOM      8  C   UNL     1       7.267   4.923  13.841  0.00  0.00    +0.000 A 
ATOM      9  C   UNL     1       7.646   5.420  15.086  0.00  0.00    +0.000 A 
ATOM     10  C   UNL     1       6.974   4.996  16.241  0.00  0.00    +0.000 A 
ATOM     11 CL   UNL     1       7.510   5.604  17.770  0.00  0.00    +0.000 Cl
BRANCH   7  12
ATOM     12  C   UNL     1       5.801   3.447  12.391  0.00  0.00    +0.000 C 
ATOM     13  F   UNL     1       6.504   3.960  11.343  0.00  0.00    +0.000 F 
ATOM     14  F   UNL     1       5.961   2.097  12.320  0.00  0.00    +0.000 F 
ATOM     15  F   UNL     1       4.490   3.688  12.115  0.00  0.00    +0.000 F 
ENDBRANCH   7  12
ENDBRANCH   3   5
BRANCH   2  16
ATOM     16  C   UNL     1       3.446   3.115  18.929  0.00  0.00    +0.000 C 
ATOM     17  C   UNL     1       2.534   1.894  18.732  0.00  0.00    +0.000 C 
ATOM     18  O   UNL     1       1.849   1.588  19.941  0.00  0.00    +0.000 OA
ATOM     19  C   UNL     1       0.973   2.652  20.279  0.00  0.00    +0.000 C 
ATOM     20  C   UNL     1       1.555   4.077  20.243  0.00  0.00    +0.000 C 
ATOM     21  O   UNL     1       0.918   5.033  20.688  0.00  0.00    +0.000 OA
ATOM     22  N   UNL     1       2.800   4.229  19.651  0.00  0.00    +0.000 N 
BRANCH  22  23
ATOM     23  C   UNL     1       3.533   5.487  19.820  0.00  0.00    +0.000 C 
BRANCH  23  24
ATOM     24  C   UNL     1       2.883   6.648  19.132  0.00  0.00    +0.000 A 
ATOM     25  C   UNL     1       3.046   7.061  17.825  0.00  0.00    +0.000 A 
ATOM     26  C   UNL     1       2.460   8.336  17.574  0.00  0.00    +0.000 A 
ATOM     27  C   UNL     1       1.824   8.836  18.688  0.00  0.00    +0.000 A 
ATOM     28  S   UNL     1       1.920   7.762  20.016  0.00  0.00    +0.000 S 
ENDBRANCH  23  24
ENDBRANCH  22  23
ENDBRANCH   2  16
TORSDOF 5
ENDMDL
MODEL 2
REMARK VINA RESULT:      -8.2      5.336      7.793
REMARK  Name = 
REMARK  5 active torsions:
REMARK  status: ('A' for Active; 'I' for Inactive)
REMARK    1  A    between atoms: C_2  and  C_15
REMARK    2  A    between atoms: N_3  and  C_4
REMARK    3  A    between atoms: C_6  and  C_7
REMARK    4  A    between atoms: N_21  and  C_22
REMARK    5  A    between atoms: C_22  and  C_23
REMARK                            x       y       z     vdW  Elec       q    Type
REMARK                         _______ _______ _______ _____ _____    ______ ____
ROOT
ATOM      1  O   UNL     1      -0.701   7.979  21.311  0.00  0.00    +0.000 OA
ATOM      2  C   UNL     1       0.293   8.704  21.317  0.00  0.00    +0.000 C 
ATOM      3  N   UNL     1       1.522   8.393  20.745  0.00  0.00    +0.000 N 
ATOM      4  H   UNL     1       2.297   9.027  20.934  0.00  0.00    +0.000 HD
ENDROOT
BRANCH   3   5
ATOM      5  C   UNL     1       1.865   7.173  20.109  0.00  0.00    +0.000 A 
ATOM      6  C   UNL     1       1.748   5.945  20.768  0.00  0.00    +0.000 A 
ATOM      7  C   UNL     1       2.110   4.738  20.151  0.00  0.00    +0.000 A 
ATOM      8  C   UNL     1       2.575   4.767  18.831  0.00  0.00    +0.000 A 
ATOM      9  C   UNL     1       2.683   5.976  18.145  0.00  0.00    +0.000 A 
ATOM     10  C   UNL     1       2.327   7.173  18.780  0.00  0.00    +0.000 A 
ATOM     11 CL   UNL     1       2.522   8.654  17.906  0.00  0.00    +0.000 Cl
BRANCH   7  12
ATOM     12  C   UNL     1       1.997   3.438  20.912  0.00  0.00    +0.000 C 
ATOM     13  F   UNL     1       2.793   2.446  20.421  0.00  0.00    +0.000 F 
ATOM     14  F   UNL     1       2.339   3.575  22.222  0.00  0.00    +0.000 F 
ATOM     15  F   UNL     1       0.730   2.940  20.900  0.00  0.00    +0.000 F 
ENDBRANCH   7  12
ENDBRANCH   3   5
BRANCH   2  16
ATOM     16  C   UNL     1       0.175  10.141  21.849  0.00  0.00    +0.000 C 
ATOM     17  C   UNL     1      -0.704  10.027  23.104  0.00  0.00    +0.000 C 
ATOM     18  O   UNL     1      -1.109  11.318  23.544  0.00  0.00    +0.000 OA
ATOM     19  C   UNL     1      -1.943  11.918  22.564  0.00  0.00    +0.000 C 
ATOM     20  C   UNL     1      -1.444  11.891  21.108  0.00  0.00    +0.000 C 
ATOM     21  O   UNL     1      -2.016  12.538  20.230  0.00  0.00    +0.000 OA
ATOM     22  N   UNL     1      -0.356  11.074  20.835  0.00  0.00    +0.000 N 
BRANCH  22  23
ATOM     23  C   UNL     1       0.340  11.202  19.552  0.00  0.00    +0.000 C 
BRANCH  23  24
ATOM     24  C   UNL     1       1.432  12.229  19.571  0.00  0.00    +0.000 A 
ATOM     25  C   UNL     1       1.751  13.110  20.585  0.00  0.00    +0.000 A 
ATOM     26  C   UNL     1       2.690  14.102  20.175  0.00  0.00    +0.000 A 
ATOM     27  C   UNL     1       3.096  13.917  18.873  0.00  0.00    +0.000 A 
ATOM     28  S   UNL     1       2.361  12.545  18.162  0.00  0.00    +0.000 S 
ENDBRANCH  23  24
ENDBRANCH  22  23
ENDBRANCH   2  16
TORSDOF 5
ENDMDL
MODEL 3
REMARK VINA RESULT:      -8.1      5.273      7.733
REMARK  Name = 
REMARK  5 active torsions:
REMARK  status: ('A' for Active; 'I' for Inactive)
REMARK    1  A    between atoms: C_2  and  C_15
REMARK    2  A    between atoms: N_3  and  C_4
REMARK    3  A    between atoms: C_6  and  C_7
REMARK    4  A    between atoms: N_21  and  C_22
REMARK    5  A    between atoms: C_22  and  C_23
REMARK                            x       y       z     vdW  Elec       q    Type
REMARK                         _______ _______ _______ _____ _____    ______ ____
ROOT
ATOM      1  O   UNL     1      -0.583   7.917  21.398  0.00  0.00    +0.000 OA
ATOM      2  C   UNL     1       0.399   8.652  21.296  0.00  0.00    +0.000 C 
ATOM      3  N   UNL     1       1.587   8.326  20.652  0.00  0.00    +0.000 N 
ATOM      4  H   UNL     1       2.365   8.976  20.751  0.00  0.00    +0.000 HD
ENDROOT
BRANCH   3   5
ATOM      5  C   UNL     1       1.900   7.078  20.054  0.00  0.00    +0.000 A 
ATOM      6  C   UNL     1       1.782   5.876  20.760  0.00  0.00    +0.000 A 
ATOM      7  C   UNL     1       2.114   4.644  20.179  0.00  0.00    +0.000 A 
ATOM      8  C   UNL     1       2.550   4.618  18.849  0.00  0.00    +0.000 A 
ATOM      9  C   UNL     1       2.658   5.799  18.117  0.00  0.00    +0.000 A 
ATOM     10  C   UNL     1       2.332   7.024  18.716  0.00  0.00    +0.000 A 
ATOM     11 CL   UNL     1       2.527   8.469  17.784  0.00  0.00    +0.000 Cl
BRANCH   7  12
ATOM     12  C   UNL     1       2.002   3.374  20.990  0.00  0.00    +0.000 C 
ATOM     13  F   UNL     1       2.362   3.524  22.295  0.00  0.00    +0.000 F 
ATOM     14  F   UNL     1       0.733   2.883  21.008  0.00  0.00    +0.000 F 
ATOM     15  F   UNL     1       2.788   2.377  20.498  0.00  0.00    +0.000 F 
ENDBRANCH   7  12
ENDBRANCH   3   5
BRANCH   2  16
ATOM     16  C   UNL     1       0.299  10.113  21.763  0.00  0.00    +0.000 C 
ATOM     17  C   UNL     1      -0.560  10.063  23.036  0.00  0.00    +0.000 C 
ATOM     18  O   UNL     1      -0.948  11.376  23.423  0.00  0.00    +0.000 OA
ATOM     19  C   UNL     1      -1.793  11.938  22.430  0.00  0.00    +0.000 C 
ATOM     20  C   UNL     1      -1.319  11.840  20.969  0.00  0.00    +0.000 C 
ATOM     21  O   UNL     1      -1.900  12.450  20.071  0.00  0.00    +0.000 OA
ATOM     22  N   UNL     1      -0.242  11.003  20.717  0.00  0.00    +0.000 N 
BRANCH  22  23
ATOM     23  C   UNL     1       0.435  11.066  19.418  0.00  0.00    +0.000 C 
BRANCH  23  24
ATOM     24  C   UNL     1       1.365  12.235  19.291  0.00  0.00    +0.000 A 
ATOM     25  C   UNL     1       2.060  12.650  18.173  0.00  0.00    +0.000 A 
ATOM     26  C   UNL     1       3.029  13.653  18.470  0.00  0.00    +0.000 A 
ATOM     27  C   UNL     1       3.010  14.008  19.800  0.00  0.00    +0.000 A 
ATOM     28  S   UNL     1       1.816  13.148  20.674  0.00  0.00    +0.000 S 
ENDBRANCH  23  24
ENDBRANCH  22  23
ENDBRANCH   2  16
TORSDOF 5
ENDMDL
MODEL 4
REMARK VINA RESULT:      -8.0      5.354      7.816
REMARK  Name = 
REMARK  5 active torsions:
REMARK  status: ('A' for Active; 'I' for Inactive)
REMARK    1  A    between atoms: C_2  and  C_15
REMARK    2  A    between atoms: N_3  and  C_4
REMARK    3  A    between atoms: C_6  and  C_7
REMARK    4  A    between atoms: N_21  and  C_22
REMARK    5  A    between atoms: C_22  and  C_23
REMARK                            x       y       z     vdW  Elec       q    Type
REMARK                         _______ _______ _______ _____ _____    ______ ____
ROOT
ATOM      1  O   UNL     1       2.103   5.774  21.065  0.00  0.00    +0.000 OA
ATOM      2  C   UNL     1       2.068   5.911  19.843  0.00  0.00    +0.000 C 
ATOM      3  N   UNL     1       1.774   7.093  19.171  0.00  0.00    +0.000 N 
ATOM      4  H   UNL     1       1.653   7.037  18.162  0.00  0.00    +0.000 HD
ENDROOT
BRANCH   3   5
ATOM      5  C   UNL     1       1.408   8.326  19.769  0.00  0.00    +0.000 A 
ATOM      6  C   UNL     1       0.867   8.385  21.057  0.00  0.00    +0.000 A 
ATOM      7  C   UNL     1       0.481   9.601  21.640  0.00  0.00    +0.000 A 
ATOM      8  C   UNL     1       0.669  10.787  20.921  0.00  0.00    +0.000 A 
ATOM      9  C   UNL     1       1.224  10.758  19.642  0.00  0.00    +0.000 A 
ATOM     10  C   UNL     1       1.595   9.533  19.070  0.00  0.00    +0.000 A 
ATOM     11 CL   UNL     1       2.236   9.541  17.462  0.00  0.00    +0.000 Cl
BRANCH   7  12
ATOM     12  C   UNL     1      -0.130   9.614  23.022  0.00  0.00    +0.000 C 
ATOM     13  F   UNL     1      -0.716  10.800  23.350  0.00  0.00    +0.000 F 
ATOM     14  F   UNL     1      -1.097   8.668  23.168  0.00  0.00    +0.000 F 
ATOM     15  F   UNL     1       0.790   9.370  23.996  0.00  0.00    +0.000 F 
ENDBRANCH   7  12
ENDBRANCH   3   5
BRANCH   2  16
ATOM     16  C   UNL     1       2.530   4.755  18.941  0.00  0.00    +0.000 C 
ATOM     17  C   UNL     1       1.431   3.689  19.072  0.00  0.00    +0.000 C 
ATOM     18  O   UNL     1       1.863   2.461  18.496  0.00  0.00    +0.000 OA
ATOM     19  C   UNL     1       2.963   1.948  19.229  0.00  0.00    +0.000 C 
ATOM     20  C   UNL     1       4.114   2.922  19.539  0.00  0.00    +0.000 C 
ATOM     21  O   UNL     1       5.177   2.518  20.013  0.00  0.00    +0.000 OA
ATOM     22  N   UNL     1       3.877   4.267  19.298  0.00  0.00    +0.000 N 
BRANCH  22  23
ATOM     23  C   UNL     1       4.997   5.213  19.305  0.00  0.00    +0.000 C 
BRANCH  23  24
ATOM     24  C   UNL     1       5.554   5.480  17.940  0.00  0.00    +0.000 A 
ATOM     25  C   UNL     1       4.934   6.108  16.878  0.00  0.00    +0.000 A 
ATOM     26  C   UNL     1       5.667   5.982  15.661  0.00  0.00    +0.000 A 
ATOM     27  C   UNL     1       6.850   5.302  15.843  0.00  0.00    +0.000 A 
ATOM     28  S   UNL     1       7.078   4.840  17.475  0.00  0.00    +0.000 S 
ENDBRANCH  23  24
ENDBRANCH  22  23
ENDBRANCH   2  16
TORSDOF 5
ENDMDL
MODEL 5
REMARK VINA RESULT:      -7.9      5.116      7.477
REMARK  Name = 
REMARK  5 active torsions:
REMARK  status: ('A' for Active; 'I' for Inactive)
REMARK    1  A    between atoms: C_2  and  C_15
REMARK    2  A    between atoms: N_3  and  C_4
REMARK    3  A    between atoms: C_6  and  C_7
REMARK    4  A    between atoms: N_21  and  C_22
REMARK    5  A    between atoms: C_22  and  C_23
REMARK                            x       y       z     vdW  Elec       q    Type
REMARK                         _______ _______ _______ _____ _____    ______ ____
ROOT
ATOM      1  O   UNL     1      -0.580   7.799  20.954  0.00  0.00    +0.000 OA
ATOM      2  C   UNL     1       0.485   8.381  21.160  0.00  0.00    +0.000 C 
ATOM      3  N   UNL     1       1.736   7.947  20.735  0.00  0.00    +0.000 N 
ATOM      4  H   UNL     1       2.547   8.454  21.083  0.00  0.00    +0.000 HD
ENDROOT
BRANCH   3   5
ATOM      5  C   UNL     1       2.014   6.739  20.045  0.00  0.00    +0.000 A 
ATOM      6  C   UNL     1       1.853   5.492  20.657  0.00  0.00    +0.000 A 
ATOM      7  C   UNL     1       2.151   4.297  19.986  0.00  0.00    +0.000 A 
ATOM      8  C   UNL     1       2.595   4.358  18.660  0.00  0.00    +0.000 A 
ATOM      9  C   UNL     1       2.744   5.587  18.020  0.00  0.00    +0.000 A 
ATOM     10  C   UNL     1       2.452   6.773  18.709  0.00  0.00    +0.000 A 
ATOM     11 CL   UNL     1       2.698   8.278  17.891  0.00  0.00    +0.000 Cl
BRANCH   7  12
ATOM     12  C   UNL     1       1.994   2.973  20.697  0.00  0.00    +0.000 C 
ATOM     13  F   UNL     1       3.073   2.627  21.454  0.00  0.00    +0.000 F 
ATOM     14  F   UNL     1       0.928   2.964  21.542  0.00  0.00    +0.000 F 
ATOM     15  F   UNL     1       1.800   1.941  19.830  0.00  0.00    +0.000 F 
ENDBRANCH   7  12
ENDBRANCH   3   5
BRANCH   2  16
ATOM     16  C   UNL     1       0.469   9.779  21.797  0.00  0.00    +0.000 C 
ATOM     17  C   UNL     1      -0.190   9.580  23.171  0.00  0.00    +0.000 C 
ATOM     18  O   UNL     1      -0.505  10.838  23.756  0.00  0.00    +0.000 OA
ATOM     19  C   UNL     1      -1.483  11.501  22.970  0.00  0.00    +0.000 C 
ATOM     20  C   UNL     1      -1.234  11.571  21.452  0.00  0.00    +0.000 C 
ATOM     21  O   UNL     1      -1.937  12.273  20.726  0.00  0.00    +0.000 OA
ATOM     22  N   UNL     1      -0.214  10.776  20.950  0.00  0.00    +0.000 N 
BRANCH  22  23
ATOM     23  C   UNL     1       0.261  10.989  19.580  0.00  0.00    +0.000 C 
BRANCH  23  24
ATOM     24  C   UNL     1      -0.808  10.803  18.546  0.00  0.00    +0.000 A 
ATOM     25  C   UNL     1      -1.337   9.618  18.076  0.00  0.00    +0.000 A 
ATOM     26  C   UNL     1      -2.166   9.802  16.931  0.00  0.00    +0.000 A 
ATOM     27  C   UNL     1      -2.283  11.131  16.591  0.00  0.00    +0.000 A 
ATOM     28  S   UNL     1      -1.414  12.144  17.661  0.00  0.00    +0.000 S 
ENDBRANCH  23  24
ENDBRANCH  22  23
ENDBRANCH   2  16
TORSDOF 5
ENDMDL
MODEL 6
REMARK VINA RESULT:      -7.7      4.873      7.111
REMARK  Name = 
REMARK  5 active torsions:
REMARK  status: ('A' for Active; 'I' for Inactive)
REMARK    1  A    between atoms: C_2  and  C_15
REMARK    2  A    between atoms: N_3  and  C_4
REMARK    3  A    between atoms: C_6  and  C_7
REMARK    4  A    between atoms: N_21  and  C_22
REMARK    5  A    between atoms: C_22  and  C_23
REMARK                            x       y       z     vdW  Elec       q    Type
REMARK                         _______ _______ _______ _____ _____    ______ ____
ROOT
ATOM      1  O   UNL     1       1.609   8.511  19.890  0.00  0.00    +0.000 OA
ATOM      2  C   UNL     1       1.827   8.756  18.704  0.00  0.00    +0.000 C 
ATOM      3  N   UNL     1       2.318   7.851  17.770  0.00  0.00    +0.000 N 
ATOM      4  H   UNL     1       2.573   8.218  16.856  0.00  0.00    +0.000 HD
ENDROOT
BRANCH   3   5
ATOM      5  C   UNL     1       2.706   6.511  18.027  0.00  0.00    +0.000 A 
ATOM      6  C   UNL     1       1.835   5.598  18.631  0.00  0.00    +0.000 A 
ATOM      7  C   UNL     1       2.225   4.280  18.908  0.00  0.00    +0.000 A 
ATOM      8  C   UNL     1       3.511   3.864  18.546  0.00  0.00    +0.000 A 
ATOM      9  C   UNL     1       4.392   4.748  17.926  0.00  0.00    +0.000 A 
ATOM     10  C   UNL     1       3.991   6.065  17.664  0.00  0.00    +0.000 A 
ATOM     11 CL   UNL     1       5.133   7.141  16.936  0.00  0.00    +0.000 Cl
BRANCH   7  12
ATOM     12  C   UNL     1       1.262   3.337  19.592  0.00  0.00    +0.000 C 
ATOM     13  F   UNL     1       0.446   2.667  18.729  0.00  0.00    +0.000 F 
ATOM     14  F   UNL     1       1.903   2.380  20.316  0.00  0.00    +0.000 F 
ATOM     15  F   UNL     1       0.437   3.982  20.461  0.00  0.00    +0.000 F 
ENDBRANCH   7  12
ENDBRANCH   3   5
BRANCH   2  16
ATOM     16  C   UNL     1       1.393  10.111  18.123  0.00  0.00    +0.000 C 
ATOM     17  C   UNL     1       2.681  10.949  18.072  0.00  0.00    +0.000 C 
ATOM     18  O   UNL     1       2.373  12.312  17.800  0.00  0.00    +0.000 OA
ATOM     19  C   UNL     1       1.621  12.857  18.873  0.00  0.00    +0.000 C 
ATOM     20  C   UNL     1       0.415  12.040  19.370  0.00  0.00    +0.000 C 
ATOM     21  O   UNL     1      -0.388  12.518  20.171  0.00  0.00    +0.000 OA
ATOM     22  N   UNL     1       0.308  10.737  18.904  0.00  0.00    +0.000 N 
BRANCH  22  23
ATOM     23  C   UNL     1      -0.940   9.996  19.107  0.00  0.00    +0.000 C 
BRANCH  23  24
ATOM     24  C   UNL     1      -1.961  10.252  18.040  0.00  0.00    +0.000 A 
ATOM     25  C   UNL     1      -1.977   9.769  16.747  0.00  0.00    +0.000 A 
ATOM     26  C   UNL     1      -2.966  10.401  15.937  0.00  0.00    +0.000 A 
ATOM     27  C   UNL     1      -3.708  11.313  16.652  0.00  0.00    +0.000 A 
ATOM     28  S   UNL     1      -3.224  11.388  18.292  0.00  0.00    +0.000 S 
ENDBRANCH  23  24
ENDBRANCH  22  23
ENDBRANCH   2  16
TORSDOF 5
ENDMDL
MODEL 7
REMARK VINA RESULT:      -7.6      4.333      6.352
REMARK  Name = 
REMARK  5 active torsions:
REMARK  status: ('A' for Active; 'I' for Inactive)
REMARK    1  A    between atoms: C_2  and  C_15
REMARK    2  A    between atoms: N_3  and  C_4
REMARK    3  A    between atoms: C_6  and  C_7
REMARK    4  A    between atoms: N_21  and  C_22
REMARK    5  A    between atoms: C_22  and  C_23
REMARK                            x       y       z     vdW  Elec       q    Type
REMARK                         _______ _______ _______ _____ _____    ______ ____
ROOT
ATOM      1  O   UNL     1       1.143   9.038  18.746  0.00  0.00    +0.000 OA
ATOM      2  C   UNL     1       1.544   8.732  19.868  0.00  0.00    +0.000 C 
ATOM      3  N   UNL     1       2.297   7.604  20.176  0.00  0.00    +0.000 N 
ATOM      4  H   UNL     1       2.452   7.403  21.162  0.00  0.00    +0.000 HD
ENDROOT
BRANCH   3   5
ATOM      5  C   UNL     1       2.686   6.584  19.270  0.00  0.00    +0.000 A 
ATOM      6  C   UNL     1       3.633   6.816  18.267  0.00  0.00    +0.000 A 
ATOM      7  C   UNL     1       4.001   5.817  17.354  0.00  0.00    +0.000 A 
ATOM      8  C   UNL     1       3.422   4.548  17.470  0.00  0.00    +0.000 A 
ATOM      9  C   UNL     1       2.489   4.285  18.472  0.00  0.00    +0.000 A 
ATOM     10  C   UNL     1       2.125   5.298  19.370  0.00  0.00    +0.000 A 
ATOM     11 CL   UNL     1       0.929   4.939  20.568  0.00  0.00    +0.000 Cl
BRANCH   7  12
ATOM     12  C   UNL     1       5.004   6.122  16.267  0.00  0.00    +0.000 C 
ATOM     13  F   UNL     1       4.655   7.178  15.479  0.00  0.00    +0.000 F 
ATOM     14  F   UNL     1       6.233   6.422  16.767  0.00  0.00    +0.000 F 
ATOM     15  F   UNL     1       5.185   5.070  15.422  0.00  0.00    +0.000 F 
ENDBRANCH   7  12
ENDBRANCH   3   5
BRANCH   2  16
ATOM     16  C   UNL     1       1.357   9.719  21.031  0.00  0.00    +0.000 C 
ATOM     17  C   UNL     1       1.067   8.837  22.255  0.00  0.00    +0.000 C 
ATOM     18  O   UNL     1       0.614   9.635  23.343  0.00  0.00    +0.000 OA
ATOM     19  C   UNL     1      -0.631  10.232  23.015  0.00  0.00    +0.000 C 
ATOM     20  C   UNL     1      -0.733  10.935  21.650  0.00  0.00    +0.000 C 
ATOM     21  O   UNL     1      -1.713  11.624  21.364  0.00  0.00    +0.000 OA
ATOM     22  N   UNL     1       0.306  10.719  20.756  0.00  0.00    +0.000 N 
BRANCH  22  23
ATOM     23  C   UNL     1       0.419  11.559  19.561  0.00  0.00    +0.000 C 
BRANCH  23  24
ATOM     24  C   UNL     1       1.547  12.543  19.633  0.00  0.00    +0.000 A 
ATOM     25  C   UNL     1       1.866  13.394  20.672  0.00  0.00    +0.000 A 
ATOM     26  C   UNL     1       2.855  14.355  20.311  0.00  0.00    +0.000 A 
ATOM     27  C   UNL     1       3.296  14.177  19.019  0.00  0.00    +0.000 A 
ATOM     28  S   UNL     1       2.533  12.846  18.261  0.00  0.00    +0.000 S 
ENDBRANCH  23  24
ENDBRANCH  22  23
ENDBRANCH   2  16
TORSDOF 5
ENDMDL
MODEL 8
REMARK VINA RESULT:      -7.6      5.118      7.404
REMARK  Name = 
REMARK  5 active torsions:
REMARK  status: ('A' for Active; 'I' for Inactive)
REMARK    1  A    between atoms: C_2  and  C_15
REMARK    2  A    between atoms: N_3  and  C_4
REMARK    3  A    between atoms: C_6  and  C_7
REMARK    4  A    between atoms: N_21  and  C_22
REMARK    5  A    between atoms: C_22  and  C_23
REMARK                            x       y       z     vdW  Elec       q    Type
REMARK                         _______ _______ _______ _____ _____    ______ ____
ROOT
ATOM      1  O   UNL     1       1.406   8.697  19.957  0.00  0.00    +0.000 OA
ATOM      2  C   UNL     1       1.709   8.931  18.788  0.00  0.00    +0.000 C 
ATOM      3  N   UNL     1       2.322   8.035  17.919  0.00  0.00    +0.000 N 
ATOM      4  H   UNL     1       2.634   8.398  17.020  0.00  0.00    +0.000 HD
ENDROOT
BRANCH   3   5
ATOM      5  C   UNL     1       2.756   6.723  18.238  0.00  0.00    +0.000 A 
ATOM      6  C   UNL     1       2.101   5.948  19.200  0.00  0.00    +0.000 A 
ATOM      7  C   UNL     1       2.543   4.659  19.536  0.00  0.00    +0.000 A 
ATOM      8  C   UNL     1       3.653   4.129  18.868  0.00  0.00    +0.000 A 
ATOM      9  C   UNL     1       4.312   4.874  17.891  0.00  0.00    +0.000 A 
ATOM     10  C   UNL     1       3.864   6.164  17.574  0.00  0.00    +0.000 A 
ATOM     11 CL   UNL     1       4.742   7.068  16.389  0.00  0.00    +0.000 Cl
BRANCH   7  12
ATOM     12  C   UNL     1       1.824   3.870  20.605  0.00  0.00    +0.000 C 
ATOM     13  F   UNL     1       2.259   4.138  21.868  0.00  0.00    +0.000 F 
ATOM     14  F   UNL     1       0.486   4.112  20.614  0.00  0.00    +0.000 F 
ATOM     15  F   UNL     1       1.967   2.527  20.439  0.00  0.00    +0.000 F 
ENDBRANCH   7  12
ENDBRANCH   3   5
BRANCH   2  16
ATOM     16  C   UNL     1       1.257  10.250  18.141  0.00  0.00    +0.000 C 
ATOM     17  C   UNL     1       2.516  11.131  18.120  0.00  0.00    +0.000 C 
ATOM     18  O   UNL     1       2.174  12.472  17.788  0.00  0.00    +0.000 OA
ATOM     19  C   UNL     1       1.355  13.025  18.807  0.00  0.00    +0.000 C 
ATOM     20  C   UNL     1       0.156  12.181  19.276  0.00  0.00    +0.000 C 
ATOM     21  O   UNL     1      -0.700  12.656  20.024  0.00  0.00    +0.000 OA
ATOM     22  N   UNL     1       0.116  10.861  18.851  0.00  0.00    +0.000 N 
BRANCH  22  23
ATOM     23  C   UNL     1      -1.114  10.082  19.023  0.00  0.00    +0.000 C 
BRANCH  23  24
ATOM     24  C   UNL     1      -2.095  10.270  17.905  0.00  0.00    +0.000 A 
ATOM     25  C   UNL     1      -1.994   9.824  16.603  0.00  0.00    +0.000 A 
ATOM     26  C   UNL     1      -2.993  10.382  15.752  0.00  0.00    +0.000 A 
ATOM     27  C   UNL     1      -3.857  11.201  16.443  0.00  0.00    +0.000 A 
ATOM     28  S   UNL     1      -3.472  11.276  18.109  0.00  0.00    +0.000 S 
ENDBRANCH  23  24
ENDBRANCH  22  23
ENDBRANCH   2  16
TORSDOF 5
ENDMDL
MODEL 9
REMARK VINA RESULT:      -7.6      5.333      7.835
REMARK  Name = 
REMARK  5 active torsions:
REMARK  status: ('A' for Active; 'I' for Inactive)
REMARK    1  A    between atoms: C_2  and  C_15
REMARK    2  A    between atoms: N_3  and  C_4
REMARK    3  A    between atoms: C_6  and  C_7
REMARK    4  A    between atoms: N_21  and  C_22
REMARK    5  A    between atoms: C_22  and  C_23
REMARK                            x       y       z     vdW  Elec       q    Type
REMARK                         _______ _______ _______ _____ _____    ______ ____
ROOT
ATOM      1  O   UNL     1       1.778   5.699  21.011  0.00  0.00    +0.000 OA
ATOM      2  C   UNL     1       1.891   5.871  19.798  0.00  0.00    +0.000 C 
ATOM      3  N   UNL     1       1.753   7.087  19.138  0.00  0.00    +0.000 N 
ATOM      4  H   UNL     1       1.745   7.067  18.120  0.00  0.00    +0.000 HD
ENDROOT
BRANCH   3   5
ATOM      5  C   UNL     1       1.404   8.327  19.733  0.00  0.00    +0.000 A 
ATOM      6  C   UNL     1       0.879   8.397  21.028  0.00  0.00    +0.000 A 
ATOM      7  C   UNL     1       0.510   9.619  21.609  0.00  0.00    +0.000 A 
ATOM      8  C   UNL     1       0.697  10.799  20.879  0.00  0.00    +0.000 A 
ATOM      9  C   UNL     1       1.235  10.758  19.594  0.00  0.00    +0.000 A 
ATOM     10  C   UNL     1       1.590   9.528  19.024  0.00  0.00    +0.000 A 
ATOM     11 CL   UNL     1       2.210   9.522  17.409  0.00  0.00    +0.000 Cl
BRANCH   7  12
ATOM     12  C   UNL     1      -0.083   9.644  22.998  0.00  0.00    +0.000 C 
ATOM     13  F   UNL     1       0.806   9.321  23.979  0.00  0.00    +0.000 F 
ATOM     14  F   UNL     1      -0.571  10.871  23.329  0.00  0.00    +0.000 F 
ATOM     15  F   UNL     1      -1.121   8.774  23.133  0.00  0.00    +0.000 F 
ENDBRANCH   7  12
ENDBRANCH   3   5
BRANCH   2  16
ATOM     16  C   UNL     1       2.376   4.710  18.914  0.00  0.00    +0.000 C 
ATOM     17  C   UNL     1       1.263   3.654  19.005  0.00  0.00    +0.000 C 
ATOM     18  O   UNL     1       1.704   2.422  18.446  0.00  0.00    +0.000 OA
ATOM     19  C   UNL     1       2.772   1.899  19.220  0.00  0.00    +0.000 C 
ATOM     20  C   UNL     1       3.920   2.863  19.572  0.00  0.00    +0.000 C 
ATOM     21  O   UNL     1       4.960   2.449  20.086  0.00  0.00    +0.000 OA
ATOM     22  N   UNL     1       3.704   4.210  19.322  0.00  0.00    +0.000 N 
BRANCH  22  23
ATOM     23  C   UNL     1       4.831   5.145  19.370  0.00  0.00    +0.000 C 
BRANCH  23  24
ATOM     24  C   UNL     1       5.684   5.108  18.138  0.00  0.00    +0.000 A 
ATOM     25  C   UNL     1       6.954   4.585  18.000  0.00  0.00    +0.000 A 
ATOM     26  C   UNL     1       7.558   4.930  16.756  0.00  0.00    +0.000 A 
ATOM     27  C   UNL     1       6.710   5.667  15.960  0.00  0.00    +0.000 A 
ATOM     28  S   UNL     1       5.191   5.919  16.708  0.00  0.00    +0.000 S 
ENDBRANCH  23  24
ENDBRANCH  22  23
ENDBRANCH   2  16
TORSDOF 5
ENDMDL
