MODEL 1
REMARK VINA RESULT:      -5.6      0.000      0.000
REMARK  Name = 
REMARK  6 active torsions:
REMARK  status: ('A' for Active; 'I' for Inactive)
REMARK    1  A    between atoms: C_1  and  C_2
REMARK    2  A    between atoms: C_2  and  C_3
REMARK    3  A    between atoms: C_3  and  C_4
REMARK    4  A    between atoms: C_4  and  C_5
REMARK    5  A    between atoms: C_5  and  C_6
REMARK    6  A    between atoms: C_11  and  C_12
REMARK                            x       y       z     vdW  Elec       q    Type
REMARK                         _______ _______ _______ _____ _____    ______ ____
ROOT
ATOM      1  C   UNL     1       3.087   4.608  17.527  0.00  0.00    +0.000 C 
ATOM      2  N   UNL     1       3.870   3.385  17.801  0.00  0.00    +0.000 NA
ATOM      3  C   UNL     1       4.445   3.634  18.927  0.00  0.00    +0.000 C 
ATOM      4  N   UNL     1       5.218   2.795  19.638  0.00  0.00    +0.000 N 
ATOM      5  O   UNL     1       4.325   4.862  19.478  0.00  0.00    +0.000 OA
ATOM      6  C   UNL     1       3.735   5.647  18.444  0.00  0.00    +0.000 C 
ATOM      7  C   UNL     1       2.846   6.712  19.054  0.00  0.00    +0.000 C 
ATOM      8  H   UNL     1       5.578   2.022  19.093  0.00  0.00    +0.000 HD
ATOM      9  H   UNL     1       5.894   3.254  20.233  0.00  0.00    +0.000 HD
ENDROOT
BRANCH   1  10
ATOM     10  C   UNL     1       1.596   4.301  17.765  0.00  0.00    +0.000 C 
BRANCH  10  11
ATOM     11  C   UNL     1       1.400   2.862  18.266  0.00  0.00    +0.000 C 
BRANCH  11  12
ATOM     12  C   UNL     1       0.583   2.779  19.556  0.00  0.00    +0.000 C 
BRANCH  12  14
ATOM     13  C   UNL     1       1.987   3.076  21.647  0.00  0.00    +0.000 C 
ATOM     14  C   UNL     1       1.135   3.763  20.594  0.00  0.00    +0.000 C 
ENDBRANCH  12  14
ENDBRANCH  11  12
ENDBRANCH  10  11
ENDBRANCH   1  10
TORSDOF 4
ENDMDL
MODEL 2
REMARK VINA RESULT:      -5.3      1.392      1.772
REMARK  Name = 
REMARK  6 active torsions:
REMARK  status: ('A' for Active; 'I' for Inactive)
REMARK    1  A    between atoms: C_1  and  C_2
REMARK    2  A    between atoms: C_2  and  C_3
REMARK    3  A    between atoms: C_3  and  C_4
REMARK    4  A    between atoms: C_4  and  C_5
REMARK    5  A    between atoms: C_5  and  C_6
REMARK    6  A    between atoms: C_11  and  C_12
REMARK                            x       y       z     vdW  Elec       q    Type
REMARK                         _______ _______ _______ _____ _____    ______ ____
ROOT
ATOM      1  C   UNL     1       2.922   2.475  17.709  0.00  0.00    +0.000 C 
ATOM      2  N   UNL     1       3.462   1.504  18.685  0.00  0.00    +0.000 NA
ATOM      3  C   UNL     1       4.356   2.178  19.324  0.00  0.00    +0.000 C 
ATOM      4  N   UNL     1       5.087   1.753  20.369  0.00  0.00    +0.000 N 
ATOM      5  O   UNL     1       4.659   3.432  18.921  0.00  0.00    +0.000 OA
ATOM      6  C   UNL     1       4.002   3.557  17.662  0.00  0.00    +0.000 C 
ATOM      7  C   UNL     1       3.562   4.992  17.454  0.00  0.00    +0.000 C 
ATOM      8  H   UNL     1       5.111   0.746  20.459  0.00  0.00    +0.000 HD
ATOM      9  H   UNL     1       5.980   2.216  20.467  0.00  0.00    +0.000 HD
ENDROOT
BRANCH   1  10
ATOM     10  C   UNL     1       1.518   2.909  18.173  0.00  0.00    +0.000 C 
BRANCH  10  11
ATOM     11  C   UNL     1       1.065   2.099  19.397  0.00  0.00    +0.000 C 
BRANCH  11  12
ATOM     12  C   UNL     1       1.107   2.900  20.699  0.00  0.00    +0.000 C 
BRANCH  12  14
ATOM     13  C   UNL     1       2.254   5.155  20.882  0.00  0.00    +0.000 C 
ATOM     14  C   UNL     1       1.027   4.401  20.397  0.00  0.00    +0.000 C 
ENDBRANCH  12  14
ENDBRANCH  11  12
ENDBRANCH  10  11
ENDBRANCH   1  10
TORSDOF 4
ENDMDL
MODEL 3
REMARK VINA RESULT:      -5.3      3.278      4.148
REMARK  Name = 
REMARK  6 active torsions:
REMARK  status: ('A' for Active; 'I' for Inactive)
REMARK    1  A    between atoms: C_1  and  C_2
REMARK    2  A    between atoms: C_2  and  C_3
REMARK    3  A    between atoms: C_3  and  C_4
REMARK    4  A    between atoms: C_4  and  C_5
REMARK    5  A    between atoms: C_5  and  C_6
REMARK    6  A    between atoms: C_11  and  C_12
REMARK                            x       y       z     vdW  Elec       q    Type
REMARK                         _______ _______ _______ _____ _____    ______ ____
ROOT
ATOM      1  C   UNL     1       6.017   4.513  17.125  0.00  0.00    +0.000 C 
ATOM      2  N   UNL     1       6.489   5.683  17.897  0.00  0.00    +0.000 NA
ATOM      3  C   UNL     1       7.115   6.394  17.024  0.00  0.00    +0.000 C 
ATOM      4  N   UNL     1       7.672   7.601  17.221  0.00  0.00    +0.000 N 
ATOM      5  O   UNL     1       7.295   5.910  15.776  0.00  0.00    +0.000 OA
ATOM      6  C   UNL     1       6.901   4.543  15.877  0.00  0.00    +0.000 C 
ATOM      7  C   UNL     1       6.296   4.086  14.566  0.00  0.00    +0.000 C 
ATOM      8  H   UNL     1       7.833   7.815  18.197  0.00  0.00    +0.000 HD
ATOM      9  H   UNL     1       8.441   7.811  16.601  0.00  0.00    +0.000 HD
ENDROOT
BRANCH   1  10
ATOM     10  C   UNL     1       4.498   4.648  16.908  0.00  0.00    +0.000 C 
BRANCH  10  11
ATOM     11  C   UNL     1       3.840   5.415  18.065  0.00  0.00    +0.000 C 
BRANCH  11  12
ATOM     12  C   UNL     1       2.312   5.351  18.037  0.00  0.00    +0.000 C 
BRANCH  12  14
ATOM     13  C   UNL     1       1.240   3.179  18.786  0.00  0.00    +0.000 C 
ATOM     14  C   UNL     1       1.849   3.948  17.627  0.00  0.00    +0.000 C 
ENDBRANCH  12  14
ENDBRANCH  11  12
ENDBRANCH  10  11
ENDBRANCH   1  10
TORSDOF 4
ENDMDL
MODEL 4
REMARK VINA RESULT:      -5.2      1.213      1.642
REMARK  Name = 
REMARK  6 active torsions:
REMARK  status: ('A' for Active; 'I' for Inactive)
REMARK    1  A    between atoms: C_1  and  C_2
REMARK    2  A    between atoms: C_2  and  C_3
REMARK    3  A    between atoms: C_3  and  C_4
REMARK    4  A    between atoms: C_4  and  C_5
REMARK    5  A    between atoms: C_5  and  C_6
REMARK    6  A    between atoms: C_11  and  C_12
REMARK                            x       y       z     vdW  Elec       q    Type
REMARK                         _______ _______ _______ _____ _____    ______ ____
ROOT
ATOM      1  C   UNL     1       3.046   3.481  17.360  0.00  0.00    +0.000 C 
ATOM      2  N   UNL     1       3.367   2.349  18.255  0.00  0.00    +0.000 NA
ATOM      3  C   UNL     1       4.371   2.776  18.941  0.00  0.00    +0.000 C 
ATOM      4  N   UNL     1       4.989   2.132  19.946  0.00  0.00    +0.000 N 
ATOM      5  O   UNL     1       4.927   3.969  18.636  0.00  0.00    +0.000 OA
ATOM      6  C   UNL     1       4.323   4.322  17.393  0.00  0.00    +0.000 C 
ATOM      7  C   UNL     1       4.187   5.828  17.299  0.00  0.00    +0.000 C 
ATOM      8  H   UNL     1       4.807   1.137  19.958  0.00  0.00    +0.000 HD
ATOM      9  H   UNL     1       5.956   2.395  20.076  0.00  0.00    +0.000 HD
ENDROOT
BRANCH   1  10
ATOM     10  C   UNL     1       1.754   4.155  17.862  0.00  0.00    +0.000 C 
BRANCH  10  11
ATOM     11  C   UNL     1       1.054   3.289  18.921  0.00  0.00    +0.000 C 
BRANCH  11  12
ATOM     12  C   UNL     1       0.887   4.000  20.265  0.00  0.00    +0.000 C 
BRANCH  12  14
ATOM     13  C   UNL     1       1.580   6.410  20.639  0.00  0.00    +0.000 C 
ATOM     14  C   UNL     1       2.049   4.972  20.496  0.00  0.00    +0.000 C 
ENDBRANCH  12  14
ENDBRANCH  11  12
ENDBRANCH  10  11
ENDBRANCH   1  10
TORSDOF 4
ENDMDL
MODEL 5
REMARK VINA RESULT:      -5.2      1.440      1.607
REMARK  Name = 
REMARK  6 active torsions:
REMARK  status: ('A' for Active; 'I' for Inactive)
REMARK    1  A    between atoms: C_1  and  C_2
REMARK    2  A    between atoms: C_2  and  C_3
REMARK    3  A    between atoms: C_3  and  C_4
REMARK    4  A    between atoms: C_4  and  C_5
REMARK    5  A    between atoms: C_5  and  C_6
REMARK    6  A    between atoms: C_11  and  C_12
REMARK                            x       y       z     vdW  Elec       q    Type
REMARK                         _______ _______ _______ _____ _____    ______ ____
ROOT
ATOM      1  C   UNL     1       3.309   4.224  17.496  0.00  0.00    +0.000 C 
ATOM      2  N   UNL     1       3.023   2.784  17.319  0.00  0.00    +0.000 NA
ATOM      3  C   UNL     1       3.796   2.210  18.175  0.00  0.00    +0.000 C 
ATOM      4  N   UNL     1       3.856   0.896  18.448  0.00  0.00    +0.000 N 
ATOM      5  O   UNL     1       4.688   2.951  18.869  0.00  0.00    +0.000 OA
ATOM      6  C   UNL     1       4.655   4.222  18.224  0.00  0.00    +0.000 C 
ATOM      7  C   UNL     1       4.918   5.318  19.236  0.00  0.00    +0.000 C 
ATOM      8  H   UNL     1       3.453   0.316  17.724  0.00  0.00    +0.000 HD
ATOM      9  H   UNL     1       4.751   0.584  18.802  0.00  0.00    +0.000 HD
ENDROOT
BRANCH   1  10
ATOM     10  C   UNL     1       2.120   4.875  18.229  0.00  0.00    +0.000 C 
BRANCH  10  11
ATOM     11  C   UNL     1       1.205   3.811  18.853  0.00  0.00    +0.000 C 
BRANCH  11  12
ATOM     12  C   UNL     1       0.844   4.105  20.309  0.00  0.00    +0.000 C 
BRANCH  12  14
ATOM     13  C   UNL     1       2.451   2.646  21.621  0.00  0.00    +0.000 C 
ATOM     14  C   UNL     1       2.101   4.059  21.184  0.00  0.00    +0.000 C 
ENDBRANCH  12  14
ENDBRANCH  11  12
ENDBRANCH  10  11
ENDBRANCH   1  10
TORSDOF 4
ENDMDL
MODEL 6
REMARK VINA RESULT:      -5.2      2.446      4.464
REMARK  Name = 
REMARK  6 active torsions:
REMARK  status: ('A' for Active; 'I' for Inactive)
REMARK    1  A    between atoms: C_1  and  C_2
REMARK    2  A    between atoms: C_2  and  C_3
REMARK    3  A    between atoms: C_3  and  C_4
REMARK    4  A    between atoms: C_4  and  C_5
REMARK    5  A    between atoms: C_5  and  C_6
REMARK    6  A    between atoms: C_11  and  C_12
REMARK                            x       y       z     vdW  Elec       q    Type
REMARK                         _______ _______ _______ _____ _____    ______ ____
ROOT
ATOM      1  C   UNL     1       4.282   4.722  18.566  0.00  0.00    +0.000 C 
ATOM      2  N   UNL     1       5.203   3.884  19.363  0.00  0.00    +0.000 NA
ATOM      3  C   UNL     1       4.538   2.798  19.559  0.00  0.00    +0.000 C 
ATOM      4  N   UNL     1       4.975   1.689  20.179  0.00  0.00    +0.000 N 
ATOM      5  O   UNL     1       3.250   2.725  19.156  0.00  0.00    +0.000 OA
ATOM      6  C   UNL     1       2.921   4.068  18.809  0.00  0.00    +0.000 C 
ATOM      7  C   UNL     1       1.917   4.073  17.675  0.00  0.00    +0.000 C 
ATOM      8  H   UNL     1       5.787   1.847  20.761  0.00  0.00    +0.000 HD
ATOM      9  H   UNL     1       4.244   1.133  20.602  0.00  0.00    +0.000 HD
ENDROOT
BRANCH   1  10
ATOM     10  C   UNL     1       4.788   4.763  17.112  0.00  0.00    +0.000 C 
BRANCH  10  11
ATOM     11  C   UNL     1       6.323   4.733  17.058  0.00  0.00    +0.000 C 
BRANCH  11  12
ATOM     12  C   UNL     1       6.930   6.005  16.464  0.00  0.00    +0.000 C 
BRANCH  12  14
ATOM     13  C   UNL     1       7.853   6.187  18.819  0.00  0.00    +0.000 C 
ATOM     14  C   UNL     1       7.390   6.943  17.585  0.00  0.00    +0.000 C 
ENDBRANCH  12  14
ENDBRANCH  11  12
ENDBRANCH  10  11
ENDBRANCH   1  10
TORSDOF 4
ENDMDL
MODEL 7
REMARK VINA RESULT:      -5.2      1.205      1.205
REMARK  Name = 
REMARK  6 active torsions:
REMARK  status: ('A' for Active; 'I' for Inactive)
REMARK    1  A    between atoms: C_1  and  C_2
REMARK    2  A    between atoms: C_2  and  C_3
REMARK    3  A    between atoms: C_3  and  C_4
REMARK    4  A    between atoms: C_4  and  C_5
REMARK    5  A    between atoms: C_5  and  C_6
REMARK    6  A    between atoms: C_11  and  C_12
REMARK                            x       y       z     vdW  Elec       q    Type
REMARK                         _______ _______ _______ _____ _____    ______ ____
ROOT
ATOM      1  C   UNL     1       3.457   4.758  17.322  0.00  0.00    +0.000 C 
ATOM      2  N   UNL     1       4.583   3.846  17.615  0.00  0.00    +0.000 NA
ATOM      3  C   UNL     1       5.467   4.613  18.154  0.00  0.00    +0.000 C 
ATOM      4  N   UNL     1       6.654   4.238  18.661  0.00  0.00    +0.000 N 
ATOM      5  O   UNL     1       5.250   5.945  18.206  0.00  0.00    +0.000 OA
ATOM      6  C   UNL     1       4.110   6.140  17.372  0.00  0.00    +0.000 C 
ATOM      7  C   UNL     1       3.284   7.298  17.895  0.00  0.00    +0.000 C 
ATOM      8  H   UNL     1       6.962   3.332  18.335  0.00  0.00    +0.000 HD
ATOM      9  H   UNL     1       7.359   4.963  18.651  0.00  0.00    +0.000 HD
ENDROOT
BRANCH   1  10
ATOM     10  C   UNL     1       2.327   4.483  18.332  0.00  0.00    +0.000 C 
BRANCH  10  11
ATOM     11  C   UNL     1       1.683   3.110  18.082  0.00  0.00    +0.000 C 
BRANCH  11  12
ATOM     12  C   UNL     1       0.844   2.615  19.261  0.00  0.00    +0.000 C 
BRANCH  12  14
ATOM     13  C   UNL     1       1.555   2.648  21.695  0.00  0.00    +0.000 C 
ATOM     14  C   UNL     1       1.115   3.476  20.500  0.00  0.00    +0.000 C 
ENDBRANCH  12  14
ENDBRANCH  11  12
ENDBRANCH  10  11
ENDBRANCH   1  10
TORSDOF 4
ENDMDL
MODEL 8
REMARK VINA RESULT:      -5.2      4.227      6.064
REMARK  Name = 
REMARK  6 active torsions:
REMARK  status: ('A' for Active; 'I' for Inactive)
REMARK    1  A    between atoms: C_1  and  C_2
REMARK    2  A    between atoms: C_2  and  C_3
REMARK    3  A    between atoms: C_3  and  C_4
REMARK    4  A    between atoms: C_4  and  C_5
REMARK    5  A    between atoms: C_5  and  C_6
REMARK    6  A    between atoms: C_11  and  C_12
REMARK                            x       y       z     vdW  Elec       q    Type
REMARK                         _______ _______ _______ _____ _____    ______ ____
ROOT
ATOM      1  C   UNL     1       6.574   5.596  16.969  0.00  0.00    +0.000 C 
ATOM      2  N   UNL     1       7.690   6.039  17.832  0.00  0.00    +0.000 NA
ATOM      3  C   UNL     1       7.458   5.453  18.957  0.00  0.00    +0.000 C 
ATOM      4  N   UNL     1       8.234   5.485  20.054  0.00  0.00    +0.000 N 
ATOM      5  O   UNL     1       6.313   4.754  19.120  0.00  0.00    +0.000 OA
ATOM      6  C   UNL     1       5.536   5.095  17.974  0.00  0.00    +0.000 C 
ATOM      7  C   UNL     1       4.669   3.918  17.574  0.00  0.00    +0.000 C 
ATOM      8  H   UNL     1       8.896   6.250  20.056  0.00  0.00    +0.000 HD
ATOM      9  H   UNL     1       7.734   5.345  20.921  0.00  0.00    +0.000 HD
ENDROOT
BRANCH   1  10
ATOM     10  C   UNL     1       7.115   4.570  15.954  0.00  0.00    +0.000 C 
BRANCH  10  11
ATOM     11  C   UNL     1       6.623   4.885  14.533  0.00  0.00    +0.000 C 
BRANCH  11  12
ATOM     12  C   UNL     1       5.841   3.734  13.898  0.00  0.00    +0.000 C 
BRANCH  12  14
ATOM     13  C   UNL     1       7.334   4.547  12.016  0.00  0.00    +0.000 C 
ATOM     14  C   UNL     1       6.278   3.541  12.441  0.00  0.00    +0.000 C 
ENDBRANCH  12  14
ENDBRANCH  11  12
ENDBRANCH  10  11
ENDBRANCH   1  10
TORSDOF 4
ENDMDL
MODEL 9
REMARK VINA RESULT:      -5.2      4.025      6.191
REMARK  Name = 
REMARK  6 active torsions:
REMARK  status: ('A' for Active; 'I' for Inactive)
REMARK    1  A    between atoms: C_1  and  C_2
REMARK    2  A    between atoms: C_2  and  C_3
REMARK    3  A    between atoms: C_3  and  C_4
REMARK    4  A    between atoms: C_4  and  C_5
REMARK    5  A    between atoms: C_5  and  C_6
REMARK    6  A    between atoms: C_11  and  C_12
REMARK                            x       y       z     vdW  Elec       q    Type
REMARK                         _______ _______ _______ _____ _____    ______ ____
ROOT
ATOM      1  C   UNL     1       5.774   6.061  18.022  0.00  0.00    +0.000 C 
ATOM      2  N   UNL     1       5.625   5.233  19.237  0.00  0.00    +0.000 NA
ATOM      3  C   UNL     1       5.240   4.090  18.784  0.00  0.00    +0.000 C 
ATOM      4  N   UNL     1       5.034   2.970  19.498  0.00  0.00    +0.000 N 
ATOM      5  O   UNL     1       4.963   3.954  17.468  0.00  0.00    +0.000 OA
ATOM      6  C   UNL     1       4.962   5.293  16.977  0.00  0.00    +0.000 C 
ATOM      7  C   UNL     1       5.448   5.313  15.543  0.00  0.00    +0.000 C 
ATOM      8  H   UNL     1       4.915   3.142  20.488  0.00  0.00    +0.000 HD
ATOM      9  H   UNL     1       4.367   2.332  19.088  0.00  0.00    +0.000 HD
ENDROOT
BRANCH   1  10
ATOM     10  C   UNL     1       7.276   6.252  17.737  0.00  0.00    +0.000 C 
BRANCH  10  11
ATOM     11  C   UNL     1       7.602   7.724  17.448  0.00  0.00    +0.000 C 
BRANCH  11  12
ATOM     12  C   UNL     1       8.480   8.369  18.522  0.00  0.00    +0.000 C 
BRANCH  12  14
ATOM     13  C   UNL     1       9.529  10.555  19.263  0.00  0.00    +0.000 C 
ATOM     14  C   UNL     1       8.615   9.873  18.260  0.00  0.00    +0.000 C 
ENDBRANCH  12  14
ENDBRANCH  11  12
ENDBRANCH  10  11
ENDBRANCH   1  10
TORSDOF 4
ENDMDL
