MODEL 1
REMARK VINA RESULT:      -7.9      0.000      0.000
REMARK  Name = 
REMARK  4 active torsions:
REMARK  status: ('A' for Active; 'I' for Inactive)
REMARK    1  A    between atoms: C_1  and  C_2
REMARK    2  A    between atoms: C_5  and  S_6
REMARK    3  A    between atoms: S_6  and  N_9
REMARK    4  A    between atoms: C_17  and  C_18
REMARK                            x       y       z     vdW  Elec       q    Type
REMARK                         _______ _______ _______ _____ _____    ______ ____
ROOT
ATOM      1  N   UNL     1       0.457  10.518  20.532  0.00  0.00    +0.000 N 
ATOM      2  N   UNL     1       1.433  11.418  19.713  0.00  0.00    +0.000 NA
ATOM      3  C   UNL     1       0.824  12.571  19.844  0.00  0.00    +0.000 C 
ATOM      4  C   UNL     1       0.464  13.602  18.770  0.00  0.00    +0.000 C 
ATOM      5  C   UNL     1      -0.607  14.592  19.300  0.00  0.00    +0.000 C 
ATOM      6  C   UNL     1      -0.180  15.129  20.644  0.00  0.00    +0.000 C 
ATOM      7  C   UNL     1      -0.158  13.988  21.653  0.00  0.00    +0.000 C 
ATOM      8  C   UNL     1       0.023  12.580  21.098  0.00  0.00    +0.000 C 
ATOM      9  C   UNL     1      -0.818  11.307  20.679  0.00  0.00    +0.000 C 
ENDROOT
BRANCH   9  10
ATOM     10  C   UNL     1      -1.536  11.095  19.285  0.00  0.00    +0.000 A 
ATOM     11  C   UNL     1      -1.042  10.119  18.357  0.00  0.00    +0.000 A 
ATOM     12  C   UNL     1      -1.565   9.886  17.087  0.00  0.00    +0.000 A 
ATOM     13  C   UNL     1      -2.645  10.611  16.681  0.00  0.00    +0.000 A 
ATOM     14 CL   UNL     1      -3.253  10.387  15.089  0.00  0.00    +0.000 Cl
ATOM     15  C   UNL     1      -3.219  11.530  17.566  0.00  0.00    +0.000 A 
ATOM     16  C   UNL     1      -2.679  11.772  18.859  0.00  0.00    +0.000 A 
ENDBRANCH   9  10
BRANCH   1  17
ATOM     17  S   UNL     1       0.742   9.076  21.366  0.00  0.00    +0.000 S 
ATOM     18  O   UNL     1      -0.545   8.460  21.616  0.00  0.00    +0.000 OA
ATOM     19  O   UNL     1       1.665   9.309  22.434  0.00  0.00    +0.000 OA
BRANCH  17  24
ATOM     20  C   UNL     1       3.878   5.572  17.482  0.00  0.00    +0.000 C 
ATOM     21  C   UNL     1       2.990   6.402  18.367  0.00  0.00    +0.000 A 
ATOM     22  C   UNL     1       2.590   5.912  19.616  0.00  0.00    +0.000 A 
ATOM     23  C   UNL     1       1.873   6.721  20.499  0.00  0.00    +0.000 A 
ATOM     24  C   UNL     1       1.595   8.050  20.161  0.00  0.00    +0.000 A 
ATOM     25  C   UNL     1       1.929   8.532  18.893  0.00  0.00    +0.000 A 
ATOM     26  C   UNL     1       2.624   7.704  17.999  0.00  0.00    +0.000 A 
ENDBRANCH  17  24
ENDBRANCH   1  17
TORSDOF 3
ENDMDL
MODEL 2
REMARK VINA RESULT:      -7.6      5.803      8.542
REMARK  Name = 
REMARK  4 active torsions:
REMARK  status: ('A' for Active; 'I' for Inactive)
REMARK    1  A    between atoms: C_1  and  C_2
REMARK    2  A    between atoms: C_5  and  S_6
REMARK    3  A    between atoms: S_6  and  N_9
REMARK    4  A    between atoms: C_17  and  C_18
REMARK                            x       y       z     vdW  Elec       q    Type
REMARK                         _______ _______ _______ _____ _____    ______ ____
ROOT
ATOM      1  N   UNL     1       5.633   4.711  17.860  0.00  0.00    +0.000 N 
ATOM      2  N   UNL     1       5.453   4.409  19.379  0.00  0.00    +0.000 NA
ATOM      3  C   UNL     1       4.351   3.702  19.330  0.00  0.00    +0.000 C 
ATOM      4  C   UNL     1       3.074   3.841  20.164  0.00  0.00    +0.000 C 
ATOM      5  C   UNL     1       1.895   3.091  19.487  0.00  0.00    +0.000 C 
ATOM      6  C   UNL     1       2.325   1.690  19.128  0.00  0.00    +0.000 C 
ATOM      7  C   UNL     1       3.415   1.759  18.066  0.00  0.00    +0.000 C 
ATOM      8  C   UNL     1       4.232   3.045  18.000  0.00  0.00    +0.000 C 
ATOM      9  C   UNL     1       4.306   4.416  17.213  0.00  0.00    +0.000 C 
ENDROOT
BRANCH   9  10
ATOM     10  C   UNL     1       3.452   5.708  17.533  0.00  0.00    +0.000 A 
ATOM     11  C   UNL     1       4.050   7.009  17.453  0.00  0.00    +0.000 A 
ATOM     12  C   UNL     1       3.407   8.206  17.761  0.00  0.00    +0.000 A 
ATOM     13  C   UNL     1       2.101   8.167  18.147  0.00  0.00    +0.000 A 
ATOM     14 CL   UNL     1       1.318   9.627  18.602  0.00  0.00    +0.000 Cl
ATOM     15  C   UNL     1       1.438   6.935  18.178  0.00  0.00    +0.000 A 
ATOM     16  C   UNL     1       2.098   5.714  17.870  0.00  0.00    +0.000 A 
ENDBRANCH   9  10
BRANCH   1  17
ATOM     17  S   UNL     1       7.033   5.035  16.970  0.00  0.00    +0.000 S 
ATOM     18  O   UNL     1       6.627   5.285  15.602  0.00  0.00    +0.000 OA
ATOM     19  O   UNL     1       8.035   4.060  17.272  0.00  0.00    +0.000 OA
BRANCH  17  24
ATOM     20  C   UNL     1       9.190  10.365  19.004  0.00  0.00    +0.000 C 
ATOM     21  C   UNL     1       8.549   9.069  18.589  0.00  0.00    +0.000 A 
ATOM     22  C   UNL     1       7.840   8.993  17.385  0.00  0.00    +0.000 A 
ATOM     23  C   UNL     1       7.349   7.769  16.927  0.00  0.00    +0.000 A 
ATOM     24  C   UNL     1       7.613   6.597  17.644  0.00  0.00    +0.000 A 
ATOM     25  C   UNL     1       8.261   6.667  18.880  0.00  0.00    +0.000 A 
ATOM     26  C   UNL     1       8.726   7.905  19.349  0.00  0.00    +0.000 A 
ENDBRANCH  17  24
ENDBRANCH   1  17
TORSDOF 3
ENDMDL
MODEL 3
REMARK VINA RESULT:      -7.4      3.941      7.966
REMARK  Name = 
REMARK  4 active torsions:
REMARK  status: ('A' for Active; 'I' for Inactive)
REMARK    1  A    between atoms: C_1  and  C_2
REMARK    2  A    between atoms: C_5  and  S_6
REMARK    3  A    between atoms: S_6  and  N_9
REMARK    4  A    between atoms: C_17  and  C_18
REMARK                            x       y       z     vdW  Elec       q    Type
REMARK                         _______ _______ _______ _____ _____    ______ ____
ROOT
ATOM      1  N   UNL     1       2.326   6.984  18.280  0.00  0.00    +0.000 N 
ATOM      2  N   UNL     1       1.507   5.743  17.807  0.00  0.00    +0.000 NA
ATOM      3  C   UNL     1       1.941   4.857  18.670  0.00  0.00    +0.000 C 
ATOM      4  C   UNL     1       2.458   3.438  18.421  0.00  0.00    +0.000 C 
ATOM      5  C   UNL     1       3.250   2.921  19.653  0.00  0.00    +0.000 C 
ATOM      6  C   UNL     1       2.438   3.141  20.906  0.00  0.00    +0.000 C 
ATOM      7  C   UNL     1       2.273   4.638  21.137  0.00  0.00    +0.000 C 
ATOM      8  C   UNL     1       2.386   5.541  19.914  0.00  0.00    +0.000 C 
ATOM      9  C   UNL     1       3.432   6.450  19.150  0.00  0.00    +0.000 C 
ENDROOT
BRANCH   9  10
ATOM     10  C   UNL     1       4.503   5.941  18.103  0.00  0.00    +0.000 A 
ATOM     11  C   UNL     1       4.466   6.405  16.746  0.00  0.00    +0.000 A 
ATOM     12  C   UNL     1       5.325   5.985  15.733  0.00  0.00    +0.000 A 
ATOM     13  C   UNL     1       6.302   5.084  16.035  0.00  0.00    +0.000 A 
ATOM     14 CL   UNL     1       7.321   4.501  14.780  0.00  0.00    +0.000 Cl
ATOM     15  C   UNL     1       6.438   4.645  17.357  0.00  0.00    +0.000 A 
ATOM     16  C   UNL     1       5.554   5.069  18.388  0.00  0.00    +0.000 A 
ENDBRANCH   9  10
BRANCH   1  17
ATOM     17  S   UNL     1       1.984   8.633  18.142  0.00  0.00    +0.000 S 
ATOM     18  O   UNL     1       1.027   8.788  17.066  0.00  0.00    +0.000 OA
ATOM     19  O   UNL     1       3.203   9.382  18.153  0.00  0.00    +0.000 OA
BRANCH  17  24
ATOM     20  C   UNL     1      -0.827  10.244  23.309  0.00  0.00    +0.000 C 
ATOM     21  C   UNL     1      -0.218   9.735  22.031  0.00  0.00    +0.000 A 
ATOM     22  C   UNL     1      -0.590  10.297  20.805  0.00  0.00    +0.000 A 
ATOM     23  C   UNL     1       0.059   9.922  19.627  0.00  0.00    +0.000 A 
ATOM     24  C   UNL     1       1.127   9.019  19.674  0.00  0.00    +0.000 A 
ATOM     25  C   UNL     1       1.465   8.401  20.880  0.00  0.00    +0.000 A 
ATOM     26  C   UNL     1       0.789   8.760  22.055  0.00  0.00    +0.000 A 
ENDBRANCH  17  24
ENDBRANCH   1  17
TORSDOF 3
ENDMDL
MODEL 4
REMARK VINA RESULT:      -7.3      4.855      7.874
REMARK  Name = 
REMARK  4 active torsions:
REMARK  status: ('A' for Active; 'I' for Inactive)
REMARK    1  A    between atoms: C_1  and  C_2
REMARK    2  A    between atoms: C_5  and  S_6
REMARK    3  A    between atoms: S_6  and  N_9
REMARK    4  A    between atoms: C_17  and  C_18
REMARK                            x       y       z     vdW  Elec       q    Type
REMARK                         _______ _______ _______ _____ _____    ______ ____
ROOT
ATOM      1  N   UNL     1       4.801   5.182  18.745  0.00  0.00    +0.000 N 
ATOM      2  N   UNL     1       4.408   4.487  20.086  0.00  0.00    +0.000 NA
ATOM      3  C   UNL     1       3.257   3.971  19.733  0.00  0.00    +0.000 C 
ATOM      4  C   UNL     1       1.908   4.031  20.455  0.00  0.00    +0.000 C 
ATOM      5  C   UNL     1       0.753   3.662  19.486  0.00  0.00    +0.000 C 
ATOM      6  C   UNL     1       1.084   2.377  18.768  0.00  0.00    +0.000 C 
ATOM      7  C   UNL     1       2.297   2.604  17.874  0.00  0.00    +0.000 C 
ATOM      8  C   UNL     1       3.238   3.739  18.263  0.00  0.00    +0.000 C 
ATOM      9  C   UNL     1       3.540   5.255  17.926  0.00  0.00    +0.000 C 
ENDROOT
BRANCH   9  10
ATOM     10  C   UNL     1       2.783   6.503  18.537  0.00  0.00    +0.000 A 
ATOM     11  C   UNL     1       2.333   7.565  17.685  0.00  0.00    +0.000 A 
ATOM     12  C   UNL     1       1.704   8.729  18.122  0.00  0.00    +0.000 A 
ATOM     13  C   UNL     1       1.464   8.883  19.454  0.00  0.00    +0.000 A 
ATOM     14 CL   UNL     1       0.758  10.346  20.014  0.00  0.00    +0.000 Cl
ATOM     15  C   UNL     1       1.815   7.852  20.332  0.00  0.00    +0.000 A 
ATOM     16  C   UNL     1       2.464   6.668  19.885  0.00  0.00    +0.000 A 
ENDBRANCH   9  10
BRANCH   1  17
ATOM     17  S   UNL     1       6.323   5.562  18.118  0.00  0.00    +0.000 S 
ATOM     18  O   UNL     1       7.303   4.812  18.877  0.00  0.00    +0.000 OA
ATOM     19  O   UNL     1       6.443   6.979  17.962  0.00  0.00    +0.000 OA
BRANCH  17  24
ATOM     20  C   UNL     1       6.065   3.456  12.400  0.00  0.00    +0.000 C 
ATOM     21  C   UNL     1       6.228   3.879  13.834  0.00  0.00    +0.000 A 
ATOM     22  C   UNL     1       6.977   5.019  14.147  0.00  0.00    +0.000 A 
ATOM     23  C   UNL     1       7.030   5.494  15.459  0.00  0.00    +0.000 A 
ATOM     24  C   UNL     1       6.288   4.862  16.463  0.00  0.00    +0.000 A 
ATOM     25  C   UNL     1       5.591   3.685  16.178  0.00  0.00    +0.000 A 
ATOM     26  C   UNL     1       5.565   3.197  14.863  0.00  0.00    +0.000 A 
ENDBRANCH  17  24
ENDBRANCH   1  17
TORSDOF 3
ENDMDL
MODEL 5
REMARK VINA RESULT:      -7.3      2.479      3.561
REMARK  Name = 
REMARK  4 active torsions:
REMARK  status: ('A' for Active; 'I' for Inactive)
REMARK    1  A    between atoms: C_1  and  C_2
REMARK    2  A    between atoms: C_5  and  S_6
REMARK    3  A    between atoms: S_6  and  N_9
REMARK    4  A    between atoms: C_17  and  C_18
REMARK                            x       y       z     vdW  Elec       q    Type
REMARK                         _______ _______ _______ _____ _____    ______ ____
ROOT
ATOM      1  N   UNL     1       0.104  10.385  20.910  0.00  0.00    +0.000 N 
ATOM      2  N   UNL     1      -0.761  10.693  19.649  0.00  0.00    +0.000 NA
ATOM      3  C   UNL     1      -0.280  11.872  19.340  0.00  0.00    +0.000 C 
ATOM      4  C   UNL     1      -1.028  13.168  19.016  0.00  0.00    +0.000 C 
ATOM      5  C   UNL     1      -0.078  14.391  19.131  0.00  0.00    +0.000 C 
ATOM      6  C   UNL     1       1.188  14.123  18.356  0.00  0.00    +0.000 C 
ATOM      7  C   UNL     1       1.941  12.971  19.011  0.00  0.00    +0.000 C 
ATOM      8  C   UNL     1       1.117  11.994  19.841  0.00  0.00    +0.000 C 
ATOM      9  C   UNL     1       0.703  11.698  21.339  0.00  0.00    +0.000 C 
ENDROOT
BRANCH   9  10
ATOM     10  C   UNL     1      -0.480  12.397  22.123  0.00  0.00    +0.000 A 
ATOM     11  C   UNL     1      -1.593  11.623  22.593  0.00  0.00    +0.000 A 
ATOM     12  C   UNL     1      -2.709  12.142  23.247  0.00  0.00    +0.000 A 
ATOM     13  C   UNL     1      -2.758  13.481  23.495  0.00  0.00    +0.000 A 
ATOM     14 CL   UNL     1      -4.161  14.145  24.233  0.00  0.00    +0.000 Cl
ATOM     15  C   UNL     1      -1.672  14.282  23.125  0.00  0.00    +0.000 A 
ATOM     16  C   UNL     1      -0.538  13.752  22.451  0.00  0.00    +0.000 A 
ENDBRANCH   9  10
BRANCH   1  17
ATOM     17  S   UNL     1       0.569   8.904  21.579  0.00  0.00    +0.000 S 
ATOM     18  O   UNL     1      -0.633   8.118  21.766  0.00  0.00    +0.000 OA
ATOM     19  O   UNL     1       1.477   9.126  22.662  0.00  0.00    +0.000 OA
BRANCH  17  24
ATOM     20  C   UNL     1       4.024   6.241  17.317  0.00  0.00    +0.000 C 
ATOM     21  C   UNL     1       3.060   6.856  18.294  0.00  0.00    +0.000 A 
ATOM     22  C   UNL     1       2.764   6.198  19.493  0.00  0.00    +0.000 A 
ATOM     23  C   UNL     1       1.972   6.816  20.464  0.00  0.00    +0.000 A 
ATOM     24  C   UNL     1       1.514   8.123  20.265  0.00  0.00    +0.000 A 
ATOM     25  C   UNL     1       1.746   8.765  19.046  0.00  0.00    +0.000 A 
ATOM     26  C   UNL     1       2.518   8.128  18.063  0.00  0.00    +0.000 A 
ENDBRANCH  17  24
ENDBRANCH   1  17
TORSDOF 3
ENDMDL
MODEL 6
REMARK VINA RESULT:      -7.3      5.737      8.574
REMARK  Name = 
REMARK  4 active torsions:
REMARK  status: ('A' for Active; 'I' for Inactive)
REMARK    1  A    between atoms: C_1  and  C_2
REMARK    2  A    between atoms: C_5  and  S_6
REMARK    3  A    between atoms: S_6  and  N_9
REMARK    4  A    between atoms: C_17  and  C_18
REMARK                            x       y       z     vdW  Elec       q    Type
REMARK                         _______ _______ _______ _____ _____    ______ ____
ROOT
ATOM      1  N   UNL     1       5.823   4.832  18.126  0.00  0.00    +0.000 N 
ATOM      2  N   UNL     1       5.550   4.674  19.654  0.00  0.00    +0.000 NA
ATOM      3  C   UNL     1       4.445   3.971  19.605  0.00  0.00    +0.000 C 
ATOM      4  C   UNL     1       3.123   4.193  20.343  0.00  0.00    +0.000 C 
ATOM      5  C   UNL     1       1.979   3.388  19.670  0.00  0.00    +0.000 C 
ATOM      6  C   UNL     1       2.415   1.958  19.469  0.00  0.00    +0.000 C 
ATOM      7  C   UNL     1       3.567   1.922  18.473  0.00  0.00    +0.000 C 
ATOM      8  C   UNL     1       4.400   3.192  18.337  0.00  0.00    +0.000 C 
ATOM      9  C   UNL     1       4.534   4.483  17.431  0.00  0.00    +0.000 C 
ENDROOT
BRANCH   9  10
ATOM     10  C   UNL     1       3.676   5.804  17.577  0.00  0.00    +0.000 A 
ATOM     11  C   UNL     1       4.281   7.087  17.370  0.00  0.00    +0.000 A 
ATOM     12  C   UNL     1       3.634   8.311  17.522  0.00  0.00    +0.000 A 
ATOM     13  C   UNL     1       2.316   8.316  17.868  0.00  0.00    +0.000 A 
ATOM     14 CL   UNL     1       1.525   9.819  18.132  0.00  0.00    +0.000 Cl
ATOM     15  C   UNL     1       1.647   7.096  18.016  0.00  0.00    +0.000 A 
ATOM     16  C   UNL     1       2.312   5.848  17.869  0.00  0.00    +0.000 A 
ENDBRANCH   9  10
BRANCH   1  17
ATOM     17  S   UNL     1       7.277   5.065  17.297  0.00  0.00    +0.000 S 
ATOM     18  O   UNL     1       8.218   4.080  17.788  0.00  0.00    +0.000 OA
ATOM     19  O   UNL     1       7.609   6.456  17.285  0.00  0.00    +0.000 OA
BRANCH  17  24
ATOM     20  C   UNL     1       6.028   3.249  11.610  0.00  0.00    +0.000 C 
ATOM     21  C   UNL     1       6.245   3.802  12.991  0.00  0.00    +0.000 A 
ATOM     22  C   UNL     1       5.612   3.211  14.090  0.00  0.00    +0.000 A 
ATOM     23  C   UNL     1       5.904   3.633  15.389  0.00  0.00    +0.000 A 
ATOM     24  C   UNL     1       6.876   4.616  15.603  0.00  0.00    +0.000 A 
ATOM     25  C   UNL     1       7.468   5.261  14.514  0.00  0.00    +0.000 A 
ATOM     26  C   UNL     1       7.148   4.852  13.210  0.00  0.00    +0.000 A 
ENDBRANCH  17  24
ENDBRANCH   1  17
TORSDOF 3
ENDMDL
MODEL 7
REMARK VINA RESULT:      -7.1      5.705      8.609
REMARK  Name = 
REMARK  4 active torsions:
REMARK  status: ('A' for Active; 'I' for Inactive)
REMARK    1  A    between atoms: C_1  and  C_2
REMARK    2  A    between atoms: C_5  and  S_6
REMARK    3  A    between atoms: S_6  and  N_9
REMARK    4  A    between atoms: C_17  and  C_18
REMARK                            x       y       z     vdW  Elec       q    Type
REMARK                         _______ _______ _______ _____ _____    ______ ____
ROOT
ATOM      1  N   UNL     1       5.828   4.878  17.791  0.00  0.00    +0.000 N 
ATOM      2  N   UNL     1       5.678   4.656  19.328  0.00  0.00    +0.000 NA
ATOM      3  C   UNL     1       4.547   3.993  19.341  0.00  0.00    +0.000 C 
ATOM      4  C   UNL     1       3.300   4.224  20.199  0.00  0.00    +0.000 C 
ATOM      5  C   UNL     1       2.074   3.492  19.589  0.00  0.00    +0.000 C 
ATOM      6  C   UNL     1       2.438   2.059  19.287  0.00  0.00    +0.000 C 
ATOM      7  C   UNL     1       3.501   2.034  18.195  0.00  0.00    +0.000 C 
ATOM      8  C   UNL     1       4.367   3.280  18.047  0.00  0.00    +0.000 C 
ATOM      9  C   UNL     1       4.473   4.608  17.194  0.00  0.00    +0.000 C 
ENDROOT
BRANCH   9  10
ATOM     10  C   UNL     1       3.681   5.948  17.473  0.00  0.00    +0.000 A 
ATOM     11  C   UNL     1       2.285   5.909  17.799  0.00  0.00    +0.000 A 
ATOM     12  C   UNL     1       1.481   7.027  18.013  0.00  0.00    +0.000 A 
ATOM     13  C   UNL     1       2.047   8.264  17.937  0.00  0.00    +0.000 A 
ATOM     14 CL   UNL     1       1.053   9.653  18.125  0.00  0.00    +0.000 Cl
ATOM     15  C   UNL     1       3.421   8.370  17.692  0.00  0.00    +0.000 A 
ATOM     16  C   UNL     1       4.237   7.228  17.466  0.00  0.00    +0.000 A 
ENDBRANCH   9  10
BRANCH   1  17
ATOM     17  S   UNL     1       7.215   5.103  16.852  0.00  0.00    +0.000 S 
ATOM     18  O   UNL     1       8.213   4.165  17.324  0.00  0.00    +0.000 OA
ATOM     19  O   UNL     1       7.510   6.499  16.750  0.00  0.00    +0.000 OA
BRANCH  17  24
ATOM     20  C   UNL     1       5.555   2.964  11.388  0.00  0.00    +0.000 C 
ATOM     21  C   UNL     1       5.897   3.610  12.702  0.00  0.00    +0.000 A 
ATOM     22  C   UNL     1       5.167   3.288  13.851  0.00  0.00    +0.000 A 
ATOM     23  C   UNL     1       5.555   3.783  15.099  0.00  0.00    +0.000 A 
ATOM     24  C   UNL     1       6.712   4.561  15.214  0.00  0.00    +0.000 A 
ATOM     25  C   UNL     1       7.412   4.944  14.067  0.00  0.00    +0.000 A 
ATOM     26  C   UNL     1       7.000   4.468  12.814  0.00  0.00    +0.000 A 
ENDBRANCH  17  24
ENDBRANCH   1  17
TORSDOF 3
ENDMDL
MODEL 8
REMARK VINA RESULT:      -7.0      3.027      6.332
REMARK  Name = 
REMARK  4 active torsions:
REMARK  status: ('A' for Active; 'I' for Inactive)
REMARK    1  A    between atoms: C_1  and  C_2
REMARK    2  A    between atoms: C_5  and  S_6
REMARK    3  A    between atoms: S_6  and  N_9
REMARK    4  A    between atoms: C_17  and  C_18
REMARK                            x       y       z     vdW  Elec       q    Type
REMARK                         _______ _______ _______ _____ _____    ______ ____
ROOT
ATOM      1  N   UNL     1       0.288  13.157  20.738  0.00  0.00    +0.000 N 
ATOM      2  N   UNL     1       0.496  11.719  21.306  0.00  0.00    +0.000 NA
ATOM      3  C   UNL     1       0.795  11.090  20.197  0.00  0.00    +0.000 C 
ATOM      4  C   UNL     1       0.229   9.779  19.645  0.00  0.00    +0.000 C 
ATOM      5  C   UNL     1       0.551   9.638  18.133  0.00  0.00    +0.000 C 
ATOM      6  C   UNL     1       2.019   9.897  17.900  0.00  0.00    +0.000 C 
ATOM      7  C   UNL     1       2.329  11.350  18.240  0.00  0.00    +0.000 C 
ATOM      8  C   UNL     1       1.391  12.044  19.221  0.00  0.00    +0.000 C 
ATOM      9  C   UNL     1       0.131  13.002  19.249  0.00  0.00    +0.000 C 
ENDROOT
BRANCH   9  10
ATOM     10  C   UNL     1      -1.376  12.548  19.090  0.00  0.00    +0.000 A 
ATOM     11  C   UNL     1      -1.810  11.887  17.893  0.00  0.00    +0.000 A 
ATOM     12  C   UNL     1      -3.119  11.491  17.628  0.00  0.00    +0.000 A 
ATOM     13  C   UNL     1      -4.075  11.715  18.572  0.00  0.00    +0.000 A 
ATOM     14 CL   UNL     1      -5.706  11.301  18.228  0.00  0.00    +0.000 Cl
ATOM     15  C   UNL     1      -3.704  12.292  19.792  0.00  0.00    +0.000 A 
ATOM     16  C   UNL     1      -2.369  12.703  20.058  0.00  0.00    +0.000 A 
ENDBRANCH   9  10
BRANCH   1  17
ATOM     17  S   UNL     1       0.459  14.662  21.489  0.00  0.00    +0.000 S 
ATOM     18  O   UNL     1       1.751  14.673  22.144  0.00  0.00    +0.000 OA
ATOM     19  O   UNL     1      -0.734  14.980  22.212  0.00  0.00    +0.000 OA
BRANCH  17  24
ATOM     20  C   UNL     1       0.620  18.362  16.644  0.00  0.00    +0.000 C 
ATOM     21  C   UNL     1       0.604  17.563  17.918  0.00  0.00    +0.000 A 
ATOM     22  C   UNL     1      -0.614  17.179  18.488  0.00  0.00    +0.000 A 
ATOM     23  C   UNL     1      -0.642  16.331  19.598  0.00  0.00    +0.000 A 
ATOM     24  C   UNL     1       0.552  15.815  20.113  0.00  0.00    +0.000 A 
ATOM     25  C   UNL     1       1.778  16.243  19.596  0.00  0.00    +0.000 A 
ATOM     26  C   UNL     1       1.799  17.118  18.500  0.00  0.00    +0.000 A 
ENDBRANCH  17  24
ENDBRANCH   1  17
TORSDOF 3
ENDMDL
MODEL 9
REMARK VINA RESULT:      -6.9      5.255      8.060
REMARK  Name = 
REMARK  4 active torsions:
REMARK  status: ('A' for Active; 'I' for Inactive)
REMARK    1  A    between atoms: C_1  and  C_2
REMARK    2  A    between atoms: C_5  and  S_6
REMARK    3  A    between atoms: S_6  and  N_9
REMARK    4  A    between atoms: C_17  and  C_18
REMARK                            x       y       z     vdW  Elec       q    Type
REMARK                         _______ _______ _______ _____ _____    ______ ____
ROOT
ATOM      1  N   UNL     1       4.738   4.938  17.885  0.00  0.00    +0.000 N 
ATOM      2  N   UNL     1       4.861   4.390  19.340  0.00  0.00    +0.000 NA
ATOM      3  C   UNL     1       3.686   3.823  19.457  0.00  0.00    +0.000 C 
ATOM      4  C   UNL     1       2.662   3.944  20.589  0.00  0.00    +0.000 C 
ATOM      5  C   UNL     1       1.266   3.455  20.118  0.00  0.00    +0.000 C 
ATOM      6  C   UNL     1       1.397   2.104  19.461  0.00  0.00    +0.000 C 
ATOM      7  C   UNL     1       2.221   2.247  18.186  0.00  0.00    +0.000 C 
ATOM      8  C   UNL     1       3.179   3.430  18.114  0.00  0.00    +0.000 C 
ATOM      9  C   UNL     1       3.272   4.904  17.546  0.00  0.00    +0.000 C 
ENDROOT
BRANCH   9  10
ATOM     10  C   UNL     1       2.707   6.201  18.254  0.00  0.00    +0.000 A 
ATOM     11  C   UNL     1       2.610   7.436  17.531  0.00  0.00    +0.000 A 
ATOM     12  C   UNL     1       2.177   8.646  18.069  0.00  0.00    +0.000 A 
ATOM     13  C   UNL     1       1.786   8.680  19.374  0.00  0.00    +0.000 A 
ATOM     14 CL   UNL     1       1.321  10.180  20.070  0.00  0.00    +0.000 Cl
ATOM     15  C   UNL     1       1.789   7.493  20.116  0.00  0.00    +0.000 A 
ATOM     16  C   UNL     1       2.239   6.261  19.567  0.00  0.00    +0.000 A 
ENDBRANCH   9  10
BRANCH   1  17
ATOM     17  S   UNL     1       5.935   5.267  16.738  0.00  0.00    +0.000 S 
ATOM     18  O   UNL     1       5.277   5.817  15.572  0.00  0.00    +0.000 OA
ATOM     19  O   UNL     1       6.817   4.145  16.623  0.00  0.00    +0.000 OA
BRANCH  17  24
ATOM     20  C   UNL     1       9.299   9.828  18.992  0.00  0.00    +0.000 C 
ATOM     21  C   UNL     1       8.385   8.720  18.547  0.00  0.00    +0.000 A 
ATOM     22  C   UNL     1       7.444   8.952  17.537  0.00  0.00    +0.000 A 
ATOM     23  C   UNL     1       6.678   7.901  17.027  0.00  0.00    +0.000 A 
ATOM     24  C   UNL     1       6.887   6.596  17.486  0.00  0.00    +0.000 A 
ATOM     25  C   UNL     1       7.774   6.361  18.539  0.00  0.00    +0.000 A 
ATOM     26  C   UNL     1       8.519   7.425  19.067  0.00  0.00    +0.000 A 
ENDBRANCH  17  24
ENDBRANCH   1  17
TORSDOF 3
ENDMDL
