MODEL 1
REMARK VINA RESULT:      -7.4      0.000      0.000
REMARK  Name = 
REMARK  3 active torsions:
REMARK  status: ('A' for Active; 'I' for Inactive)
REMARK    1  A    between atoms: C_1  and  C_2
REMARK    2  A    between atoms: C_5  and  C_7
REMARK    3  A    between atoms: C_11  and  C_12
REMARK                            x       y       z     vdW  Elec       q    Type
REMARK                         _______ _______ _______ _____ _____    ______ ____
ROOT
ATOM      1  C   UNL     1       3.557   3.385  18.186  0.00  0.00    +0.000 A 
ATOM      2  C   UNL     1       3.092   2.130  17.839  0.00  0.00    +0.000 A 
ATOM      3  N   UNL     1       1.743   2.224  17.727  0.00  0.00    +0.000 N 
ATOM      4  N   UNL     1       1.273   3.437  18.000  0.00  0.00    +0.000 NA
ATOM      5  C   UNL     1       2.343   4.144  18.406  0.00  0.00    +0.000 A 
ATOM      6  H   UNL     1       1.078   1.501  17.472  0.00  0.00    +0.000 HD
ENDROOT
BRANCH   1  11
ATOM      7  C   UNL     1       5.937   3.627  14.826  0.00  0.00    +0.000 C 
ATOM      8  C   UNL     1       5.944   5.113  15.210  0.00  0.00    +0.000 C 
ATOM      9  C   UNL     1       4.989   5.426  16.395  0.00  0.00    +0.000 C 
ATOM     10  N   UNL     1       5.500   4.829  17.632  0.00  0.00    +0.000 N 
ATOM     11  C   UNL     1       4.940   3.813  18.412  0.00  0.00    +0.000 C 
ATOM     12  O   UNL     1       5.586   3.308  19.328  0.00  0.00    +0.000 OA
ATOM     13  C   UNL     1       6.845   5.318  17.958  0.00  0.00    +0.000 C 
ATOM     14  C   UNL     1       7.822   5.085  16.789  0.00  0.00    +0.000 C 
ATOM     15  N   UNL     1       7.321   5.577  15.489  0.00  0.00    +0.000 NA
ATOM     16  H   UNL     1       7.950   5.261  14.750  0.00  0.00    +0.000 HD
ENDBRANCH   1  11
BRANCH   5  17
ATOM     17  C   UNL     1       2.153   5.513  18.923  0.00  0.00    +0.000 A 
ATOM     18  C   UNL     1       2.133   6.597  18.027  0.00  0.00    +0.000 A 
ATOM     19  C   UNL     1       1.958   7.912  18.475  0.00  0.00    +0.000 A 
ATOM     20  C   UNL     1       1.762   8.168  19.827  0.00  0.00    +0.000 A 
ATOM     21  C   UNL     1       1.764   7.112  20.734  0.00  0.00    +0.000 A 
ATOM     22  C   UNL     1       1.973   5.796  20.295  0.00  0.00    +0.000 A 
ATOM     23 CL   UNL     1       2.046   4.597  21.549  0.00  0.00    +0.000 Cl
ENDBRANCH   5  17
TORSDOF 2
ENDMDL
MODEL 2
REMARK VINA RESULT:      -7.3      2.502      3.866
REMARK  Name = 
REMARK  3 active torsions:
REMARK  status: ('A' for Active; 'I' for Inactive)
REMARK    1  A    between atoms: C_1  and  C_2
REMARK    2  A    between atoms: C_5  and  C_7
REMARK    3  A    between atoms: C_11  and  C_12
REMARK                            x       y       z     vdW  Elec       q    Type
REMARK                         _______ _______ _______ _____ _____    ______ ____
ROOT
ATOM      1  C   UNL     1       3.493   6.548  18.024  0.00  0.00    +0.000 A 
ATOM      2  C   UNL     1       3.314   7.894  17.764  0.00  0.00    +0.000 A 
ATOM      3  N   UNL     1       2.458   8.369  18.704  0.00  0.00    +0.000 N 
ATOM      4  N   UNL     1       2.033   7.437  19.550  0.00  0.00    +0.000 NA
ATOM      5  C   UNL     1       2.548   6.282  19.090  0.00  0.00    +0.000 A 
ATOM      6  H   UNL     1       2.116   9.317  18.826  0.00  0.00    +0.000 HD
ENDROOT
BRANCH   1  11
ATOM      7  C   UNL     1       7.563   7.157  18.301  0.00  0.00    +0.000 C 
ATOM      8  C   UNL     1       7.493   5.801  19.015  0.00  0.00    +0.000 C 
ATOM      9  C   UNL     1       6.033   5.317  19.233  0.00  0.00    +0.000 C 
ATOM     10  N   UNL     1       5.413   4.974  17.950  0.00  0.00    +0.000 N 
ATOM     11  C   UNL     1       4.333   5.586  17.307  0.00  0.00    +0.000 C 
ATOM     12  O   UNL     1       4.050   5.281  16.150  0.00  0.00    +0.000 OA
ATOM     13  C   UNL     1       6.164   3.929  17.246  0.00  0.00    +0.000 C 
ATOM     14  C   UNL     1       7.639   4.334  17.055  0.00  0.00    +0.000 C 
ATOM     15  N   UNL     1       8.296   4.787  18.298  0.00  0.00    +0.000 NA
ATOM     16  H   UNL     1       9.213   5.169  18.068  0.00  0.00    +0.000 HD
ENDBRANCH   1  11
BRANCH   5  17
ATOM     17  C   UNL     1       2.158   5.010  19.725  0.00  0.00    +0.000 A 
ATOM     18  C   UNL     1       2.460   4.789  21.082  0.00  0.00    +0.000 A 
ATOM     19  C   UNL     1       2.110   3.595  21.722  0.00  0.00    +0.000 A 
ATOM     20  C   UNL     1       1.417   2.609  21.031  0.00  0.00    +0.000 A 
ATOM     21  C   UNL     1       1.092   2.807  19.692  0.00  0.00    +0.000 A 
ATOM     22  C   UNL     1       1.471   3.988  19.034  0.00  0.00    +0.000 A 
ATOM     23 CL   UNL     1       1.085   4.052  17.343  0.00  0.00    +0.000 Cl
ENDBRANCH   5  17
TORSDOF 2
ENDMDL
MODEL 3
REMARK VINA RESULT:      -7.1      0.977      1.083
REMARK  Name = 
REMARK  3 active torsions:
REMARK  status: ('A' for Active; 'I' for Inactive)
REMARK    1  A    between atoms: C_1  and  C_2
REMARK    2  A    between atoms: C_5  and  C_7
REMARK    3  A    between atoms: C_11  and  C_12
REMARK                            x       y       z     vdW  Elec       q    Type
REMARK                         _______ _______ _______ _____ _____    ______ ____
ROOT
ATOM      1  C   UNL     1       3.667   3.689  18.313  0.00  0.00    +0.000 A 
ATOM      2  C   UNL     1       3.285   2.534  17.657  0.00  0.00    +0.000 A 
ATOM      3  N   UNL     1       2.037   2.751  17.167  0.00  0.00    +0.000 N 
ATOM      4  N   UNL     1       1.552   3.950  17.471  0.00  0.00    +0.000 NA
ATOM      5  C   UNL     1       2.473   4.508  18.278  0.00  0.00    +0.000 A 
ATOM      6  H   UNL     1       1.456   2.124  16.620  0.00  0.00    +0.000 HD
ENDROOT
BRANCH   1  11
ATOM      7  C   UNL     1       6.816   4.814  15.898  0.00  0.00    +0.000 C 
ATOM      8  C   UNL     1       6.673   6.116  16.696  0.00  0.00    +0.000 C 
ATOM      9  C   UNL     1       5.437   6.105  17.637  0.00  0.00    +0.000 C 
ATOM     10  N   UNL     1       5.636   5.146  18.727  0.00  0.00    +0.000 N 
ATOM     11  C   UNL     1       4.931   3.970  19.000  0.00  0.00    +0.000 C 
ATOM     12  O   UNL     1       5.339   3.188  19.856  0.00  0.00    +0.000 OA
ATOM     13  C   UNL     1       6.835   5.457  19.514  0.00  0.00    +0.000 C 
ATOM     14  C   UNL     1       8.085   5.539  18.617  0.00  0.00    +0.000 C 
ATOM     15  N   UNL     1       7.916   6.416  17.441  0.00  0.00    +0.000 NA
ATOM     16  H   UNL     1       8.723   6.307  16.827  0.00  0.00    +0.000 HD
ENDBRANCH   1  11
BRANCH   5  17
ATOM     17  C   UNL     1       2.185   5.805  18.917  0.00  0.00    +0.000 A 
ATOM     18  C   UNL     1       2.129   6.970  18.131  0.00  0.00    +0.000 A 
ATOM     19  C   UNL     1       1.862   8.222  18.698  0.00  0.00    +0.000 A 
ATOM     20  C   UNL     1       1.607   8.331  20.059  0.00  0.00    +0.000 A 
ATOM     21  C   UNL     1       1.642   7.193  20.859  0.00  0.00    +0.000 A 
ATOM     22  C   UNL     1       1.944   5.940  20.302  0.00  0.00    +0.000 A 
ATOM     23 CL   UNL     1       2.047   4.629  21.436  0.00  0.00    +0.000 Cl
ENDBRANCH   5  17
TORSDOF 2
ENDMDL
MODEL 4
REMARK VINA RESULT:      -6.7      2.533      5.722
REMARK  Name = 
REMARK  3 active torsions:
REMARK  status: ('A' for Active; 'I' for Inactive)
REMARK    1  A    between atoms: C_1  and  C_2
REMARK    2  A    between atoms: C_5  and  C_7
REMARK    3  A    between atoms: C_11  and  C_12
REMARK                            x       y       z     vdW  Elec       q    Type
REMARK                         _______ _______ _______ _____ _____    ______ ____
ROOT
ATOM      1  C   UNL     1       3.907   6.191  18.320  0.00  0.00    +0.000 A 
ATOM      2  C   UNL     1       3.127   7.286  18.639  0.00  0.00    +0.000 A 
ATOM      3  N   UNL     1       3.029   8.043  17.517  0.00  0.00    +0.000 N 
ATOM      4  N   UNL     1       3.706   7.549  16.486  0.00  0.00    +0.000 NA
ATOM      5  C   UNL     1       4.359   6.479  16.975  0.00  0.00    +0.000 A 
ATOM      6  H   UNL     1       2.520   8.911  17.382  0.00  0.00    +0.000 HD
ENDROOT
BRANCH   1  11
ATOM      7  C   UNL     1       0.894   4.533  20.598  0.00  0.00    +0.000 C 
ATOM      8  C   UNL     1       1.205   3.313  19.720  0.00  0.00    +0.000 C 
ATOM      9  C   UNL     1       2.233   3.632  18.600  0.00  0.00    +0.000 C 
ATOM     10  N   UNL     1       3.555   3.887  19.178  0.00  0.00    +0.000 N 
ATOM     11  C   UNL     1       4.298   5.070  19.180  0.00  0.00    +0.000 C 
ATOM     12  O   UNL     1       5.316   5.161  19.863  0.00  0.00    +0.000 OA
ATOM     13  C   UNL     1       4.037   2.741  19.959  0.00  0.00    +0.000 C 
ATOM     14  C   UNL     1       3.024   2.344  21.051  0.00  0.00    +0.000 C 
ATOM     15  N   UNL     1       1.647   2.169  20.547  0.00  0.00    +0.000 NA
ATOM     16  H   UNL     1       1.016   2.050  21.341  0.00  0.00    +0.000 HD
ENDBRANCH   1  11
BRANCH   5  17
ATOM     17  C   UNL     1       5.325   5.766  16.118  0.00  0.00    +0.000 A 
ATOM     18  C   UNL     1       4.857   4.971  15.056  0.00  0.00    +0.000 A 
ATOM     19  C   UNL     1       5.739   4.275  14.221  0.00  0.00    +0.000 A 
ATOM     20  C   UNL     1       7.111   4.389  14.406  0.00  0.00    +0.000 A 
ATOM     21  C   UNL     1       7.602   5.181  15.440  0.00  0.00    +0.000 A 
ATOM     22  C   UNL     1       6.722   5.853  16.302  0.00  0.00    +0.000 A 
ATOM     23 CL   UNL     1       7.476   6.721  17.603  0.00  0.00    +0.000 Cl
ENDBRANCH   5  17
TORSDOF 2
ENDMDL
MODEL 5
REMARK VINA RESULT:      -6.7      2.192      3.350
REMARK  Name = 
REMARK  3 active torsions:
REMARK  status: ('A' for Active; 'I' for Inactive)
REMARK    1  A    between atoms: C_1  and  C_2
REMARK    2  A    between atoms: C_5  and  C_7
REMARK    3  A    between atoms: C_11  and  C_12
REMARK                            x       y       z     vdW  Elec       q    Type
REMARK                         _______ _______ _______ _____ _____    ______ ____
ROOT
ATOM      1  C   UNL     1       3.804   6.552  18.496  0.00  0.00    +0.000 A 
ATOM      2  C   UNL     1       3.443   7.694  17.805  0.00  0.00    +0.000 A 
ATOM      3  N   UNL     1       2.106   7.855  17.979  0.00  0.00    +0.000 N 
ATOM      4  N   UNL     1       1.548   6.895  18.708  0.00  0.00    +0.000 NA
ATOM      5  C   UNL     1       2.536   6.011  18.940  0.00  0.00    +0.000 A 
ATOM      6  H   UNL     1       1.508   8.595  17.626  0.00  0.00    +0.000 HD
ENDROOT
BRANCH   1  11
ATOM      7  C   UNL     1       5.058   4.205  15.345  0.00  0.00    +0.000 C 
ATOM      8  C   UNL     1       6.117   5.310  15.233  0.00  0.00    +0.000 C 
ATOM      9  C   UNL     1       5.854   6.487  16.211  0.00  0.00    +0.000 C 
ATOM     10  N   UNL     1       6.065   6.056  17.596  0.00  0.00    +0.000 N 
ATOM     11  C   UNL     1       5.135   5.954  18.634  0.00  0.00    +0.000 C 
ATOM     12  O   UNL     1       5.445   5.408  19.691  0.00  0.00    +0.000 OA
ATOM     13  C   UNL     1       7.427   5.552  17.807  0.00  0.00    +0.000 C 
ATOM     14  C   UNL     1       7.762   4.417  16.819  0.00  0.00    +0.000 C 
ATOM     15  N   UNL     1       7.477   4.754  15.410  0.00  0.00    +0.000 NA
ATOM     16  H   UNL     1       7.586   3.915  14.839  0.00  0.00    +0.000 HD
ENDBRANCH   1  11
BRANCH   5  17
ATOM     17  C   UNL     1       2.225   4.738  19.616  0.00  0.00    +0.000 A 
ATOM     18  C   UNL     1       2.163   4.694  21.021  0.00  0.00    +0.000 A 
ATOM     19  C   UNL     1       1.874   3.505  21.702  0.00  0.00    +0.000 A 
ATOM     20  C   UNL     1       1.604   2.342  20.993  0.00  0.00    +0.000 A 
ATOM     21  C   UNL     1       1.644   2.360  19.601  0.00  0.00    +0.000 A 
ATOM     22  C   UNL     1       1.967   3.540  18.913  0.00  0.00    +0.000 A 
ATOM     23 CL   UNL     1       2.075   3.387  17.187  0.00  0.00    +0.000 Cl
ENDBRANCH   5  17
TORSDOF 2
ENDMDL
MODEL 6
REMARK VINA RESULT:      -6.7      2.661      5.414
REMARK  Name = 
REMARK  3 active torsions:
REMARK  status: ('A' for Active; 'I' for Inactive)
REMARK    1  A    between atoms: C_1  and  C_2
REMARK    2  A    between atoms: C_5  and  C_7
REMARK    3  A    between atoms: C_11  and  C_12
REMARK                            x       y       z     vdW  Elec       q    Type
REMARK                         _______ _______ _______ _____ _____    ______ ____
ROOT
ATOM      1  C   UNL     1       5.218   4.864  17.251  0.00  0.00    +0.000 A 
ATOM      2  C   UNL     1       5.112   3.823  16.348  0.00  0.00    +0.000 A 
ATOM      3  N   UNL     1       6.329   3.676  15.767  0.00  0.00    +0.000 N 
ATOM      4  N   UNL     1       7.228   4.556  16.195  0.00  0.00    +0.000 NA
ATOM      5  C   UNL     1       6.551   5.381  17.014  0.00  0.00    +0.000 A 
ATOM      6  H   UNL     1       6.619   2.999  15.068  0.00  0.00    +0.000 HD
ENDROOT
BRANCH   1  11
ATOM      7  C   UNL     1       2.098   2.322  18.152  0.00  0.00    +0.000 C 
ATOM      8  C   UNL     1       2.681   2.466  19.564  0.00  0.00    +0.000 C 
ATOM      9  C   UNL     1       4.010   3.270  19.581  0.00  0.00    +0.000 C 
ATOM     10  N   UNL     1       3.759   4.676  19.252  0.00  0.00    +0.000 N 
ATOM     11  C   UNL     1       4.188   5.407  18.141  0.00  0.00    +0.000 C 
ATOM     12  O   UNL     1       3.742   6.534  17.931  0.00  0.00    +0.000 OA
ATOM     13  C   UNL     1       2.813   5.293  20.190  0.00  0.00    +0.000 C 
ATOM     14  C   UNL     1       1.494   4.499  20.257  0.00  0.00    +0.000 C 
ATOM     15  N   UNL     1       1.684   3.052  20.487  0.00  0.00    +0.000 NA
ATOM     16  H   UNL     1       0.787   2.578  20.376  0.00  0.00    +0.000 HD
ENDBRANCH   1  11
BRANCH   5  17
ATOM     17  C   UNL     1       7.226   6.571  17.564  0.00  0.00    +0.000 A 
ATOM     18  C   UNL     1       7.082   7.813  16.918  0.00  0.00    +0.000 A 
ATOM     19  C   UNL     1       7.708   8.966  17.405  0.00  0.00    +0.000 A 
ATOM     20  C   UNL     1       8.463   8.912  18.570  0.00  0.00    +0.000 A 
ATOM     21  C   UNL     1       8.611   7.699  19.237  0.00  0.00    +0.000 A 
ATOM     22  C   UNL     1       8.014   6.532  18.736  0.00  0.00    +0.000 A 
ATOM     23 CL   UNL     1       8.366   5.080  19.619  0.00  0.00    +0.000 Cl
ENDBRANCH   5  17
TORSDOF 2
ENDMDL
MODEL 7
REMARK VINA RESULT:      -6.5      1.964      3.229
REMARK  Name = 
REMARK  3 active torsions:
REMARK  status: ('A' for Active; 'I' for Inactive)
REMARK    1  A    between atoms: C_1  and  C_2
REMARK    2  A    between atoms: C_5  and  C_7
REMARK    3  A    between atoms: C_11  and  C_12
REMARK                            x       y       z     vdW  Elec       q    Type
REMARK                         _______ _______ _______ _____ _____    ______ ____
ROOT
ATOM      1  C   UNL     1       3.714   6.699  18.237  0.00  0.00    +0.000 A 
ATOM      2  C   UNL     1       3.438   7.956  17.731  0.00  0.00    +0.000 A 
ATOM      3  N   UNL     1       2.091   8.032  17.574  0.00  0.00    +0.000 N 
ATOM      4  N   UNL     1       1.456   6.915  17.912  0.00  0.00    +0.000 NA
ATOM      5  C   UNL     1       2.429   6.033  18.205  0.00  0.00    +0.000 A 
ATOM      6  H   UNL     1       1.538   8.814  17.240  0.00  0.00    +0.000 HD
ENDROOT
BRANCH   1  11
ATOM      7  C   UNL     1       5.316   4.040  15.521  0.00  0.00    +0.000 C 
ATOM      8  C   UNL     1       6.388   5.133  15.420  0.00  0.00    +0.000 C 
ATOM      9  C   UNL     1       6.020   6.406  16.230  0.00  0.00    +0.000 C 
ATOM     10  N   UNL     1       6.063   6.125  17.668  0.00  0.00    +0.000 N 
ATOM     11  C   UNL     1       5.016   6.127  18.594  0.00  0.00    +0.000 C 
ATOM     12  O   UNL     1       5.194   5.698  19.732  0.00  0.00    +0.000 OA
ATOM     13  C   UNL     1       7.387   5.653  18.091  0.00  0.00    +0.000 C 
ATOM     14  C   UNL     1       7.828   4.423  17.274  0.00  0.00    +0.000 C 
ATOM     15  N   UNL     1       7.714   4.608  15.814  0.00  0.00    +0.000 NA
ATOM     16  H   UNL     1       7.884   3.714  15.352  0.00  0.00    +0.000 HD
ENDBRANCH   1  11
BRANCH   5  17
ATOM     17  C   UNL     1       2.072   4.630  18.492  0.00  0.00    +0.000 A 
ATOM     18  C   UNL     1       2.248   3.651  17.497  0.00  0.00    +0.000 A 
ATOM     19  C   UNL     1       1.919   2.310  17.727  0.00  0.00    +0.000 A 
ATOM     20  C   UNL     1       1.441   1.911  18.969  0.00  0.00    +0.000 A 
ATOM     21  C   UNL     1       1.270   2.857  19.976  0.00  0.00    +0.000 A 
ATOM     22  C   UNL     1       1.565   4.209  19.741  0.00  0.00    +0.000 A 
ATOM     23 CL   UNL     1       1.210   5.286  21.056  0.00  0.00    +0.000 Cl
ENDBRANCH   5  17
TORSDOF 2
ENDMDL
MODEL 8
REMARK VINA RESULT:      -6.4      2.659      5.508
REMARK  Name = 
REMARK  3 active torsions:
REMARK  status: ('A' for Active; 'I' for Inactive)
REMARK    1  A    between atoms: C_1  and  C_2
REMARK    2  A    between atoms: C_5  and  C_7
REMARK    3  A    between atoms: C_11  and  C_12
REMARK                            x       y       z     vdW  Elec       q    Type
REMARK                         _______ _______ _______ _____ _____    ______ ____
ROOT
ATOM      1  C   UNL     1       4.473   4.246  17.511  0.00  0.00    +0.000 A 
ATOM      2  C   UNL     1       4.252   3.128  16.729  0.00  0.00    +0.000 A 
ATOM      3  N   UNL     1       5.426   2.836  16.114  0.00  0.00    +0.000 N 
ATOM      4  N   UNL     1       6.401   3.690  16.406  0.00  0.00    +0.000 NA
ATOM      5  C   UNL     1       5.822   4.640  17.162  0.00  0.00    +0.000 A 
ATOM      6  H   UNL     1       5.634   2.072  15.479  0.00  0.00    +0.000 HD
ENDROOT
BRANCH   1  11
ATOM      7  C   UNL     1       1.188   2.069  18.731  0.00  0.00    +0.000 C 
ATOM      8  C   UNL     1       1.837   2.281  20.105  0.00  0.00    +0.000 C 
ATOM      9  C   UNL     1       3.228   2.965  20.008  0.00  0.00    +0.000 C 
ATOM     10  N   UNL     1       3.082   4.355  19.566  0.00  0.00    +0.000 N 
ATOM     11  C   UNL     1       3.527   4.950  18.382  0.00  0.00    +0.000 C 
ATOM     12  O   UNL     1       3.169   6.089  18.089  0.00  0.00    +0.000 OA
ATOM     13  C   UNL     1       2.229   5.129  20.476  0.00  0.00    +0.000 C 
ATOM     14  C   UNL     1       0.852   4.460  20.655  0.00  0.00    +0.000 C 
ATOM     15  N   UNL     1       0.929   3.027  21.005  0.00  0.00    +0.000 NA
ATOM     16  H   UNL     1      -0.007   2.625  20.965  0.00  0.00    +0.000 HD
ENDBRANCH   1  11
BRANCH   5  17
ATOM     17  C   UNL     1       6.601   5.830  17.552  0.00  0.00    +0.000 A 
ATOM     18  C   UNL     1       7.607   5.713  18.529  0.00  0.00    +0.000 A 
ATOM     19  C   UNL     1       8.367   6.818  18.931  0.00  0.00    +0.000 A 
ATOM     20  C   UNL     1       8.164   8.057  18.337  0.00  0.00    +0.000 A 
ATOM     21  C   UNL     1       7.185   8.199  17.358  0.00  0.00    +0.000 A 
ATOM     22  C   UNL     1       6.396   7.103  16.976  0.00  0.00    +0.000 A 
ATOM     23 CL   UNL     1       5.152   7.452  15.816  0.00  0.00    +0.000 Cl
ENDBRANCH   5  17
TORSDOF 2
ENDMDL
MODEL 9
REMARK VINA RESULT:      -6.2      2.383      5.734
REMARK  Name = 
REMARK  3 active torsions:
REMARK  status: ('A' for Active; 'I' for Inactive)
REMARK    1  A    between atoms: C_1  and  C_2
REMARK    2  A    between atoms: C_5  and  C_7
REMARK    3  A    between atoms: C_11  and  C_12
REMARK                            x       y       z     vdW  Elec       q    Type
REMARK                         _______ _______ _______ _____ _____    ______ ____
ROOT
ATOM      1  C   UNL     1       2.570   5.967  17.829  0.00  0.00    +0.000 A 
ATOM      2  C   UNL     1       1.980   7.094  18.370  0.00  0.00    +0.000 A 
ATOM      3  N   UNL     1       2.815   8.135  18.125  0.00  0.00    +0.000 N 
ATOM      4  N   UNL     1       3.926   7.782  17.487  0.00  0.00    +0.000 NA
ATOM      5  C   UNL     1       3.869   6.440  17.399  0.00  0.00    +0.000 A 
ATOM      6  H   UNL     1       2.693   9.114  18.366  0.00  0.00    +0.000 HD
ENDROOT
BRANCH   1  11
ATOM      7  C   UNL     1       3.530   3.661  21.111  0.00  0.00    +0.000 C 
ATOM      8  C   UNL     1       2.007   3.686  21.296  0.00  0.00    +0.000 C 
ATOM      9  C   UNL     1       1.300   4.625  20.281  0.00  0.00    +0.000 C 
ATOM     10  N   UNL     1       1.393   4.075  18.927  0.00  0.00    +0.000 N 
ATOM     11  C   UNL     1       2.063   4.592  17.814  0.00  0.00    +0.000 C 
ATOM     12  O   UNL     1       2.187   3.914  16.796  0.00  0.00    +0.000 OA
ATOM     13  C   UNL     1       0.795   2.737  18.840  0.00  0.00    +0.000 C 
ATOM     14  C   UNL     1       1.422   1.778  19.870  0.00  0.00    +0.000 C 
ATOM     15  N   UNL     1       1.449   2.317  21.245  0.00  0.00    +0.000 NA
ATOM     16  H   UNL     1       2.001   1.694  21.835  0.00  0.00    +0.000 HD
ENDBRANCH   1  11
BRANCH   5  17
ATOM     17  C   UNL     1       5.026   5.701  16.860  0.00  0.00    +0.000 A 
ATOM     18  C   UNL     1       5.106   5.447  15.479  0.00  0.00    +0.000 A 
ATOM     19  C   UNL     1       6.185   4.745  14.927  0.00  0.00    +0.000 A 
ATOM     20  C   UNL     1       7.226   4.314  15.739  0.00  0.00    +0.000 A 
ATOM     21  C   UNL     1       7.179   4.563  17.108  0.00  0.00    +0.000 A 
ATOM     22  C   UNL     1       6.084   5.236  17.672  0.00  0.00    +0.000 A 
ATOM     23 CL   UNL     1       6.117   5.388  19.401  0.00  0.00    +0.000 Cl
ENDBRANCH   5  17
TORSDOF 2
ENDMDL
