MODEL 1
REMARK VINA RESULT:      -8.7      0.000      0.000
REMARK  Name = 
REMARK  6 active torsions:
REMARK  status: ('A' for Active; 'I' for Inactive)
REMARK    1  A    between atoms: C_2  and  C_5
REMARK    2  A    between atoms: C_8  and  N_9
REMARK    3  A    between atoms: N_9  and  C_10
REMARK    4  A    between atoms: C_10  and  C_11
REMARK    5  A    between atoms: N_13  and  C_14
REMARK    6  A    between atoms: C_21  and  C_22
REMARK                            x       y       z     vdW  Elec       q    Type
REMARK                         _______ _______ _______ _____ _____    ______ ____
ROOT
ATOM      1  C   UNL     1       4.511   6.183  16.905  0.00  0.00    +0.000 A 
ATOM      2  C   UNL     1       5.189   6.225  15.705  0.00  0.00    +0.000 A 
ATOM      3  N   UNL     1       5.253   4.943  15.216  0.00  0.00    +0.000 N 
ATOM      4  N   UNL     1       4.609   4.075  16.034  0.00  0.00    +0.000 NA
ATOM      5  C   UNL     1       4.196   4.801  17.086  0.00  0.00    +0.000 A 
ENDROOT
BRANCH   5   6
ATOM      6  C   UNL     1       3.499   4.169  18.211  0.00  0.00    +0.000 A 
ATOM      7  C   UNL     1       4.221   3.592  19.269  0.00  0.00    +0.000 A 
ATOM      8  C   UNL     1       3.567   3.080  20.389  0.00  0.00    +0.000 A 
ATOM      9  C   UNL     1       2.179   3.104  20.447  0.00  0.00    +0.000 A 
ATOM     10 BR   UNL     1       1.296   2.436  21.978  0.00  0.00    +0.000 Br
ATOM     11  C   UNL     1       1.438   3.619  19.383  0.00  0.00    +0.000 A 
ATOM     12  C   UNL     1       2.099   4.149  18.268  0.00  0.00    +0.000 A 
ENDBRANCH   5   6
BRANCH   3  13
ATOM     13  C   UNL     1       5.900   4.512  14.025  0.00  0.00    +0.000 A 
ATOM     14  C   UNL     1       5.327   3.517  13.217  0.00  0.00    +0.000 A 
ATOM     15  C   UNL     1       5.959   3.114  12.039  0.00  0.00    +0.000 A 
ATOM     16  C   UNL     1       7.169   3.692  11.664  0.00  0.00    +0.000 A 
ATOM     17  C   UNL     1       7.747   4.677  12.463  0.00  0.00    +0.000 A 
ATOM     18  C   UNL     1       7.117   5.092  13.641  0.00  0.00    +0.000 A 
ENDBRANCH   3  13
BRANCH   1  19
ATOM     19  C   UNL     1       4.202   7.358  17.779  0.00  0.00    +0.000 C 
BRANCH  19  20
ATOM     20  N   UNL     1       2.893   7.962  17.555  0.00  0.00    +0.000 N 
ATOM     21  H   UNL     1       2.939   8.711  16.869  0.00  0.00    +0.000 HD
BRANCH  20  25
ATOM     22  C   UNL     1       0.683   8.969  21.026  0.00  0.00    +0.000 A 
ATOM     23  C   UNL     1       1.445   7.797  20.960  0.00  0.00    +0.000 A 
ATOM     24  C   UNL     1       2.147   7.471  19.794  0.00  0.00    +0.000 A 
ATOM     25  C   UNL     1       2.087   8.280  18.651  0.00  0.00    +0.000 A 
ATOM     26  C   UNL     1       1.320   9.448  18.725  0.00  0.00    +0.000 A 
ATOM     27  C   UNL     1       0.622   9.788  19.891  0.00  0.00    +0.000 A 
BRANCH  22  29
ATOM     28  F   UNL     1      -0.613  10.603  22.222  0.00  0.00    +0.000 F 
ATOM     29  C   UNL     1      -0.030   9.373  22.291  0.00  0.00    +0.000 C 
ATOM     30  F   UNL     1       0.802   9.416  23.369  0.00  0.00    +0.000 F 
ATOM     31  F   UNL     1      -1.028   8.507  22.625  0.00  0.00    +0.000 F 
ENDBRANCH  22  29
ENDBRANCH  20  25
ENDBRANCH  19  20
ENDBRANCH   1  19
TORSDOF 6
ENDMDL
MODEL 2
REMARK VINA RESULT:      -8.6      0.148      1.114
REMARK  Name = 
REMARK  6 active torsions:
REMARK  status: ('A' for Active; 'I' for Inactive)
REMARK    1  A    between atoms: C_2  and  C_5
REMARK    2  A    between atoms: C_8  and  N_9
REMARK    3  A    between atoms: N_9  and  C_10
REMARK    4  A    between atoms: C_10  and  C_11
REMARK    5  A    between atoms: N_13  and  C_14
REMARK    6  A    between atoms: C_21  and  C_22
REMARK                            x       y       z     vdW  Elec       q    Type
REMARK                         _______ _______ _______ _____ _____    ______ ____
ROOT
ATOM      1  C   UNL     1       4.485   6.222  16.859  0.00  0.00    +0.000 A 
ATOM      2  C   UNL     1       5.168   6.260  15.662  0.00  0.00    +0.000 A 
ATOM      3  N   UNL     1       5.259   4.974  15.192  0.00  0.00    +0.000 N 
ATOM      4  N   UNL     1       4.629   4.104  16.018  0.00  0.00    +0.000 NA
ATOM      5  C   UNL     1       4.196   4.836  17.058  0.00  0.00    +0.000 A 
ENDROOT
BRANCH   5   6
ATOM      6  C   UNL     1       3.505   4.207  18.188  0.00  0.00    +0.000 A 
ATOM      7  C   UNL     1       4.228   3.509  19.171  0.00  0.00    +0.000 A 
ATOM      8  C   UNL     1       3.590   2.995  20.299  0.00  0.00    +0.000 A 
ATOM      9  C   UNL     1       2.216   3.138  20.440  0.00  0.00    +0.000 A 
ATOM     10 BR   UNL     1       1.358   2.466  21.984  0.00  0.00    +0.000 Br
ATOM     11  C   UNL     1       1.468   3.776  19.449  0.00  0.00    +0.000 A 
ATOM     12  C   UNL     1       2.114   4.307  18.325  0.00  0.00    +0.000 A 
ENDBRANCH   5   6
BRANCH   3  13
ATOM     13  C   UNL     1       5.921   4.539  14.009  0.00  0.00    +0.000 A 
ATOM     14  C   UNL     1       5.355   3.544  13.195  0.00  0.00    +0.000 A 
ATOM     15  C   UNL     1       6.002   3.138  12.026  0.00  0.00    +0.000 A 
ATOM     16  C   UNL     1       7.218   3.711  11.666  0.00  0.00    +0.000 A 
ATOM     17  C   UNL     1       7.790   4.695  12.472  0.00  0.00    +0.000 A 
ATOM     18  C   UNL     1       7.145   5.114  13.642  0.00  0.00    +0.000 A 
ENDBRANCH   3  13
BRANCH   1  19
ATOM     19  C   UNL     1       4.149   7.402  17.716  0.00  0.00    +0.000 C 
BRANCH  19  20
ATOM     20  N   UNL     1       2.747   7.805  17.682  0.00  0.00    +0.000 N 
ATOM     21  H   UNL     1       2.554   8.419  16.895  0.00  0.00    +0.000 HD
BRANCH  20  25
ATOM     22  C   UNL     1       0.612   9.027  21.130  0.00  0.00    +0.000 A 
ATOM     23  C   UNL     1       0.602   9.790  19.957  0.00  0.00    +0.000 A 
ATOM     24  C   UNL     1       1.336   9.380  18.837  0.00  0.00    +0.000 A 
ATOM     25  C   UNL     1       2.124   8.222  18.861  0.00  0.00    +0.000 A 
ATOM     26  C   UNL     1       2.130   7.467  20.039  0.00  0.00    +0.000 A 
ATOM     27  C   UNL     1       1.392   7.864  21.161  0.00  0.00    +0.000 A 
BRANCH  22  29
ATOM     28  F   UNL     1       0.505   9.571  23.470  0.00  0.00    +0.000 F 
ATOM     29  C   UNL     1      -0.220   9.414  22.327  0.00  0.00    +0.000 C 
ATOM     30  F   UNL     1      -1.179   8.493  22.618  0.00  0.00    +0.000 F 
ATOM     31  F   UNL     1      -0.879  10.593  22.141  0.00  0.00    +0.000 F 
ENDBRANCH  22  29
ENDBRANCH  20  25
ENDBRANCH  19  20
ENDBRANCH   1  19
TORSDOF 6
ENDMDL
MODEL 3
REMARK VINA RESULT:      -8.5      0.157      1.121
REMARK  Name = 
REMARK  6 active torsions:
REMARK  status: ('A' for Active; 'I' for Inactive)
REMARK    1  A    between atoms: C_2  and  C_5
REMARK    2  A    between atoms: C_8  and  N_9
REMARK    3  A    between atoms: N_9  and  C_10
REMARK    4  A    between atoms: C_10  and  C_11
REMARK    5  A    between atoms: N_13  and  C_14
REMARK    6  A    between atoms: C_21  and  C_22
REMARK                            x       y       z     vdW  Elec       q    Type
REMARK                         _______ _______ _______ _____ _____    ______ ____
ROOT
ATOM      1  C   UNL     1       4.487   6.353  16.864  0.00  0.00    +0.000 A 
ATOM      2  C   UNL     1       5.141   6.330  15.651  0.00  0.00    +0.000 A 
ATOM      3  N   UNL     1       5.209   5.023  15.237  0.00  0.00    +0.000 N 
ATOM      4  N   UNL     1       4.589   4.198  16.116  0.00  0.00    +0.000 NA
ATOM      5  C   UNL     1       4.189   4.982  17.131  0.00  0.00    +0.000 A 
ENDROOT
BRANCH   5   6
ATOM      6  C   UNL     1       3.518   4.411  18.305  0.00  0.00    +0.000 A 
ATOM      7  C   UNL     1       2.117   4.420  18.404  0.00  0.00    +0.000 A 
ATOM      8  C   UNL     1       1.469   3.791  19.466  0.00  0.00    +0.000 A 
ATOM      9  C   UNL     1       2.217   3.177  20.463  0.00  0.00    +0.000 A 
ATOM     10 BR   UNL     1       1.337   2.300  21.887  0.00  0.00    +0.000 Br
ATOM     11  C   UNL     1       3.611   3.206  20.417  0.00  0.00    +0.000 A 
ATOM     12  C   UNL     1       4.258   3.823  19.339  0.00  0.00    +0.000 A 
ENDBRANCH   5   6
BRANCH   3  13
ATOM     13  C   UNL     1       5.838   4.528  14.060  0.00  0.00    +0.000 A 
ATOM     14  C   UNL     1       5.207   3.560  13.262  0.00  0.00    +0.000 A 
ATOM     15  C   UNL     1       5.822   3.095  12.098  0.00  0.00    +0.000 A 
ATOM     16  C   UNL     1       7.072   3.582  11.728  0.00  0.00    +0.000 A 
ATOM     17  C   UNL     1       7.708   4.540  12.518  0.00  0.00    +0.000 A 
ATOM     18  C   UNL     1       7.095   5.017  13.681  0.00  0.00    +0.000 A 
ENDBRANCH   3  13
BRANCH   1  19
ATOM     19  C   UNL     1       4.182   7.574  17.673  0.00  0.00    +0.000 C 
BRANCH  19  20
ATOM     20  N   UNL     1       2.846   8.126  17.473  0.00  0.00    +0.000 N 
ATOM     21  H   UNL     1       2.853   8.886  16.799  0.00  0.00    +0.000 HD
BRANCH  20  25
ATOM     22  C   UNL     1       0.640   8.997  20.983  0.00  0.00    +0.000 A 
ATOM     23  C   UNL     1       1.469   7.873  20.902  0.00  0.00    +0.000 A 
ATOM     24  C   UNL     1       2.170   7.590  19.724  0.00  0.00    +0.000 A 
ATOM     25  C   UNL     1       2.041   8.394  18.583  0.00  0.00    +0.000 A 
ATOM     26  C   UNL     1       1.207   9.515  18.673  0.00  0.00    +0.000 A 
ATOM     27  C   UNL     1       0.510   9.810  19.850  0.00  0.00    +0.000 A 
BRANCH  22  29
ATOM     28  F   UNL     1       0.754   9.468  23.337  0.00  0.00    +0.000 F 
ATOM     29  C   UNL     1      -0.074   9.356  22.261  0.00  0.00    +0.000 C 
ATOM     30  F   UNL     1      -1.016   8.437  22.610  0.00  0.00    +0.000 F 
ATOM     31  F   UNL     1      -0.730  10.548  22.173  0.00  0.00    +0.000 F 
ENDBRANCH  22  29
ENDBRANCH  20  25
ENDBRANCH  19  20
ENDBRANCH   1  19
TORSDOF 6
ENDMDL
MODEL 4
REMARK VINA RESULT:      -8.5      0.191      1.258
REMARK  Name = 
REMARK  6 active torsions:
REMARK  status: ('A' for Active; 'I' for Inactive)
REMARK    1  A    between atoms: C_2  and  C_5
REMARK    2  A    between atoms: C_8  and  N_9
REMARK    3  A    between atoms: N_9  and  C_10
REMARK    4  A    between atoms: C_10  and  C_11
REMARK    5  A    between atoms: N_13  and  C_14
REMARK    6  A    between atoms: C_21  and  C_22
REMARK                            x       y       z     vdW  Elec       q    Type
REMARK                         _______ _______ _______ _____ _____    ______ ____
ROOT
ATOM      1  C   UNL     1       4.558   6.127  16.751  0.00  0.00    +0.000 A 
ATOM      2  C   UNL     1       5.212   6.141  15.538  0.00  0.00    +0.000 A 
ATOM      3  N   UNL     1       5.256   4.851  15.072  0.00  0.00    +0.000 N 
ATOM      4  N   UNL     1       4.623   4.002  15.918  0.00  0.00    +0.000 NA
ATOM      5  C   UNL     1       4.236   4.751  16.964  0.00  0.00    +0.000 A 
ENDROOT
BRANCH   5   6
ATOM      6  C   UNL     1       3.556   4.146  18.115  0.00  0.00    +0.000 A 
ATOM      7  C   UNL     1       4.289   3.469  19.105  0.00  0.00    +0.000 A 
ATOM      8  C   UNL     1       3.663   2.979  20.250  0.00  0.00    +0.000 A 
ATOM      9  C   UNL     1       2.290   3.127  20.402  0.00  0.00    +0.000 A 
ATOM     10 BR   UNL     1       1.448   2.488  21.969  0.00  0.00    +0.000 Br
ATOM     11  C   UNL     1       1.533   3.744  19.406  0.00  0.00    +0.000 A 
ATOM     12  C   UNL     1       2.167   4.251  18.264  0.00  0.00    +0.000 A 
ENDBRANCH   5   6
BRANCH   3  13
ATOM     13  C   UNL     1       5.877   4.392  13.876  0.00  0.00    +0.000 A 
ATOM     14  C   UNL     1       7.113   4.916  13.464  0.00  0.00    +0.000 A 
ATOM     15  C   UNL     1       7.725   4.445  12.300  0.00  0.00    +0.000 A 
ATOM     16  C   UNL     1       7.106   3.461  11.535  0.00  0.00    +0.000 A 
ATOM     17  C   UNL     1       5.876   2.940  11.935  0.00  0.00    +0.000 A 
ATOM     18  C   UNL     1       5.259   3.399  13.104  0.00  0.00    +0.000 A 
ENDBRANCH   3  13
BRANCH   1  19
ATOM     19  C   UNL     1       4.275   7.320  17.609  0.00  0.00    +0.000 C 
BRANCH  19  20
ATOM     20  N   UNL     1       2.902   7.812  17.542  0.00  0.00    +0.000 N 
ATOM     21  H   UNL     1       2.781   8.478  16.785  0.00  0.00    +0.000 HD
BRANCH  20  25
ATOM     22  C   UNL     1       0.699   8.954  20.976  0.00  0.00    +0.000 A 
ATOM     23  C   UNL     1       0.691   9.731  19.811  0.00  0.00    +0.000 A 
ATOM     24  C   UNL     1       1.447   9.348  18.697  0.00  0.00    +0.000 A 
ATOM     25  C   UNL     1       2.256   8.204  18.718  0.00  0.00    +0.000 A 
ATOM     26  C   UNL     1       2.259   7.435  19.888  0.00  0.00    +0.000 A 
ATOM     27  C   UNL     1       1.500   7.806  21.004  0.00  0.00    +0.000 A 
BRANCH  22  29
ATOM     28  F   UNL     1      -0.865  10.465  22.001  0.00  0.00    +0.000 F 
ATOM     29  C   UNL     1      -0.156   9.313  22.165  0.00  0.00    +0.000 C 
ATOM     30  F   UNL     1       0.574   9.484  23.301  0.00  0.00    +0.000 F 
ATOM     31  F   UNL     1      -1.075   8.349  22.453  0.00  0.00    +0.000 F 
ENDBRANCH  22  29
ENDBRANCH  20  25
ENDBRANCH  19  20
ENDBRANCH   1  19
TORSDOF 6
ENDMDL
MODEL 5
REMARK VINA RESULT:      -8.5      0.199      1.259
REMARK  Name = 
REMARK  6 active torsions:
REMARK  status: ('A' for Active; 'I' for Inactive)
REMARK    1  A    between atoms: C_2  and  C_5
REMARK    2  A    between atoms: C_8  and  N_9
REMARK    3  A    between atoms: N_9  and  C_10
REMARK    4  A    between atoms: C_10  and  C_11
REMARK    5  A    between atoms: N_13  and  C_14
REMARK    6  A    between atoms: C_21  and  C_22
REMARK                            x       y       z     vdW  Elec       q    Type
REMARK                         _______ _______ _______ _____ _____    ______ ____
ROOT
ATOM      1  C   UNL     1       4.476   6.408  16.907  0.00  0.00    +0.000 A 
ATOM      2  C   UNL     1       5.133   6.400  15.695  0.00  0.00    +0.000 A 
ATOM      3  N   UNL     1       5.221   5.096  15.276  0.00  0.00    +0.000 N 
ATOM      4  N   UNL     1       4.612   4.258  16.150  0.00  0.00    +0.000 NA
ATOM      5  C   UNL     1       4.198   5.030  17.168  0.00  0.00    +0.000 A 
ENDROOT
BRANCH   5   6
ATOM      6  C   UNL     1       3.535   4.444  18.338  0.00  0.00    +0.000 A 
ATOM      7  C   UNL     1       2.144   4.554  18.502  0.00  0.00    +0.000 A 
ATOM      8  C   UNL     1       1.494   3.914  19.557  0.00  0.00    +0.000 A 
ATOM      9  C   UNL     1       2.232   3.188  20.483  0.00  0.00    +0.000 A 
ATOM     10 BR   UNL     1       1.347   2.298  21.895  0.00  0.00    +0.000 Br
ATOM     11  C   UNL     1       3.621   3.113  20.374  0.00  0.00    +0.000 A 
ATOM     12  C   UNL     1       4.269   3.742  19.303  0.00  0.00    +0.000 A 
ENDBRANCH   5   6
BRANCH   3  13
ATOM     13  C   UNL     1       5.859   4.616  14.098  0.00  0.00    +0.000 A 
ATOM     14  C   UNL     1       7.133   5.081  13.733  0.00  0.00    +0.000 A 
ATOM     15  C   UNL     1       7.762   4.590  12.587  0.00  0.00    +0.000 A 
ATOM     16  C   UNL     1       7.122   3.642  11.793  0.00  0.00    +0.000 A 
ATOM     17  C   UNL     1       5.855   3.179  12.145  0.00  0.00    +0.000 A 
ATOM     18  C   UNL     1       5.221   3.660  13.296  0.00  0.00    +0.000 A 
ENDBRANCH   3  13
BRANCH   1  19
ATOM     19  C   UNL     1       4.151   7.620  17.722  0.00  0.00    +0.000 C 
BRANCH  19  20
ATOM     20  N   UNL     1       2.810   8.156  17.517  0.00  0.00    +0.000 N 
ATOM     21  H   UNL     1       2.807   8.904  16.829  0.00  0.00    +0.000 HD
BRANCH  20  25
ATOM     22  C   UNL     1       0.608   9.067  21.020  0.00  0.00    +0.000 A 
ATOM     23  C   UNL     1       1.435   7.939  20.949  0.00  0.00    +0.000 A 
ATOM     24  C   UNL     1       2.134   7.643  19.773  0.00  0.00    +0.000 A 
ATOM     25  C   UNL     1       2.006   8.437  18.625  0.00  0.00    +0.000 A 
ATOM     26  C   UNL     1       1.175   9.560  18.705  0.00  0.00    +0.000 A 
ATOM     27  C   UNL     1       0.480   9.869  19.880  0.00  0.00    +0.000 A 
BRANCH  22  29
ATOM     28  F   UNL     1      -0.751  10.638  22.230  0.00  0.00    +0.000 F 
ATOM     29  C   UNL     1      -0.103   9.440  22.295  0.00  0.00    +0.000 C 
ATOM     30  F   UNL     1       0.742   9.532  23.359  0.00  0.00    +0.000 F 
ATOM     31  F   UNL     1      -1.050   8.526  22.649  0.00  0.00    +0.000 F 
ENDBRANCH  22  29
ENDBRANCH  20  25
ENDBRANCH  19  20
ENDBRANCH   1  19
TORSDOF 6
ENDMDL
MODEL 6
REMARK VINA RESULT:      -8.4      0.287      1.114
REMARK  Name = 
REMARK  6 active torsions:
REMARK  status: ('A' for Active; 'I' for Inactive)
REMARK    1  A    between atoms: C_2  and  C_5
REMARK    2  A    between atoms: C_8  and  N_9
REMARK    3  A    between atoms: N_9  and  C_10
REMARK    4  A    between atoms: C_10  and  C_11
REMARK    5  A    between atoms: N_13  and  C_14
REMARK    6  A    between atoms: C_21  and  C_22
REMARK                            x       y       z     vdW  Elec       q    Type
REMARK                         _______ _______ _______ _____ _____    ______ ____
ROOT
ATOM      1  C   UNL     1       4.400   6.335  16.993  0.00  0.00    +0.000 A 
ATOM      2  C   UNL     1       5.105   6.402  15.811  0.00  0.00    +0.000 A 
ATOM      3  N   UNL     1       5.239   5.122  15.331  0.00  0.00    +0.000 N 
ATOM      4  N   UNL     1       4.616   4.229  16.138  0.00  0.00    +0.000 NA
ATOM      5  C   UNL     1       4.144   4.941  17.175  0.00  0.00    +0.000 A 
ENDROOT
BRANCH   5   6
ATOM      6  C   UNL     1       3.448   4.284  18.286  0.00  0.00    +0.000 A 
ATOM      7  C   UNL     1       4.161   3.528  19.232  0.00  0.00    +0.000 A 
ATOM      8  C   UNL     1       3.522   2.984  20.345  0.00  0.00    +0.000 A 
ATOM      9  C   UNL     1       2.153   3.158  20.507  0.00  0.00    +0.000 A 
ATOM     10 BR   UNL     1       1.294   2.446  22.032  0.00  0.00    +0.000 Br
ATOM     11  C   UNL     1       1.413   3.856  19.552  0.00  0.00    +0.000 A 
ATOM     12  C   UNL     1       2.062   4.416  18.443  0.00  0.00    +0.000 A 
ENDBRANCH   5   6
BRANCH   3  13
ATOM     13  C   UNL     1       5.936   4.715  14.159  0.00  0.00    +0.000 A 
ATOM     14  C   UNL     1       7.176   5.284  13.828  0.00  0.00    +0.000 A 
ATOM     15  C   UNL     1       7.862   4.863  12.687  0.00  0.00    +0.000 A 
ATOM     16  C   UNL     1       7.313   3.885  11.864  0.00  0.00    +0.000 A 
ATOM     17  C   UNL     1       6.079   3.319  12.182  0.00  0.00    +0.000 A 
ATOM     18  C   UNL     1       5.388   3.728  13.328  0.00  0.00    +0.000 A 
ENDBRANCH   3  13
BRANCH   1  19
ATOM     19  C   UNL     1       4.016   7.499  17.852  0.00  0.00    +0.000 C 
BRANCH  19  20
ATOM     20  N   UNL     1       2.641   7.957  17.685  0.00  0.00    +0.000 N 
ATOM     21  H   UNL     1       2.559   8.619  16.918  0.00  0.00    +0.000 HD
BRANCH  20  25
ATOM     22  C   UNL     1       0.645   9.175  21.218  0.00  0.00    +0.000 A 
ATOM     23  C   UNL     1       1.461   8.038  21.195  0.00  0.00    +0.000 A 
ATOM     24  C   UNL     1       2.091   7.639  20.011  0.00  0.00    +0.000 A 
ATOM     25  C   UNL     1       1.903   8.337  18.810  0.00  0.00    +0.000 A 
ATOM     26  C   UNL     1       1.084   9.471  18.842  0.00  0.00    +0.000 A 
ATOM     27  C   UNL     1       0.457   9.882  20.024  0.00  0.00    +0.000 A 
BRANCH  22  29
ATOM     28  F   UNL     1      -1.201   9.087  22.755  0.00  0.00    +0.000 F 
ATOM     29  C   UNL     1       0.008   9.659  22.496  0.00  0.00    +0.000 C 
ATOM     30  F   UNL     1      -0.208  11.003  22.496  0.00  0.00    +0.000 F 
ATOM     31  F   UNL     1       0.780   9.405  23.590  0.00  0.00    +0.000 F 
ENDBRANCH  22  29
ENDBRANCH  20  25
ENDBRANCH  19  20
ENDBRANCH   1  19
TORSDOF 6
ENDMDL
MODEL 7
REMARK VINA RESULT:      -8.1      4.344      6.808
REMARK  Name = 
REMARK  6 active torsions:
REMARK  status: ('A' for Active; 'I' for Inactive)
REMARK    1  A    between atoms: C_2  and  C_5
REMARK    2  A    between atoms: C_8  and  N_9
REMARK    3  A    between atoms: N_9  and  C_10
REMARK    4  A    between atoms: C_10  and  C_11
REMARK    5  A    between atoms: N_13  and  C_14
REMARK    6  A    between atoms: C_21  and  C_22
REMARK                            x       y       z     vdW  Elec       q    Type
REMARK                         _______ _______ _______ _____ _____    ______ ____
ROOT
ATOM      1  C   UNL     1       7.688   6.258  18.446  0.00  0.00    +0.000 A 
ATOM      2  C   UNL     1       8.203   7.362  19.090  0.00  0.00    +0.000 A 
ATOM      3  N   UNL     1       8.186   8.409  18.202  0.00  0.00    +0.000 N 
ATOM      4  N   UNL     1       7.644   8.038  17.017  0.00  0.00    +0.000 NA
ATOM      5  C   UNL     1       7.381   6.725  17.131  0.00  0.00    +0.000 A 
ENDROOT
BRANCH   5   6
ATOM      6  C   UNL     1       6.829   5.966  16.004  0.00  0.00    +0.000 A 
ATOM      7  C   UNL     1       7.673   5.241  15.146  0.00  0.00    +0.000 A 
ATOM      8  C   UNL     1       7.149   4.437  14.135  0.00  0.00    +0.000 A 
ATOM      9  C   UNL     1       5.774   4.378  13.945  0.00  0.00    +0.000 A 
ATOM     10 BR   UNL     1       5.063   3.265  12.592  0.00  0.00    +0.000 Br
ATOM     11  C   UNL     1       4.918   5.134  14.746  0.00  0.00    +0.000 A 
ATOM     12  C   UNL     1       5.448   5.927  15.773  0.00  0.00    +0.000 A 
ENDBRANCH   5   6
BRANCH   3  13
ATOM     13  C   UNL     1       8.667   9.730  18.425  0.00  0.00    +0.000 A 
ATOM     14  C   UNL     1       8.354  10.768  17.533  0.00  0.00    +0.000 A 
ATOM     15  C   UNL     1       8.813  12.065  17.771  0.00  0.00    +0.000 A 
ATOM     16  C   UNL     1       9.594  12.334  18.891  0.00  0.00    +0.000 A 
ATOM     17  C   UNL     1       9.915  11.308  19.779  0.00  0.00    +0.000 A 
ATOM     18  C   UNL     1       9.452  10.007  19.553  0.00  0.00    +0.000 A 
ENDBRANCH   3  13
BRANCH   1  19
ATOM     19  C   UNL     1       7.510   4.897  19.044  0.00  0.00    +0.000 C 
BRANCH  19  20
ATOM     20  N   UNL     1       6.475   4.082  18.417  0.00  0.00    +0.000 N 
ATOM     21  H   UNL     1       6.400   4.274  17.422  0.00  0.00    +0.000 HD
BRANCH  20  25
ATOM     22  C   UNL     1       2.583   3.786  20.064  0.00  0.00    +0.000 A 
ATOM     23  C   UNL     1       3.149   5.026  19.746  0.00  0.00    +0.000 A 
ATOM     24  C   UNL     1       4.447   5.103  19.227  0.00  0.00    +0.000 A 
ATOM     25  C   UNL     1       5.230   3.956  19.039  0.00  0.00    +0.000 A 
ATOM     26  C   UNL     1       4.656   2.721  19.362  0.00  0.00    +0.000 A 
ATOM     27  C   UNL     1       3.356   2.634  19.874  0.00  0.00    +0.000 A 
BRANCH  22  29
ATOM     28  F   UNL     1       0.339   2.997  19.721  0.00  0.00    +0.000 F 
ATOM     29  C   UNL     1       1.166   3.675  20.565  0.00  0.00    +0.000 C 
ATOM     30  F   UNL     1       0.583   4.890  20.760  0.00  0.00    +0.000 F 
ATOM     31  F   UNL     1       1.086   3.027  21.762  0.00  0.00    +0.000 F 
ENDBRANCH  22  29
ENDBRANCH  20  25
ENDBRANCH  19  20
ENDBRANCH   1  19
TORSDOF 6
ENDMDL
MODEL 8
REMARK VINA RESULT:      -8.1      4.353      6.743
REMARK  Name = 
REMARK  6 active torsions:
REMARK  status: ('A' for Active; 'I' for Inactive)
REMARK    1  A    between atoms: C_2  and  C_5
REMARK    2  A    between atoms: C_8  and  N_9
REMARK    3  A    between atoms: N_9  and  C_10
REMARK    4  A    between atoms: C_10  and  C_11
REMARK    5  A    between atoms: N_13  and  C_14
REMARK    6  A    between atoms: C_21  and  C_22
REMARK                            x       y       z     vdW  Elec       q    Type
REMARK                         _______ _______ _______ _____ _____    ______ ____
ROOT
ATOM      1  C   UNL     1       7.646   6.280  18.536  0.00  0.00    +0.000 A 
ATOM      2  C   UNL     1       8.163   7.420  19.115  0.00  0.00    +0.000 A 
ATOM      3  N   UNL     1       8.150   8.413  18.168  0.00  0.00    +0.000 N 
ATOM      4  N   UNL     1       7.610   7.974  17.005  0.00  0.00    +0.000 NA
ATOM      5  C   UNL     1       7.344   6.671  17.195  0.00  0.00    +0.000 A 
ENDROOT
BRANCH   5   6
ATOM      6  C   UNL     1       6.792   5.848  16.113  0.00  0.00    +0.000 A 
ATOM      7  C   UNL     1       5.415   5.866  15.831  0.00  0.00    +0.000 A 
ATOM      8  C   UNL     1       4.898   5.166  14.742  0.00  0.00    +0.000 A 
ATOM      9  C   UNL     1       5.746   4.409  13.944  0.00  0.00    +0.000 A 
ATOM     10 BR   UNL     1       5.047   3.484  12.451  0.00  0.00    +0.000 Br
ATOM     11  C   UNL     1       7.107   4.329  14.238  0.00  0.00    +0.000 A 
ATOM     12  C   UNL     1       7.627   5.048  15.322  0.00  0.00    +0.000 A 
ENDBRANCH   5   6
BRANCH   3  13
ATOM     13  C   UNL     1       8.633   9.744  18.315  0.00  0.00    +0.000 A 
ATOM     14  C   UNL     1       8.149  10.777  17.496  0.00  0.00    +0.000 A 
ATOM     15  C   UNL     1       8.613  12.083  17.661  0.00  0.00    +0.000 A 
ATOM     16  C   UNL     1       9.569  12.366  18.633  0.00  0.00    +0.000 A 
ATOM     17  C   UNL     1      10.060  11.345  19.445  0.00  0.00    +0.000 A 
ATOM     18  C   UNL     1       9.594  10.035  19.293  0.00  0.00    +0.000 A 
ENDBRANCH   3  13
BRANCH   1  19
ATOM     19  C   UNL     1       7.464   4.958  19.212  0.00  0.00    +0.000 C 
BRANCH  19  20
ATOM     20  N   UNL     1       6.545   4.046  18.539  0.00  0.00    +0.000 N 
ATOM     21  H   UNL     1       6.662   4.075  17.530  0.00  0.00    +0.000 HD
BRANCH  20  25
ATOM     22  C   UNL     1       2.554   3.794  19.938  0.00  0.00    +0.000 A 
ATOM     23  C   UNL     1       3.228   2.671  19.446  0.00  0.00    +0.000 A 
ATOM     24  C   UNL     1       4.537   2.782  18.965  0.00  0.00    +0.000 A 
ATOM     25  C   UNL     1       5.203   4.014  18.928  0.00  0.00    +0.000 A 
ATOM     26  C   UNL     1       4.520   5.133  19.420  0.00  0.00    +0.000 A 
ATOM     27  C   UNL     1       3.213   5.030  19.911  0.00  0.00    +0.000 A 
BRANCH  22  29
ATOM     28  F   UNL     1       0.548   4.890  20.684  0.00  0.00    +0.000 F 
ATOM     29  C   UNL     1       1.167   3.687  20.520  0.00  0.00    +0.000 C 
ATOM     30  F   UNL     1       1.158   3.093  21.745  0.00  0.00    +0.000 F 
ATOM     31  F   UNL     1       0.333   2.944  19.739  0.00  0.00    +0.000 F 
ENDBRANCH  22  29
ENDBRANCH  20  25
ENDBRANCH  19  20
ENDBRANCH   1  19
TORSDOF 6
ENDMDL
MODEL 9
REMARK VINA RESULT:      -8.0      4.328      6.718
REMARK  Name = 
REMARK  6 active torsions:
REMARK  status: ('A' for Active; 'I' for Inactive)
REMARK    1  A    between atoms: C_2  and  C_5
REMARK    2  A    between atoms: C_8  and  N_9
REMARK    3  A    between atoms: N_9  and  C_10
REMARK    4  A    between atoms: C_10  and  C_11
REMARK    5  A    between atoms: N_13  and  C_14
REMARK    6  A    between atoms: C_21  and  C_22
REMARK                            x       y       z     vdW  Elec       q    Type
REMARK                         _______ _______ _______ _____ _____    ______ ____
ROOT
ATOM      1  C   UNL     1       7.718   6.256  18.431  0.00  0.00    +0.000 A 
ATOM      2  C   UNL     1       8.228   7.361  19.079  0.00  0.00    +0.000 A 
ATOM      3  N   UNL     1       8.192   8.414  18.200  0.00  0.00    +0.000 N 
ATOM      4  N   UNL     1       7.643   8.047  17.017  0.00  0.00    +0.000 NA
ATOM      5  C   UNL     1       7.395   6.730  17.123  0.00  0.00    +0.000 A 
ENDROOT
BRANCH   5   6
ATOM      6  C   UNL     1       6.839   5.975  15.995  0.00  0.00    +0.000 A 
ATOM      7  C   UNL     1       7.677   5.217  15.159  0.00  0.00    +0.000 A 
ATOM      8  C   UNL     1       7.146   4.417  14.147  0.00  0.00    +0.000 A 
ATOM      9  C   UNL     1       5.773   4.394  13.936  0.00  0.00    +0.000 A 
ATOM     10 BR   UNL     1       5.054   3.287  12.584  0.00  0.00    +0.000 Br
ATOM     11  C   UNL     1       4.926   5.182  14.716  0.00  0.00    +0.000 A 
ATOM     12  C   UNL     1       5.461   5.971  15.742  0.00  0.00    +0.000 A 
ENDBRANCH   5   6
BRANCH   3  13
ATOM     13  C   UNL     1       8.661   9.738  18.429  0.00  0.00    +0.000 A 
ATOM     14  C   UNL     1       9.465  10.031  19.543  0.00  0.00    +0.000 A 
ATOM     15  C   UNL     1       9.938  11.329  19.750  0.00  0.00    +0.000 A 
ATOM     16  C   UNL     1       9.606  12.343  18.856  0.00  0.00    +0.000 A 
ATOM     17  C   UNL     1       8.804  12.061  17.751  0.00  0.00    +0.000 A 
ATOM     18  C   UNL     1       8.332  10.762  17.531  0.00  0.00    +0.000 A 
ENDBRANCH   3  13
BRANCH   1  19
ATOM     19  C   UNL     1       7.561   4.889  19.020  0.00  0.00    +0.000 C 
BRANCH  19  20
ATOM     20  N   UNL     1       6.566   4.049  18.361  0.00  0.00    +0.000 N 
ATOM     21  H   UNL     1       6.632   4.115  17.349  0.00  0.00    +0.000 HD
BRANCH  20  25
ATOM     22  C   UNL     1       2.655   3.958  19.986  0.00  0.00    +0.000 A 
ATOM     23  C   UNL     1       3.317   2.783  19.609  0.00  0.00    +0.000 A 
ATOM     24  C   UNL     1       4.599   2.838  19.050  0.00  0.00    +0.000 A 
ATOM     25  C   UNL     1       5.246   4.060  18.820  0.00  0.00    +0.000 A 
ATOM     26  C   UNL     1       4.576   5.229  19.197  0.00  0.00    +0.000 A 
ATOM     27  C   UNL     1       3.297   5.183  19.765  0.00  0.00    +0.000 A 
BRANCH  22  29
ATOM     28  F   UNL     1       0.775   5.152  20.891  0.00  0.00    +0.000 F 
ATOM     29  C   UNL     1       1.301   3.919  20.647  0.00  0.00    +0.000 C 
ATOM     30  F   UNL     1       1.324   3.280  21.849  0.00  0.00    +0.000 F 
ATOM     31  F   UNL     1       0.373   3.263  19.894  0.00  0.00    +0.000 F 
ENDBRANCH  22  29
ENDBRANCH  20  25
ENDBRANCH  19  20
ENDBRANCH   1  19
TORSDOF 6
ENDMDL
