MODEL 1
REMARK VINA RESULT:      -7.1      0.000      0.000
REMARK  Name = 
REMARK  3 active torsions:
REMARK  status: ('A' for Active; 'I' for Inactive)
REMARK    1  A    between atoms: C_2  and  C_5
REMARK    2  A    between atoms: C_9  and  N_10
REMARK    3  A    between atoms: N_11  and  C_12
REMARK                            x       y       z     vdW  Elec       q    Type
REMARK                         _______ _______ _______ _____ _____    ______ ____
ROOT
ATOM      1  N   UNL     1       6.098   5.997  16.036  0.00  0.00    +0.000 NA
ATOM      2  N   UNL     1       4.848   5.950  16.053  0.00  0.00    +0.000 NA
ENDROOT
BRANCH   2   3
ATOM      3  C   UNL     1       3.980   6.131  17.108  0.00  0.00    +0.000 C 
ATOM      4  C   UNL     1       3.520   5.070  17.828  0.00  0.00    +0.000 C 
ATOM      5  C   UNL     1       3.819   3.641  17.388  0.00  0.00    +0.000 C 
ATOM      6  C   UNL     1       4.021   2.677  18.556  0.00  0.00    +0.000 C 
ATOM      7  C   UNL     1       2.850   2.778  19.521  0.00  0.00    +0.000 C 
ATOM      8  C   UNL     1       2.747   4.194  20.064  0.00  0.00    +0.000 C 
ATOM      9  N   UNL     1       2.742   5.220  19.001  0.00  0.00    +0.000 N 
ATOM     10  C   UNL     1       2.482   6.565  19.543  0.00  0.00    +0.000 C 
ATOM     11  C   UNL     1       2.409   7.587  18.425  0.00  0.00    +0.000 C 
ATOM     12  C   UNL     1       3.687   7.534  17.594  0.00  0.00    +0.000 C 
ENDBRANCH   2   3
BRANCH   1  17
ATOM     13  C   UNL     1       8.154   8.271  18.202  0.00  0.00    +0.000 A 
ATOM     14  C   UNL     1       8.539   7.359  19.196  0.00  0.00    +0.000 A 
ATOM     15  C   UNL     1       8.124   6.032  19.132  0.00  0.00    +0.000 A 
ATOM     16  C   UNL     1       7.304   5.614  18.082  0.00  0.00    +0.000 A 
ATOM     17  C   UNL     1       6.873   6.511  17.091  0.00  0.00    +0.000 A 
ATOM     18  C   UNL     1       7.324   7.833  17.153  0.00  0.00    +0.000 A 
BRANCH  13  20
ATOM     19  F   UNL     1       9.742   9.942  17.535  0.00  0.00    +0.000 F 
ATOM     20  C   UNL     1       8.601   9.709  18.243  0.00  0.00    +0.000 C 
ATOM     21  F   UNL     1       8.854  10.138  19.510  0.00  0.00    +0.000 F 
ATOM     22  F   UNL     1       7.669  10.562  17.734  0.00  0.00    +0.000 F 
ENDBRANCH  13  20
ENDBRANCH   1  17
TORSDOF 3
ENDMDL
MODEL 2
REMARK VINA RESULT:      -7.0      4.283      6.721
REMARK  Name = 
REMARK  3 active torsions:
REMARK  status: ('A' for Active; 'I' for Inactive)
REMARK    1  A    between atoms: C_2  and  C_5
REMARK    2  A    between atoms: C_9  and  N_10
REMARK    3  A    between atoms: N_11  and  C_12
REMARK                            x       y       z     vdW  Elec       q    Type
REMARK                         _______ _______ _______ _____ _____    ______ ____
ROOT
ATOM      1  N   UNL     1       2.363   6.086  17.967  0.00  0.00    +0.000 NA
ATOM      2  N   UNL     1       3.490   6.479  17.593  0.00  0.00    +0.000 NA
ENDROOT
BRANCH   2   3
ATOM      3  C   UNL     1       4.728   5.906  17.794  0.00  0.00    +0.000 C 
ATOM      4  C   UNL     1       5.362   5.236  16.791  0.00  0.00    +0.000 C 
ATOM      5  C   UNL     1       4.653   4.957  15.470  0.00  0.00    +0.000 C 
ATOM      6  C   UNL     1       5.584   5.005  14.261  0.00  0.00    +0.000 C 
ATOM      7  C   UNL     1       6.791   4.110  14.499  0.00  0.00    +0.000 C 
ATOM      8  C   UNL     1       7.553   4.582  15.726  0.00  0.00    +0.000 C 
ATOM      9  N   UNL     1       6.687   4.755  16.911  0.00  0.00    +0.000 N 
ATOM     10  C   UNL     1       7.472   5.058  18.120  0.00  0.00    +0.000 C 
ATOM     11  C   UNL     1       6.568   5.156  19.334  0.00  0.00    +0.000 C 
ATOM     12  C   UNL     1       5.476   6.189  19.079  0.00  0.00    +0.000 C 
ENDBRANCH   2   3
BRANCH   1  17
ATOM     13  C   UNL     1       1.990   3.150  20.274  0.00  0.00    +0.000 A 
ATOM     14  C   UNL     1       1.739   2.142  19.330  0.00  0.00    +0.000 A 
ATOM     15  C   UNL     1       1.703   2.446  17.971  0.00  0.00    +0.000 A 
ATOM     16  C   UNL     1       1.898   3.764  17.552  0.00  0.00    +0.000 A 
ATOM     17  C   UNL     1       2.116   4.799  18.475  0.00  0.00    +0.000 A 
ATOM     18  C   UNL     1       2.180   4.472  19.833  0.00  0.00    +0.000 A 
BRANCH  13  20
ATOM     19  F   UNL     1       0.871   2.370  22.249  0.00  0.00    +0.000 F 
ATOM     20  C   UNL     1       2.046   2.843  21.748  0.00  0.00    +0.000 C 
ATOM     21  F   UNL     1       2.355   3.939  22.494  0.00  0.00    +0.000 F 
ATOM     22  F   UNL     1       2.984   1.903  22.052  0.00  0.00    +0.000 F 
ENDBRANCH  13  20
ENDBRANCH   1  17
TORSDOF 3
ENDMDL
MODEL 3
REMARK VINA RESULT:      -6.9      1.013      1.444
REMARK  Name = 
REMARK  3 active torsions:
REMARK  status: ('A' for Active; 'I' for Inactive)
REMARK    1  A    between atoms: C_2  and  C_5
REMARK    2  A    between atoms: C_9  and  N_10
REMARK    3  A    between atoms: N_11  and  C_12
REMARK                            x       y       z     vdW  Elec       q    Type
REMARK                         _______ _______ _______ _____ _____    ______ ____
ROOT
ATOM      1  N   UNL     1       5.296   4.951  16.548  0.00  0.00    +0.000 NA
ATOM      2  N   UNL     1       4.062   5.128  16.649  0.00  0.00    +0.000 NA
ENDROOT
BRANCH   2   3
ATOM      3  C   UNL     1       3.339   5.679  17.685  0.00  0.00    +0.000 C 
ATOM      4  C   UNL     1       2.763   4.891  18.636  0.00  0.00    +0.000 C 
ATOM      5  C   UNL     1       2.759   3.373  18.493  0.00  0.00    +0.000 C 
ATOM      6  C   UNL     1       2.890   2.639  19.826  0.00  0.00    +0.000 C 
ATOM      7  C   UNL     1       1.848   3.155  20.807  0.00  0.00    +0.000 C 
ATOM      8  C   UNL     1       2.050   4.643  21.043  0.00  0.00    +0.000 C 
ATOM      9  N   UNL     1       2.133   5.419  19.789  0.00  0.00    +0.000 N 
ATOM     10  C   UNL     1       2.169   6.869  20.046  0.00  0.00    +0.000 C 
ATOM     11  C   UNL     1       2.180   7.644  18.743  0.00  0.00    +0.000 C 
ATOM     12  C   UNL     1       3.348   7.180  17.878  0.00  0.00    +0.000 C 
ENDBRANCH   2   3
BRANCH   1  17
ATOM     13  C   UNL     1       7.730   7.338  18.116  0.00  0.00    +0.000 A 
ATOM     14  C   UNL     1       8.238   6.518  19.135  0.00  0.00    +0.000 A 
ATOM     15  C   UNL     1       7.777   5.212  19.281  0.00  0.00    +0.000 A 
ATOM     16  C   UNL     1       6.792   4.726  18.418  0.00  0.00    +0.000 A 
ATOM     17  C   UNL     1       6.240   5.535  17.412  0.00  0.00    +0.000 A 
ATOM     18  C   UNL     1       6.735   6.833  17.259  0.00  0.00    +0.000 A 
BRANCH  13  20
ATOM     19  F   UNL     1       7.217   9.661  17.799  0.00  0.00    +0.000 F 
ATOM     20  C   UNL     1       8.222   8.751  17.931  0.00  0.00    +0.000 C 
ATOM     21  F   UNL     1       8.999   8.889  16.822  0.00  0.00    +0.000 F 
ATOM     22  F   UNL     1       8.979   9.183  18.978  0.00  0.00    +0.000 F 
ENDBRANCH  13  20
ENDBRANCH   1  17
TORSDOF 3
ENDMDL
MODEL 4
REMARK VINA RESULT:      -6.9      3.441      5.795
REMARK  Name = 
REMARK  3 active torsions:
REMARK  status: ('A' for Active; 'I' for Inactive)
REMARK    1  A    between atoms: C_2  and  C_5
REMARK    2  A    between atoms: C_9  and  N_10
REMARK    3  A    between atoms: N_11  and  C_12
REMARK                            x       y       z     vdW  Elec       q    Type
REMARK                         _______ _______ _______ _____ _____    ______ ____
ROOT
ATOM      1  N   UNL     1       3.141   4.373  19.094  0.00  0.00    +0.000 NA
ATOM      2  N   UNL     1       4.308   3.928  19.009  0.00  0.00    +0.000 NA
ENDROOT
BRANCH   2   3
ATOM      3  C   UNL     1       5.462   4.569  18.613  0.00  0.00    +0.000 C 
ATOM      4  C   UNL     1       5.885   4.516  17.318  0.00  0.00    +0.000 C 
ATOM      5  C   UNL     1       5.187   3.613  16.306  0.00  0.00    +0.000 C 
ATOM      6  C   UNL     1       5.140   4.204  14.899  0.00  0.00    +0.000 C 
ATOM      7  C   UNL     1       6.535   4.629  14.467  0.00  0.00    +0.000 C 
ATOM      8  C   UNL     1       7.077   5.679  15.423  0.00  0.00    +0.000 C 
ATOM      9  N   UNL     1       6.983   5.271  16.840  0.00  0.00    +0.000 N 
ATOM     10  C   UNL     1       7.656   6.232  17.730  0.00  0.00    +0.000 C 
ATOM     11  C   UNL     1       7.609   5.754  19.168  0.00  0.00    +0.000 C 
ATOM     12  C   UNL     1       6.162   5.499  19.579  0.00  0.00    +0.000 C 
ENDBRANCH   2   3
BRANCH   1  17
ATOM     13  C   UNL     1       1.832   7.793  19.914  0.00  0.00    +0.000 A 
ATOM     14  C   UNL     1       2.119   8.448  18.707  0.00  0.00    +0.000 A 
ATOM     15  C   UNL     1       2.725   7.759  17.660  0.00  0.00    +0.000 A 
ATOM     16  C   UNL     1       3.066   6.414  17.823  0.00  0.00    +0.000 A 
ATOM     17  C   UNL     1       2.824   5.741  19.032  0.00  0.00    +0.000 A 
ATOM     18  C   UNL     1       2.185   6.439  20.062  0.00  0.00    +0.000 A 
BRANCH  13  20
ATOM     19  F   UNL     1       1.898   8.506  22.204  0.00  0.00    +0.000 F 
ATOM     20  C   UNL     1       1.165   8.514  21.056  0.00  0.00    +0.000 C 
ATOM     21  F   UNL     1      -0.041   7.972  21.379  0.00  0.00    +0.000 F 
ATOM     22  F   UNL     1       0.926   9.827  20.779  0.00  0.00    +0.000 F 
ENDBRANCH  13  20
ENDBRANCH   1  17
TORSDOF 3
ENDMDL
MODEL 5
REMARK VINA RESULT:      -6.7      4.372      6.633
REMARK  Name = 
REMARK  3 active torsions:
REMARK  status: ('A' for Active; 'I' for Inactive)
REMARK    1  A    between atoms: C_2  and  C_5
REMARK    2  A    between atoms: C_9  and  N_10
REMARK    3  A    between atoms: N_11  and  C_12
REMARK                            x       y       z     vdW  Elec       q    Type
REMARK                         _______ _______ _______ _____ _____    ______ ____
ROOT
ATOM      1  N   UNL     1       3.021   7.182  17.963  0.00  0.00    +0.000 NA
ATOM      2  N   UNL     1       4.127   7.147  17.378  0.00  0.00    +0.000 NA
ENDROOT
BRANCH   2   3
ATOM      3  C   UNL     1       5.179   6.273  17.549  0.00  0.00    +0.000 C 
ATOM      4  C   UNL     1       5.516   5.381  16.575  0.00  0.00    +0.000 C 
ATOM      5  C   UNL     1       4.639   5.209  15.339  0.00  0.00    +0.000 C 
ATOM      6  C   UNL     1       5.434   4.910  14.070  0.00  0.00    +0.000 C 
ATOM      7  C   UNL     1       6.374   3.739  14.310  0.00  0.00    +0.000 C 
ATOM      8  C   UNL     1       7.345   4.074  15.430  0.00  0.00    +0.000 C 
ATOM      9  N   UNL     1       6.670   4.566  16.650  0.00  0.00    +0.000 N 
ATOM     10  C   UNL     1       7.616   4.731  17.766  0.00  0.00    +0.000 C 
ATOM     11  C   UNL     1       6.887   5.165  19.024  0.00  0.00    +0.000 C 
ATOM     12  C   UNL     1       6.091   6.436  18.745  0.00  0.00    +0.000 C 
ENDBRANCH   2   3
BRANCH   1  17
ATOM     13  C   UNL     1       1.731   3.858  19.133  0.00  0.00    +0.000 A 
ATOM     14  C   UNL     1       1.411   4.186  20.459  0.00  0.00    +0.000 A 
ATOM     15  C   UNL     1       1.620   5.479  20.933  0.00  0.00    +0.000 A 
ATOM     16  C   UNL     1       2.168   6.445  20.087  0.00  0.00    +0.000 A 
ATOM     17  C   UNL     1       2.531   6.137  18.767  0.00  0.00    +0.000 A 
ATOM     18  C   UNL     1       2.286   4.844  18.297  0.00  0.00    +0.000 A 
BRANCH  13  20
ATOM     19  F   UNL     1       2.071   2.262  17.374  0.00  0.00    +0.000 F 
ATOM     20  C   UNL     1       1.502   2.470  18.594  0.00  0.00    +0.000 C 
ATOM     21  F   UNL     1       0.180   2.182  18.444  0.00  0.00    +0.000 F 
ATOM     22  F   UNL     1       2.009   1.502  19.408  0.00  0.00    +0.000 F 
ENDBRANCH  13  20
ENDBRANCH   1  17
TORSDOF 3
ENDMDL
MODEL 6
REMARK VINA RESULT:      -6.7      6.674      9.487
REMARK  Name = 
REMARK  3 active torsions:
REMARK  status: ('A' for Active; 'I' for Inactive)
REMARK    1  A    between atoms: C_2  and  C_5
REMARK    2  A    between atoms: C_9  and  N_10
REMARK    3  A    between atoms: N_11  and  C_12
REMARK                            x       y       z     vdW  Elec       q    Type
REMARK                         _______ _______ _______ _____ _____    ______ ____
ROOT
ATOM      1  N   UNL     1      -0.302  12.980  19.615  0.00  0.00    +0.000 NA
ATOM      2  N   UNL     1       0.610  12.258  20.073  0.00  0.00    +0.000 NA
ENDROOT
BRANCH   2   3
ATOM      3  C   UNL     1       0.549  10.963  20.542  0.00  0.00    +0.000 C 
ATOM      4  C   UNL     1       0.974   9.919  19.776  0.00  0.00    +0.000 C 
ATOM      5  C   UNL     1       1.374  10.132  18.320  0.00  0.00    +0.000 C 
ATOM      6  C   UNL     1       2.524   9.234  17.870  0.00  0.00    +0.000 C 
ATOM      7  C   UNL     1       2.212   7.783  18.203  0.00  0.00    +0.000 C 
ATOM      8  C   UNL     1       2.022   7.625  19.703  0.00  0.00    +0.000 C 
ATOM      9  N   UNL     1       1.060   8.594  20.268  0.00  0.00    +0.000 N 
ATOM     10  C   UNL     1       0.776   8.317  21.686  0.00  0.00    +0.000 C 
ATOM     11  C   UNL     1      -0.268   9.279  22.220  0.00  0.00    +0.000 C 
ATOM     12  C   UNL     1       0.190  10.715  21.991  0.00  0.00    +0.000 C 
ENDBRANCH   2   3
BRANCH   1  17
ATOM     13  C   UNL     1      -3.141  11.447  17.698  0.00  0.00    +0.000 A 
ATOM     14  C   UNL     1      -4.192  11.707  18.590  0.00  0.00    +0.000 A 
ATOM     15  C   UNL     1      -3.949  12.376  19.787  0.00  0.00    +0.000 A 
ATOM     16  C   UNL     1      -2.648  12.772  20.105  0.00  0.00    +0.000 A 
ATOM     17  C   UNL     1      -1.570  12.495  19.249  0.00  0.00    +0.000 A 
ATOM     18  C   UNL     1      -1.837  11.850  18.037  0.00  0.00    +0.000 A 
BRANCH  13  20
ATOM     19  F   UNL     1      -4.648  10.895  15.913  0.00  0.00    +0.000 F 
ATOM     20  C   UNL     1      -3.382  10.736  16.391  0.00  0.00    +0.000 C 
ATOM     21  F   UNL     1      -3.186   9.393  16.488  0.00  0.00    +0.000 F 
ATOM     22  F   UNL     1      -2.555  11.169  15.399  0.00  0.00    +0.000 F 
ENDBRANCH  13  20
ENDBRANCH   1  17
TORSDOF 3
ENDMDL
MODEL 7
REMARK VINA RESULT:      -6.7      2.826      5.432
REMARK  Name = 
REMARK  3 active torsions:
REMARK  status: ('A' for Active; 'I' for Inactive)
REMARK    1  A    between atoms: C_2  and  C_5
REMARK    2  A    between atoms: C_9  and  N_10
REMARK    3  A    between atoms: N_11  and  C_12
REMARK                            x       y       z     vdW  Elec       q    Type
REMARK                         _______ _______ _______ _____ _____    ______ ____
ROOT
ATOM      1  N   UNL     1       3.019   3.655  18.707  0.00  0.00    +0.000 NA
ATOM      2  N   UNL     1       4.216   3.365  18.483  0.00  0.00    +0.000 NA
ENDROOT
BRANCH   2   3
ATOM      3  C   UNL     1       5.302   4.197  18.320  0.00  0.00    +0.000 C 
ATOM      4  C   UNL     1       5.882   4.362  17.097  0.00  0.00    +0.000 C 
ATOM      5  C   UNL     1       5.455   3.506  15.910  0.00  0.00    +0.000 C 
ATOM      6  C   UNL     1       5.493   4.255  14.579  0.00  0.00    +0.000 C 
ATOM      7  C   UNL     1       6.852   4.911  14.391  0.00  0.00    +0.000 C 
ATOM      8  C   UNL     1       7.112   5.898  15.518  0.00  0.00    +0.000 C 
ATOM      9  N   UNL     1       6.906   5.309  16.858  0.00  0.00    +0.000 N 
ATOM     10  C   UNL     1       7.316   6.234  17.928  0.00  0.00    +0.000 C 
ATOM     11  C   UNL     1       7.166   5.580  19.288  0.00  0.00    +0.000 C 
ATOM     12  C   UNL     1       5.733   5.087  19.465  0.00  0.00    +0.000 C 
ENDBRANCH   2   3
BRANCH   1  17
ATOM     13  C   UNL     1       2.229   7.324  18.722  0.00  0.00    +0.000 A 
ATOM     14  C   UNL     1       1.831   7.471  20.059  0.00  0.00    +0.000 A 
ATOM     15  C   UNL     1       1.834   6.375  20.918  0.00  0.00    +0.000 A 
ATOM     16  C   UNL     1       2.219   5.121  20.437  0.00  0.00    +0.000 A 
ATOM     17  C   UNL     1       2.588   4.936  19.095  0.00  0.00    +0.000 A 
ATOM     18  C   UNL     1       2.609   6.052  18.254  0.00  0.00    +0.000 A 
BRANCH  13  20
ATOM     19  F   UNL     1       2.689   9.650  18.352  0.00  0.00    +0.000 F 
ATOM     20  C   UNL     1       2.245   8.497  17.777  0.00  0.00    +0.000 C 
ATOM     21  F   UNL     1       1.010   8.780  17.279  0.00  0.00    +0.000 F 
ATOM     22  F   UNL     1       3.048   8.289  16.697  0.00  0.00    +0.000 F 
ENDBRANCH  13  20
ENDBRANCH   1  17
TORSDOF 3
ENDMDL
MODEL 8
REMARK VINA RESULT:      -6.6      3.758      4.848
REMARK  Name = 
REMARK  3 active torsions:
REMARK  status: ('A' for Active; 'I' for Inactive)
REMARK    1  A    between atoms: C_2  and  C_5
REMARK    2  A    between atoms: C_9  and  N_10
REMARK    3  A    between atoms: N_11  and  C_12
REMARK                            x       y       z     vdW  Elec       q    Type
REMARK                         _______ _______ _______ _____ _____    ______ ____
ROOT
ATOM      1  N   UNL     1       4.062   6.482  17.039  0.00  0.00    +0.000 NA
ATOM      2  N   UNL     1       3.178   5.958  17.754  0.00  0.00    +0.000 NA
ENDROOT
BRANCH   2   3
ATOM      3  C   UNL     1       2.903   4.624  17.967  0.00  0.00    +0.000 C 
ATOM      4  C   UNL     1       2.740   4.134  19.228  0.00  0.00    +0.000 C 
ATOM      5  C   UNL     1       3.020   5.008  20.446  0.00  0.00    +0.000 C 
ATOM      6  C   UNL     1       2.085   4.728  21.620  0.00  0.00    +0.000 C 
ATOM      7  C   UNL     1       2.078   3.240  21.935  0.00  0.00    +0.000 C 
ATOM      8  C   UNL     1       1.596   2.456  20.725  0.00  0.00    +0.000 C 
ATOM      9  N   UNL     1       2.320   2.807  19.485  0.00  0.00    +0.000 N 
ATOM     10  C   UNL     1       1.945   1.926  18.367  0.00  0.00    +0.000 C 
ATOM     11  C   UNL     1       2.755   2.258  17.129  0.00  0.00    +0.000 C 
ATOM     12  C   UNL     1       2.586   3.735  16.785  0.00  0.00    +0.000 C 
ENDBRANCH   2   3
BRANCH   1  17
ATOM     13  C   UNL     1       6.248   4.515  14.708  0.00  0.00    +0.000 A 
ATOM     14  C   UNL     1       7.317   4.234  15.572  0.00  0.00    +0.000 A 
ATOM     15  C   UNL     1       7.295   4.689  16.888  0.00  0.00    +0.000 A 
ATOM     16  C   UNL     1       6.210   5.443  17.341  0.00  0.00    +0.000 A 
ATOM     17  C   UNL     1       5.143   5.770  16.489  0.00  0.00    +0.000 A 
ATOM     18  C   UNL     1       5.165   5.280  15.180  0.00  0.00    +0.000 A 
BRANCH  13  20
ATOM     19  F   UNL     1       6.533   2.697  13.168  0.00  0.00    +0.000 F 
ATOM     20  C   UNL     1       6.244   4.023  13.284  0.00  0.00    +0.000 C 
ATOM     21  F   UNL     1       7.154   4.673  12.508  0.00  0.00    +0.000 F 
ATOM     22  F   UNL     1       5.037   4.194  12.675  0.00  0.00    +0.000 F 
ENDBRANCH  13  20
ENDBRANCH   1  17
TORSDOF 3
ENDMDL
MODEL 9
REMARK VINA RESULT:      -6.6      0.899      2.497
REMARK  Name = 
REMARK  3 active torsions:
REMARK  status: ('A' for Active; 'I' for Inactive)
REMARK    1  A    between atoms: C_2  and  C_5
REMARK    2  A    between atoms: C_9  and  N_10
REMARK    3  A    between atoms: N_11  and  C_12
REMARK                            x       y       z     vdW  Elec       q    Type
REMARK                         _______ _______ _______ _____ _____    ______ ____
ROOT
ATOM      1  N   UNL     1       5.485   5.223  16.142  0.00  0.00    +0.000 NA
ATOM      2  N   UNL     1       4.377   4.731  16.453  0.00  0.00    +0.000 NA
ENDROOT
BRANCH   2   3
ATOM      3  C   UNL     1       3.905   4.352  17.692  0.00  0.00    +0.000 C 
ATOM      4  C   UNL     1       3.388   5.270  18.557  0.00  0.00    +0.000 C 
ATOM      5  C   UNL     1       3.469   6.761  18.250  0.00  0.00    +0.000 C 
ATOM      6  C   UNL     1       2.254   7.547  18.739  0.00  0.00    +0.000 C 
ATOM      7  C   UNL     1       1.998   7.246  20.208  0.00  0.00    +0.000 C 
ATOM      8  C   UNL     1       1.731   5.761  20.394  0.00  0.00    +0.000 C 
ATOM      9  N   UNL     1       2.767   4.908  19.775  0.00  0.00    +0.000 N 
ATOM     10  C   UNL     1       2.570   3.486  20.106  0.00  0.00    +0.000 C 
ATOM     11  C   UNL     1       3.686   2.642  19.521  0.00  0.00    +0.000 C 
ATOM     12  C   UNL     1       3.778   2.880  18.018  0.00  0.00    +0.000 C 
ENDBRANCH   2   3
BRANCH   1  17
ATOM     13  C   UNL     1       7.813   7.492  18.018  0.00  0.00    +0.000 A 
ATOM     14  C   UNL     1       8.354   6.570  18.927  0.00  0.00    +0.000 A 
ATOM     15  C   UNL     1       7.949   5.238  18.902  0.00  0.00    +0.000 A 
ATOM     16  C   UNL     1       6.986   4.825  17.978  0.00  0.00    +0.000 A 
ATOM     17  C   UNL     1       6.401   5.732  17.080  0.00  0.00    +0.000 A 
ATOM     18  C   UNL     1       6.841   7.059  17.097  0.00  0.00    +0.000 A 
BRANCH  13  20
ATOM     19  F   UNL     1       9.070   9.254  16.983  0.00  0.00    +0.000 F 
ATOM     20  C   UNL     1       8.244   8.936  18.018  0.00  0.00    +0.000 C 
ATOM     21  F   UNL     1       8.916   9.277  19.151  0.00  0.00    +0.000 F 
ATOM     22  F   UNL     1       7.191   9.796  17.930  0.00  0.00    +0.000 F 
ENDBRANCH  13  20
ENDBRANCH   1  17
TORSDOF 3
ENDMDL
