MODEL 1
REMARK VINA RESULT:      -7.3      0.000      0.000
REMARK  Name = 
REMARK  5 active torsions:
REMARK  status: ('A' for Active; 'I' for Inactive)
REMARK    1  A    between atoms: C_1  and  C_2
REMARK    2  A    between atoms: C_2  and  C_3
REMARK    3  A    between atoms: C_3  and  N_4
REMARK    4  A    between atoms: C_12  and  O_13
REMARK    5  A    between atoms: C_14  and  O_15
REMARK                            x       y       z     vdW  Elec       q    Type
REMARK                         _______ _______ _______ _____ _____    ______ ____
ROOT
ATOM      1  N   UNL     1       5.667   4.709  14.773  0.00  0.00    +0.000 NA
ATOM      2  C   UNL     1       6.820   5.394  15.403  0.00  0.00    +0.000 C 
ATOM      3  C   UNL     1       7.329   4.647  16.656  0.00  0.00    +0.000 C 
ATOM      4  C   UNL     1       6.210   4.434  17.693  0.00  0.00    +0.000 C 
ATOM      5  C   UNL     1       5.806   5.718  18.426  0.00  0.00    +0.000 C 
ATOM      6  C   UNL     1       4.833   5.383  19.567  0.00  0.00    +0.000 C 
ATOM      7  C   UNL     1       3.737   4.421  19.164  0.00  0.00    +0.000 A 
ATOM      8  C   UNL     1       2.646   4.240  20.029  0.00  0.00    +0.000 A 
ATOM      9  C   UNL     1       1.600   3.368  19.695  0.00  0.00    +0.000 A 
ATOM     10  C   UNL     1       1.643   2.662  18.481  0.00  0.00    +0.000 A 
ATOM     11  C   UNL     1       2.731   2.828  17.620  0.00  0.00    +0.000 A 
ATOM     12  C   UNL     1       3.789   3.691  17.952  0.00  0.00    +0.000 A 
ATOM     13  C   UNL     1       4.972   3.795  17.010  0.00  0.00    +0.000 C 
ATOM     14  C   UNL     1       4.555   4.581  15.742  0.00  0.00    +0.000 C 
ENDROOT
BRANCH   9  15
ATOM     15  O   UNL     1       0.554   3.207  20.532  0.00  0.00    +0.000 OA
ATOM     16  H   UNL     1       0.454   3.729  21.340  0.00  0.00    +0.000 HD
ENDBRANCH   9  15
BRANCH  10  17
ATOM     17  O   UNL     1       0.655   1.814  18.127  0.00  0.00    +0.000 OA
ATOM     18  H   UNL     1       0.746   0.852  18.178  0.00  0.00    +0.000 HD
ENDBRANCH  10  17
BRANCH   1  19
ATOM     19  C   UNL     1       6.070   3.453  14.088  0.00  0.00    +0.000 C 
BRANCH  19  21
ATOM     20  C   UNL     1       4.907   3.233  11.858  0.00  0.00    +0.000 C 
ATOM     21  C   UNL     1       6.210   3.602  12.563  0.00  0.00    +0.000 C 
ENDBRANCH  19  21
ENDBRANCH   1  19
TORSDOF 4
ENDMDL
MODEL 2
REMARK VINA RESULT:      -7.2      3.513      4.267
REMARK  Name = 
REMARK  5 active torsions:
REMARK  status: ('A' for Active; 'I' for Inactive)
REMARK    1  A    between atoms: C_1  and  C_2
REMARK    2  A    between atoms: C_2  and  C_3
REMARK    3  A    between atoms: C_3  and  N_4
REMARK    4  A    between atoms: C_12  and  O_13
REMARK    5  A    between atoms: C_14  and  O_15
REMARK                            x       y       z     vdW  Elec       q    Type
REMARK                         _______ _______ _______ _____ _____    ______ ____
ROOT
ATOM      1  N   UNL     1       5.838   5.605  16.696  0.00  0.00    +0.000 NA
ATOM      2  C   UNL     1       5.758   4.267  17.327  0.00  0.00    +0.000 C 
ATOM      3  C   UNL     1       4.305   3.748  17.416  0.00  0.00    +0.000 C 
ATOM      4  C   UNL     1       3.385   4.738  18.156  0.00  0.00    +0.000 C 
ATOM      5  C   UNL     1       3.632   4.783  19.668  0.00  0.00    +0.000 C 
ATOM      6  C   UNL     1       2.552   5.640  20.347  0.00  0.00    +0.000 C 
ATOM      7  C   UNL     1       2.279   6.946  19.633  0.00  0.00    +0.000 A 
ATOM      8  C   UNL     1       1.514   7.925  20.286  0.00  0.00    +0.000 A 
ATOM      9  C   UNL     1       1.244   9.155  19.669  0.00  0.00    +0.000 A 
ATOM     10  C   UNL     1       1.742   9.414  18.382  0.00  0.00    +0.000 A 
ATOM     11  C   UNL     1       2.496   8.440  17.721  0.00  0.00    +0.000 A 
ATOM     12  C   UNL     1       2.760   7.200  18.326  0.00  0.00    +0.000 A 
ATOM     13  C   UNL     1       3.537   6.157  17.546  0.00  0.00    +0.000 C 
ATOM     14  C   UNL     1       5.024   6.580  17.456  0.00  0.00    +0.000 C 
ENDROOT
BRANCH   9  15
ATOM     15  O   UNL     1       0.511  10.091  20.310  0.00  0.00    +0.000 OA
ATOM     16  H   UNL     1      -0.402   9.932  20.587  0.00  0.00    +0.000 HD
ENDBRANCH   9  15
BRANCH  10  17
ATOM     17  O   UNL     1       1.501  10.587  17.759  0.00  0.00    +0.000 OA
ATOM     18  H   UNL     1       2.191  11.090  17.303  0.00  0.00    +0.000 HD
ENDBRANCH  10  17
BRANCH   1  19
ATOM     19  C   UNL     1       5.571   5.549  15.234  0.00  0.00    +0.000 C 
BRANCH  19  21
ATOM     20  C   UNL     1       5.999   3.801  13.463  0.00  0.00    +0.000 C 
ATOM     21  C   UNL     1       6.643   4.777  14.443  0.00  0.00    +0.000 C 
ENDBRANCH  19  21
ENDBRANCH   1  19
TORSDOF 4
ENDMDL
MODEL 3
REMARK VINA RESULT:      -7.1      3.699      4.717
REMARK  Name = 
REMARK  5 active torsions:
REMARK  status: ('A' for Active; 'I' for Inactive)
REMARK    1  A    between atoms: C_1  and  C_2
REMARK    2  A    between atoms: C_2  and  C_3
REMARK    3  A    between atoms: C_3  and  N_4
REMARK    4  A    between atoms: C_12  and  O_13
REMARK    5  A    between atoms: C_14  and  O_15
REMARK                            x       y       z     vdW  Elec       q    Type
REMARK                         _______ _______ _______ _____ _____    ______ ____
ROOT
ATOM      1  N   UNL     1       5.118   4.628  17.527  0.00  0.00    +0.000 NA
ATOM      2  C   UNL     1       4.692   3.475  18.354  0.00  0.00    +0.000 C 
ATOM      3  C   UNL     1       3.155   3.317  18.389  0.00  0.00    +0.000 C 
ATOM      4  C   UNL     1       2.456   4.602  18.873  0.00  0.00    +0.000 C 
ATOM      5  C   UNL     1       2.624   4.858  20.374  0.00  0.00    +0.000 C 
ATOM      6  C   UNL     1       1.741   6.041  20.804  0.00  0.00    +0.000 C 
ATOM      7  C   UNL     1       1.823   7.227  19.866  0.00  0.00    +0.000 A 
ATOM      8  C   UNL     1       1.275   8.452  20.280  0.00  0.00    +0.000 A 
ATOM      9  C   UNL     1       1.335   9.582  19.452  0.00  0.00    +0.000 A 
ATOM     10  C   UNL     1       1.949   9.490  18.191  0.00  0.00    +0.000 A 
ATOM     11  C   UNL     1       2.486   8.271  17.769  0.00  0.00    +0.000 A 
ATOM     12  C   UNL     1       2.419   7.131  18.587  0.00  0.00    +0.000 A 
ATOM     13  C   UNL     1       2.969   5.820  18.060  0.00  0.00    +0.000 C 
ATOM     14  C   UNL     1       4.517   5.879  18.042  0.00  0.00    +0.000 C 
ENDROOT
BRANCH   9  15
ATOM     15  O   UNL     1       0.810  10.755  19.863  0.00  0.00    +0.000 OA
ATOM     16  H   UNL     1       1.361  11.487  20.175  0.00  0.00    +0.000 HD
ENDBRANCH   9  15
BRANCH  10  17
ATOM     17  O   UNL     1       2.024  10.557  17.368  0.00  0.00    +0.000 OA
ATOM     18  H   UNL     1       2.859  10.875  16.997  0.00  0.00    +0.000 HD
ENDBRANCH  10  17
BRANCH   1  19
ATOM     19  C   UNL     1       4.925   4.374  16.074  0.00  0.00    +0.000 C 
BRANCH  19  21
ATOM     20  C   UNL     1       6.108   3.955  13.885  0.00  0.00    +0.000 C 
ATOM     21  C   UNL     1       6.173   4.678  15.227  0.00  0.00    +0.000 C 
ENDBRANCH  19  21
ENDBRANCH   1  19
TORSDOF 4
ENDMDL
MODEL 4
REMARK VINA RESULT:      -6.9      2.088      4.041
REMARK  Name = 
REMARK  5 active torsions:
REMARK  status: ('A' for Active; 'I' for Inactive)
REMARK    1  A    between atoms: C_1  and  C_2
REMARK    2  A    between atoms: C_2  and  C_3
REMARK    3  A    between atoms: C_3  and  N_4
REMARK    4  A    between atoms: C_12  and  O_13
REMARK    5  A    between atoms: C_14  and  O_15
REMARK                            x       y       z     vdW  Elec       q    Type
REMARK                         _______ _______ _______ _____ _____    ______ ____
ROOT
ATOM      1  N   UNL     1       7.341   6.028  17.539  0.00  0.00    +0.000 NA
ATOM      2  C   UNL     1       7.453   5.305  16.250  0.00  0.00    +0.000 C 
ATOM      3  C   UNL     1       6.198   5.487  15.367  0.00  0.00    +0.000 C 
ATOM      4  C   UNL     1       4.911   5.064  16.101  0.00  0.00    +0.000 C 
ATOM      5  C   UNL     1       4.774   3.546  16.262  0.00  0.00    +0.000 C 
ATOM      6  C   UNL     1       3.384   3.205  16.824  0.00  0.00    +0.000 C 
ATOM      7  C   UNL     1       2.969   4.083  17.985  0.00  0.00    +0.000 A 
ATOM      8  C   UNL     1       1.851   3.710  18.746  0.00  0.00    +0.000 A 
ATOM      9  C   UNL     1       1.434   4.485  19.838  0.00  0.00    +0.000 A 
ATOM     10  C   UNL     1       2.141   5.651  20.176  0.00  0.00    +0.000 A 
ATOM     11  C   UNL     1       3.249   6.035  19.415  0.00  0.00    +0.000 A 
ATOM     12  C   UNL     1       3.666   5.271  18.312  0.00  0.00    +0.000 A 
ATOM     13  C   UNL     1       4.841   5.759  17.487  0.00  0.00    +0.000 C 
ATOM     14  C   UNL     1       6.153   5.561  18.288  0.00  0.00    +0.000 C 
ENDROOT
BRANCH   9  15
ATOM     15  O   UNL     1       0.360   4.113  20.567  0.00  0.00    +0.000 OA
ATOM     16  H   UNL     1      -0.039   4.692  21.232  0.00  0.00    +0.000 HD
ENDBRANCH   9  15
BRANCH  10  17
ATOM     17  O   UNL     1       1.768   6.421  21.219  0.00  0.00    +0.000 OA
ATOM     18  H   UNL     1       1.157   6.115  21.905  0.00  0.00    +0.000 HD
ENDBRANCH  10  17
BRANCH   1  19
ATOM     19  C   UNL     1       7.450   7.500  17.364  0.00  0.00    +0.000 C 
BRANCH  19  21
ATOM     20  C   UNL     1       8.483   9.671  18.134  0.00  0.00    +0.000 C 
ATOM     21  C   UNL     1       8.332   8.181  18.426  0.00  0.00    +0.000 C 
ENDBRANCH  19  21
ENDBRANCH   1  19
TORSDOF 4
ENDMDL
MODEL 5
REMARK VINA RESULT:      -6.4      4.968      6.965
REMARK  Name = 
REMARK  5 active torsions:
REMARK  status: ('A' for Active; 'I' for Inactive)
REMARK    1  A    between atoms: C_1  and  C_2
REMARK    2  A    between atoms: C_2  and  C_3
REMARK    3  A    between atoms: C_3  and  N_4
REMARK    4  A    between atoms: C_12  and  O_13
REMARK    5  A    between atoms: C_14  and  O_15
REMARK                            x       y       z     vdW  Elec       q    Type
REMARK                         _______ _______ _______ _____ _____    ______ ____
ROOT
ATOM      1  N   UNL     1       1.947   4.820  19.500  0.00  0.00    +0.000 NA
ATOM      2  C   UNL     1       2.434   5.035  18.117  0.00  0.00    +0.000 C 
ATOM      3  C   UNL     1       3.406   6.232  18.020  0.00  0.00    +0.000 C 
ATOM      4  C   UNL     1       2.779   7.529  18.569  0.00  0.00    +0.000 C 
ATOM      5  C   UNL     1       1.705   8.120  17.650  0.00  0.00    +0.000 C 
ATOM      6  C   UNL     1       1.275   9.501  18.171  0.00  0.00    +0.000 C 
ATOM      7  C   UNL     1       1.030   9.533  19.664  0.00  0.00    +0.000 A 
ATOM      8  C   UNL     1       0.389  10.653  20.219  0.00  0.00    +0.000 A 
ATOM      9  C   UNL     1       0.130  10.724  21.595  0.00  0.00    +0.000 A 
ATOM     10  C   UNL     1       0.517   9.665  22.433  0.00  0.00    +0.000 A 
ATOM     11  C   UNL     1       1.166   8.553  21.890  0.00  0.00    +0.000 A 
ATOM     12  C   UNL     1       1.441   8.478  20.514  0.00  0.00    +0.000 A 
ATOM     13  C   UNL     1       2.195   7.275  19.983  0.00  0.00    +0.000 C 
ATOM     14  C   UNL     1       1.266   6.035  19.999  0.00  0.00    +0.000 C 
ENDROOT
BRANCH   9  15
ATOM     15  O   UNL     1      -0.492  11.803  22.115  0.00  0.00    +0.000 OA
ATOM     16  H   UNL     1      -0.958  12.448  21.563  0.00  0.00    +0.000 HD
ENDBRANCH   9  15
BRANCH  10  17
ATOM     17  O   UNL     1       0.284   9.701  23.762  0.00  0.00    +0.000 OA
ATOM     18  H   UNL     1       0.965   9.935  24.407  0.00  0.00    +0.000 HD
ENDBRANCH  10  17
BRANCH   1  19
ATOM     19  C   UNL     1       3.007   4.269  20.386  0.00  0.00    +0.000 C 
BRANCH  19  21
ATOM     20  C   UNL     1       1.560   2.626  21.642  0.00  0.00    +0.000 C 
ATOM     21  C   UNL     1       2.792   2.791  20.757  0.00  0.00    +0.000 C 
ENDBRANCH  19  21
ENDBRANCH   1  19
TORSDOF 4
ENDMDL
MODEL 6
REMARK VINA RESULT:      -6.4      3.301      5.793
REMARK  Name = 
REMARK  5 active torsions:
REMARK  status: ('A' for Active; 'I' for Inactive)
REMARK    1  A    between atoms: C_1  and  C_2
REMARK    2  A    between atoms: C_2  and  C_3
REMARK    3  A    between atoms: C_3  and  N_4
REMARK    4  A    between atoms: C_12  and  O_13
REMARK    5  A    between atoms: C_14  and  O_15
REMARK                            x       y       z     vdW  Elec       q    Type
REMARK                         _______ _______ _______ _____ _____    ______ ____
ROOT
ATOM      1  N   UNL     1       2.912   3.711  20.872  0.00  0.00    +0.000 NA
ATOM      2  C   UNL     1       2.064   4.876  21.217  0.00  0.00    +0.000 C 
ATOM      3  C   UNL     1       1.242   5.378  20.010  0.00  0.00    +0.000 C 
ATOM      4  C   UNL     1       2.139   5.716  18.803  0.00  0.00    +0.000 C 
ATOM      5  C   UNL     1       2.950   7.002  18.990  0.00  0.00    +0.000 C 
ATOM      6  C   UNL     1       3.661   7.366  17.676  0.00  0.00    +0.000 C 
ATOM      7  C   UNL     1       4.339   6.188  17.010  0.00  0.00    +0.000 A 
ATOM      8  C   UNL     1       5.232   6.433  15.955  0.00  0.00    +0.000 A 
ATOM      9  C   UNL     1       5.893   5.375  15.313  0.00  0.00    +0.000 A 
ATOM     10  C   UNL     1       5.660   4.054  15.728  0.00  0.00    +0.000 A 
ATOM     11  C   UNL     1       4.764   3.802  16.771  0.00  0.00    +0.000 A 
ATOM     12  C   UNL     1       4.088   4.854  17.410  0.00  0.00    +0.000 A 
ATOM     13  C   UNL     1       3.085   4.524  18.499  0.00  0.00    +0.000 C 
ATOM     14  C   UNL     1       3.838   4.059  19.771  0.00  0.00    +0.000 C 
ENDROOT
BRANCH   9  15
ATOM     15  O   UNL     1       6.754   5.624  14.304  0.00  0.00    +0.000 OA
ATOM     16  H   UNL     1       7.711   5.514  14.401  0.00  0.00    +0.000 HD
ENDBRANCH   9  15
BRANCH  10  17
ATOM     17  O   UNL     1       6.279   3.012  15.133  0.00  0.00    +0.000 OA
ATOM     18  H   UNL     1       7.053   2.575  15.514  0.00  0.00    +0.000 HD
ENDBRANCH  10  17
BRANCH   1  19
ATOM     19  C   UNL     1       2.109   2.476  20.669  0.00  0.00    +0.000 C 
BRANCH  19  21
ATOM     20  C   UNL     1       0.699   2.081  18.613  0.00  0.00    +0.000 C 
ATOM     21  C   UNL     1       2.099   1.982  19.211  0.00  0.00    +0.000 C 
ENDBRANCH  19  21
ENDBRANCH   1  19
TORSDOF 4
ENDMDL
MODEL 7
REMARK VINA RESULT:      -6.4      3.166      6.026
REMARK  Name = 
REMARK  5 active torsions:
REMARK  status: ('A' for Active; 'I' for Inactive)
REMARK    1  A    between atoms: C_1  and  C_2
REMARK    2  A    between atoms: C_2  and  C_3
REMARK    3  A    between atoms: C_3  and  N_4
REMARK    4  A    between atoms: C_12  and  O_13
REMARK    5  A    between atoms: C_14  and  O_15
REMARK                            x       y       z     vdW  Elec       q    Type
REMARK                         _______ _______ _______ _____ _____    ______ ____
ROOT
ATOM      1  N   UNL     1       3.446   3.203  18.561  0.00  0.00    +0.000 NA
ATOM      2  C   UNL     1       3.926   4.158  19.588  0.00  0.00    +0.000 C 
ATOM      3  C   UNL     1       4.004   5.604  19.050  0.00  0.00    +0.000 C 
ATOM      4  C   UNL     1       4.880   5.702  17.786  0.00  0.00    +0.000 C 
ATOM      5  C   UNL     1       6.378   5.557  18.073  0.00  0.00    +0.000 C 
ATOM      6  C   UNL     1       7.184   5.860  16.799  0.00  0.00    +0.000 C 
ATOM      7  C   UNL     1       6.629   5.191  15.560  0.00  0.00    +0.000 A 
ATOM      8  C   UNL     1       7.412   5.174  14.395  0.00  0.00    +0.000 A 
ATOM      9  C   UNL     1       6.946   4.557  13.225  0.00  0.00    +0.000 A 
ATOM     10  C   UNL     1       5.680   3.948  13.215  0.00  0.00    +0.000 A 
ATOM     11  C   UNL     1       4.891   3.971  14.368  0.00  0.00    +0.000 A 
ATOM     12  C   UNL     1       5.344   4.598  15.540  0.00  0.00    +0.000 A 
ATOM     13  C   UNL     1       4.427   4.642  16.748  0.00  0.00    +0.000 C 
ATOM     14  C   UNL     1       4.337   3.230  17.379  0.00  0.00    +0.000 C 
ENDROOT
BRANCH   9  15
ATOM     15  O   UNL     1       7.711   4.542  12.113  0.00  0.00    +0.000 OA
ATOM     16  H   UNL     1       7.347   4.718  11.233  0.00  0.00    +0.000 HD
ENDBRANCH   9  15
BRANCH  10  17
ATOM     17  O   UNL     1       5.200   3.346  12.107  0.00  0.00    +0.000 OA
ATOM     18  H   UNL     1       4.264   3.127  11.992  0.00  0.00    +0.000 HD
ENDBRANCH  10  17
BRANCH   1  19
ATOM     19  C   UNL     1       1.997   3.372  18.276  0.00  0.00    +0.000 C 
BRANCH  19  21
ATOM     20  C   UNL     1       0.712   3.314  20.448  0.00  0.00    +0.000 C 
ATOM     21  C   UNL     1       1.088   2.533  19.192  0.00  0.00    +0.000 C 
ENDBRANCH  19  21
ENDBRANCH   1  19
TORSDOF 4
ENDMDL
MODEL 8
REMARK VINA RESULT:      -6.3      3.723      6.668
REMARK  Name = 
REMARK  5 active torsions:
REMARK  status: ('A' for Active; 'I' for Inactive)
REMARK    1  A    between atoms: C_1  and  C_2
REMARK    2  A    between atoms: C_2  and  C_3
REMARK    3  A    between atoms: C_3  and  N_4
REMARK    4  A    between atoms: C_12  and  O_13
REMARK    5  A    between atoms: C_14  and  O_15
REMARK                            x       y       z     vdW  Elec       q    Type
REMARK                         _______ _______ _______ _____ _____    ______ ____
ROOT
ATOM      1  N   UNL     1       1.398   5.927  19.903  0.00  0.00    +0.000 NA
ATOM      2  C   UNL     1       0.981   4.540  20.218  0.00  0.00    +0.000 C 
ATOM      3  C   UNL     1       2.168   3.661  20.669  0.00  0.00    +0.000 C 
ATOM      4  C   UNL     1       3.303   3.647  19.626  0.00  0.00    +0.000 C 
ATOM      5  C   UNL     1       2.966   2.832  18.372  0.00  0.00    +0.000 C 
ATOM      6  C   UNL     1       4.212   2.710  17.480  0.00  0.00    +0.000 C 
ATOM      7  C   UNL     1       4.957   4.015  17.300  0.00  0.00    +0.000 A 
ATOM      8  C   UNL     1       5.949   4.095  16.311  0.00  0.00    +0.000 A 
ATOM      9  C   UNL     1       6.659   5.286  16.099  0.00  0.00    +0.000 A 
ATOM     10  C   UNL     1       6.377   6.414  16.886  0.00  0.00    +0.000 A 
ATOM     11  C   UNL     1       5.398   6.339  17.881  0.00  0.00    +0.000 A 
ATOM     12  C   UNL     1       4.691   5.147  18.108  0.00  0.00    +0.000 A 
ATOM     13  C   UNL     1       3.678   5.101  19.235  0.00  0.00    +0.000 C 
ATOM     14  C   UNL     1       2.426   5.923  18.838  0.00  0.00    +0.000 C 
ENDROOT
BRANCH   9  15
ATOM     15  O   UNL     1       7.607   5.351  15.140  0.00  0.00    +0.000 OA
ATOM     16  H   UNL     1       7.937   6.194  14.796  0.00  0.00    +0.000 HD
ENDBRANCH   9  15
BRANCH  10  17
ATOM     17  O   UNL     1       7.041   7.576  16.710  0.00  0.00    +0.000 OA
ATOM     18  H   UNL     1       6.605   8.391  16.423  0.00  0.00    +0.000 HD
ENDBRANCH  10  17
BRANCH   1  19
ATOM     19  C   UNL     1       1.746   6.697  21.126  0.00  0.00    +0.000 C 
BRANCH  19  21
ATOM     20  C   UNL     1       0.023   8.503  21.502  0.00  0.00    +0.000 C 
ATOM     21  C   UNL     1       1.436   8.201  21.013  0.00  0.00    +0.000 C 
ENDBRANCH  19  21
ENDBRANCH   1  19
TORSDOF 4
ENDMDL
MODEL 9
REMARK VINA RESULT:      -6.2      3.700      5.851
REMARK  Name = 
REMARK  5 active torsions:
REMARK  status: ('A' for Active; 'I' for Inactive)
REMARK    1  A    between atoms: C_1  and  C_2
REMARK    2  A    between atoms: C_2  and  C_3
REMARK    3  A    between atoms: C_3  and  N_4
REMARK    4  A    between atoms: C_12  and  O_13
REMARK    5  A    between atoms: C_14  and  O_15
REMARK                            x       y       z     vdW  Elec       q    Type
REMARK                         _______ _______ _______ _____ _____    ______ ____
ROOT
ATOM      1  N   UNL     1       3.014   3.233  19.206  0.00  0.00    +0.000 NA
ATOM      2  C   UNL     1       4.166   3.108  18.282  0.00  0.00    +0.000 C 
ATOM      3  C   UNL     1       5.227   4.206  18.521  0.00  0.00    +0.000 C 
ATOM      4  C   UNL     1       4.622   5.621  18.425  0.00  0.00    +0.000 C 
ATOM      5  C   UNL     1       4.278   6.039  16.992  0.00  0.00    +0.000 C 
ATOM      6  C   UNL     1       3.867   7.520  16.965  0.00  0.00    +0.000 C 
ATOM      7  C   UNL     1       2.902   7.900  18.068  0.00  0.00    +0.000 A 
ATOM      8  C   UNL     1       2.255   9.143  17.999  0.00  0.00    +0.000 A 
ATOM      9  C   UNL     1       1.344   9.535  18.991  0.00  0.00    +0.000 A 
ATOM     10  C   UNL     1       1.075   8.676  20.068  0.00  0.00    +0.000 A 
ATOM     11  C   UNL     1       1.724   7.440  20.149  0.00  0.00    +0.000 A 
ATOM     12  C   UNL     1       2.648   7.045  19.167  0.00  0.00    +0.000 A 
ATOM     13  C   UNL     1       3.365   5.719  19.329  0.00  0.00    +0.000 C 
ATOM     14  C   UNL     1       2.376   4.559  19.055  0.00  0.00    +0.000 C 
ENDROOT
BRANCH   9  15
ATOM     15  O   UNL     1       0.723  10.731  18.910  0.00  0.00    +0.000 OA
ATOM     16  H   UNL     1       0.512  11.257  19.694  0.00  0.00    +0.000 HD
ENDBRANCH   9  15
BRANCH  10  17
ATOM     17  O   UNL     1       0.205   9.020  21.041  0.00  0.00    +0.000 OA
ATOM     18  H   UNL     1      -0.478   9.695  20.918  0.00  0.00    +0.000 HD
ENDBRANCH  10  17
BRANCH   1  19
ATOM     19  C   UNL     1       3.370   2.848  20.598  0.00  0.00    +0.000 C 
BRANCH  19  21
ATOM     20  C   UNL     1       1.238   2.417  21.879  0.00  0.00    +0.000 C 
ATOM     21  C   UNL     1       2.391   3.390  21.654  0.00  0.00    +0.000 C 
ENDBRANCH  19  21
ENDBRANCH   1  19
TORSDOF 4
ENDMDL
