MODEL 1
REMARK VINA RESULT:      -8.6      0.000      0.000
REMARK  Name = 
REMARK  5 active torsions:
REMARK  status: ('A' for Active; 'I' for Inactive)
REMARK    1  A    between atoms: C_1  and  C_2
REMARK    2  A    between atoms: N_4  and  C_5
REMARK    3  A    between atoms: C_8  and  N_9
REMARK    4  A    between atoms: C_10  and  C_12
REMARK    5  A    between atoms: C_14  and  N_15
REMARK                            x       y       z     vdW  Elec       q    Type
REMARK                         _______ _______ _______ _____ _____    ______ ____
ROOT
ATOM      1  N   UNL     1       2.178   7.247  19.231  0.00  0.00    +0.000 N 
ATOM      2  C   UNL     1       2.267   5.967  19.754  0.00  0.00    +0.000 C 
ATOM      3  O   UNL     1       1.840   5.611  20.853  0.00  0.00    +0.000 OA
ATOM      4  H   UNL     1       2.552   7.412  18.303  0.00  0.00    +0.000 HD
ENDROOT
BRANCH   2   5
ATOM      5  C   UNL     1       2.889   4.887  18.952  0.00  0.00    +0.000 A 
ATOM      6  C   UNL     1       4.094   5.260  18.310  0.00  0.00    +0.000 A 
ATOM      7  C   UNL     1       4.704   4.446  17.351  0.00  0.00    +0.000 A 
ATOM      8  C   UNL     1       4.137   3.198  17.082  0.00  0.00    +0.000 A 
ATOM      9  C   UNL     1       2.966   2.799  17.746  0.00  0.00    +0.000 A 
ATOM     10  C   UNL     1       2.331   3.641  18.670  0.00  0.00    +0.000 A 
ATOM     11 CL   UNL     1       0.846   3.084  19.349  0.00  0.00    +0.000 Cl
BRANCH   7  12
ATOM     12  N   UNL     1       5.836   4.921  16.633  0.00  0.00    +0.000 N 
ATOM     13  C   UNL     1       6.603   6.032  16.894  0.00  0.00    +0.000 A 
ATOM     14  N   UNL     1       7.538   6.170  15.983  0.00  0.00    +0.000 NA
ATOM     15  N   UNL     1       7.403   5.140  15.093  0.00  0.00    +0.000 NA
ATOM     16  C   UNL     1       6.391   4.403  15.490  0.00  0.00    +0.000 A 
ENDBRANCH   7  12
ENDBRANCH   2   5
BRANCH   1  20
ATOM     17  C   UNL     1       0.499  10.623  21.202  0.00  0.00    +0.000 A 
ATOM     18  C   UNL     1       0.932   9.523  21.929  0.00  0.00    +0.000 A 
ATOM     19  C   UNL     1       1.483   8.415  21.289  0.00  0.00    +0.000 A 
ATOM     20  C   UNL     1       1.617   8.364  19.904  0.00  0.00    +0.000 A 
ATOM     21  C   UNL     1       1.179   9.465  19.160  0.00  0.00    +0.000 A 
ATOM     22  C   UNL     1       0.610  10.581  19.805  0.00  0.00    +0.000 A 
BRANCH  17  26
ATOM     23  C   UNL     1      -1.548  13.113  23.157  0.00  0.00    +0.000 C 
ATOM     24  C   UNL     1      -1.068  11.739  22.782  0.00  0.00    +0.000 C 
ATOM     25  O   UNL     1      -1.563  10.749  23.310  0.00  0.00    +0.000 OA
ATOM     26  N   UNL     1      -0.061  11.759  21.824  0.00  0.00    +0.000 N 
ATOM     27  H   UNL     1       0.361  12.653  21.608  0.00  0.00    +0.000 HD
ENDBRANCH  17  26
ENDBRANCH   1  20
TORSDOF 4
ENDMDL
MODEL 2
REMARK VINA RESULT:      -8.4      0.961      1.208
REMARK  Name = 
REMARK  5 active torsions:
REMARK  status: ('A' for Active; 'I' for Inactive)
REMARK    1  A    between atoms: C_1  and  C_2
REMARK    2  A    between atoms: N_4  and  C_5
REMARK    3  A    between atoms: C_8  and  N_9
REMARK    4  A    between atoms: C_10  and  C_12
REMARK    5  A    between atoms: C_14  and  N_15
REMARK                            x       y       z     vdW  Elec       q    Type
REMARK                         _______ _______ _______ _____ _____    ______ ____
ROOT
ATOM      1  N   UNL     1       2.123   7.362  19.520  0.00  0.00    +0.000 N 
ATOM      2  C   UNL     1       2.042   6.014  19.830  0.00  0.00    +0.000 C 
ATOM      3  O   UNL     1       1.332   5.522  20.707  0.00  0.00    +0.000 OA
ATOM      4  H   UNL     1       2.732   7.643  18.761  0.00  0.00    +0.000 HD
ENDROOT
BRANCH   2   5
ATOM      5  C   UNL     1       2.831   5.032  19.049  0.00  0.00    +0.000 A 
ATOM      6  C   UNL     1       4.028   5.553  18.501  0.00  0.00    +0.000 A 
ATOM      7  C   UNL     1       4.786   4.838  17.569  0.00  0.00    +0.000 A 
ATOM      8  C   UNL     1       4.380   3.546  17.233  0.00  0.00    +0.000 A 
ATOM      9  C   UNL     1       3.218   3.002  17.805  0.00  0.00    +0.000 A 
ATOM     10  C   UNL     1       2.434   3.742  18.701  0.00  0.00    +0.000 A 
ATOM     11 CL   UNL     1       0.978   3.008  19.263  0.00  0.00    +0.000 Cl
BRANCH   7  12
ATOM     12  N   UNL     1       5.904   5.454  16.942  0.00  0.00    +0.000 N 
ATOM     13  C   UNL     1       6.584   5.040  15.820  0.00  0.00    +0.000 A 
ATOM     14  N   UNL     1       7.591   5.846  15.569  0.00  0.00    +0.000 NA
ATOM     15  N   UNL     1       7.595   6.816  16.533  0.00  0.00    +0.000 NA
ATOM     16  C   UNL     1       6.587   6.575  17.341  0.00  0.00    +0.000 A 
ENDBRANCH   7  12
ENDBRANCH   2   5
BRANCH   1  20
ATOM     17  C   UNL     1       0.033  10.488  21.512  0.00  0.00    +0.000 A 
ATOM     18  C   UNL     1       0.704   9.512  22.236  0.00  0.00    +0.000 A 
ATOM     19  C   UNL     1       1.391   8.487  21.589  0.00  0.00    +0.000 A 
ATOM     20  C   UNL     1       1.428   8.396  20.200  0.00  0.00    +0.000 A 
ATOM     21  C   UNL     1       0.750   9.371  19.460  0.00  0.00    +0.000 A 
ATOM     22  C   UNL     1       0.044  10.401  20.113  0.00  0.00    +0.000 A 
BRANCH  17  26
ATOM     23  C   UNL     1      -1.135  13.712  23.076  0.00  0.00    +0.000 C 
ATOM     24  C   UNL     1      -0.236  12.856  22.229  0.00  0.00    +0.000 C 
ATOM     25  O   UNL     1       0.759  13.342  21.703  0.00  0.00    +0.000 OA
ATOM     26  N   UNL     1      -0.668  11.538  22.141  0.00  0.00    +0.000 N 
ATOM     27  H   UNL     1      -1.594  11.326  22.488  0.00  0.00    +0.000 HD
ENDBRANCH  17  26
ENDBRANCH   1  20
TORSDOF 4
ENDMDL
MODEL 3
REMARK VINA RESULT:      -8.4      1.507      1.882
REMARK  Name = 
REMARK  5 active torsions:
REMARK  status: ('A' for Active; 'I' for Inactive)
REMARK    1  A    between atoms: C_1  and  C_2
REMARK    2  A    between atoms: N_4  and  C_5
REMARK    3  A    between atoms: C_8  and  N_9
REMARK    4  A    between atoms: C_10  and  C_12
REMARK    5  A    between atoms: C_14  and  N_15
REMARK                            x       y       z     vdW  Elec       q    Type
REMARK                         _______ _______ _______ _____ _____    ______ ____
ROOT
ATOM      1  N   UNL     1       1.757   7.507  20.700  0.00  0.00    +0.000 N 
ATOM      2  C   UNL     1       2.249   7.178  19.447  0.00  0.00    +0.000 C 
ATOM      3  O   UNL     1       2.193   7.892  18.446  0.00  0.00    +0.000 OA
ATOM      4  H   UNL     1       1.882   6.841  21.453  0.00  0.00    +0.000 HD
ENDROOT
BRANCH   2   5
ATOM      5  C   UNL     1       2.944   5.884  19.248  0.00  0.00    +0.000 A 
ATOM      6  C   UNL     1       4.102   5.965  18.440  0.00  0.00    +0.000 A 
ATOM      7  C   UNL     1       4.761   4.823  17.975  0.00  0.00    +0.000 A 
ATOM      8  C   UNL     1       4.295   3.573  18.388  0.00  0.00    +0.000 A 
ATOM      9  C   UNL     1       3.172   3.483  19.227  0.00  0.00    +0.000 A 
ATOM     10  C   UNL     1       2.486   4.630  19.649  0.00  0.00    +0.000 A 
ATOM     11 CL   UNL     1       1.064   4.391  20.597  0.00  0.00    +0.000 Cl
BRANCH   7  12
ATOM     12  N   UNL     1       5.837   4.949  17.054  0.00  0.00    +0.000 N 
ATOM     13  C   UNL     1       5.833   5.558  15.820  0.00  0.00    +0.000 A 
ATOM     14  N   UNL     1       7.006   5.434  15.242  0.00  0.00    +0.000 NA
ATOM     15  N   UNL     1       7.814   4.732  16.093  0.00  0.00    +0.000 NA
ATOM     16  C   UNL     1       7.111   4.452  17.167  0.00  0.00    +0.000 A 
ENDBRANCH   7  12
ENDBRANCH   2   5
BRANCH   1  20
ATOM     17  C   UNL     1      -0.327  11.083  21.688  0.00  0.00    +0.000 A 
ATOM     18  C   UNL     1       0.107  10.853  20.390  0.00  0.00    +0.000 A 
ATOM     19  C   UNL     1       0.790   9.684  20.061  0.00  0.00    +0.000 A 
ATOM     20  C   UNL     1       1.065   8.707  21.014  0.00  0.00    +0.000 A 
ATOM     21  C   UNL     1       0.637   8.930  22.327  0.00  0.00    +0.000 A 
ATOM     22  C   UNL     1      -0.042  10.117  22.664  0.00  0.00    +0.000 A 
BRANCH  17  26
ATOM     23  C   UNL     1      -1.425  14.509  22.814  0.00  0.00    +0.000 C 
ATOM     24  C   UNL     1      -0.437  13.485  22.329  0.00  0.00    +0.000 C 
ATOM     25  O   UNL     1       0.748  13.779  22.218  0.00  0.00    +0.000 OA
ATOM     26  N   UNL     1      -1.022  12.256  22.049  0.00  0.00    +0.000 N 
ATOM     27  H   UNL     1      -2.033  12.214  22.027  0.00  0.00    +0.000 HD
ENDBRANCH  17  26
ENDBRANCH   1  20
TORSDOF 4
ENDMDL
MODEL 4
REMARK VINA RESULT:      -8.4      1.457      1.558
REMARK  Name = 
REMARK  5 active torsions:
REMARK  status: ('A' for Active; 'I' for Inactive)
REMARK    1  A    between atoms: C_1  and  C_2
REMARK    2  A    between atoms: N_4  and  C_5
REMARK    3  A    between atoms: C_8  and  N_9
REMARK    4  A    between atoms: C_10  and  C_12
REMARK    5  A    between atoms: C_14  and  N_15
REMARK                            x       y       z     vdW  Elec       q    Type
REMARK                         _______ _______ _______ _____ _____    ______ ____
ROOT
ATOM      1  N   UNL     1       1.852   7.545  20.803  0.00  0.00    +0.000 N 
ATOM      2  C   UNL     1       2.231   7.171  19.523  0.00  0.00    +0.000 C 
ATOM      3  O   UNL     1       2.013   7.813  18.496  0.00  0.00    +0.000 OA
ATOM      4  H   UNL     1       2.107   6.938  21.573  0.00  0.00    +0.000 HD
ENDROOT
BRANCH   2   5
ATOM      5  C   UNL     1       2.996   5.918  19.320  0.00  0.00    +0.000 A 
ATOM      6  C   UNL     1       4.152   6.066  18.518  0.00  0.00    +0.000 A 
ATOM      7  C   UNL     1       4.873   4.964  18.050  0.00  0.00    +0.000 A 
ATOM      8  C   UNL     1       4.474   3.688  18.455  0.00  0.00    +0.000 A 
ATOM      9  C   UNL     1       3.355   3.532  19.288  0.00  0.00    +0.000 A 
ATOM     10  C   UNL     1       2.605   4.638  19.713  0.00  0.00    +0.000 A 
ATOM     11 CL   UNL     1       1.195   4.317  20.653  0.00  0.00    +0.000 Cl
BRANCH   7  12
ATOM     12  N   UNL     1       5.945   5.154  17.135  0.00  0.00    +0.000 N 
ATOM     13  C   UNL     1       6.718   6.277  16.952  0.00  0.00    +0.000 A 
ATOM     14  N   UNL     1       7.583   6.087  15.982  0.00  0.00    +0.000 NA
ATOM     15  N   UNL     1       7.393   4.821  15.500  0.00  0.00    +0.000 NA
ATOM     16  C   UNL     1       6.420   4.275  16.194  0.00  0.00    +0.000 A 
ENDBRANCH   7  12
ENDBRANCH   2   5
BRANCH   1  20
ATOM     17  C   UNL     1      -0.359  11.063  21.718  0.00  0.00    +0.000 A 
ATOM     18  C   UNL     1      -0.145  10.090  22.685  0.00  0.00    +0.000 A 
ATOM     19  C   UNL     1       0.579   8.936  22.391  0.00  0.00    +0.000 A 
ATOM     20  C   UNL     1       1.110   8.711  21.124  0.00  0.00    +0.000 A 
ATOM     21  C   UNL     1       0.897   9.682  20.140  0.00  0.00    +0.000 A 
ATOM     22  C   UNL     1       0.154  10.844  20.432  0.00  0.00    +0.000 A 
BRANCH  17  26
ATOM     23  C   UNL     1      -1.561  14.508  22.663  0.00  0.00    +0.000 C 
ATOM     24  C   UNL     1      -0.531  13.479  22.292  0.00  0.00    +0.000 C 
ATOM     25  O   UNL     1       0.658  13.775  22.280  0.00  0.00    +0.000 OA
ATOM     26  N   UNL     1      -1.086  12.241  21.989  0.00  0.00    +0.000 N 
ATOM     27  H   UNL     1      -2.090  12.194  21.877  0.00  0.00    +0.000 HD
ENDBRANCH  17  26
ENDBRANCH   1  20
TORSDOF 4
ENDMDL
MODEL 5
REMARK VINA RESULT:      -8.4      1.356      1.811
REMARK  Name = 
REMARK  5 active torsions:
REMARK  status: ('A' for Active; 'I' for Inactive)
REMARK    1  A    between atoms: C_1  and  C_2
REMARK    2  A    between atoms: N_4  and  C_5
REMARK    3  A    between atoms: C_8  and  N_9
REMARK    4  A    between atoms: C_10  and  C_12
REMARK    5  A    between atoms: C_14  and  N_15
REMARK                            x       y       z     vdW  Elec       q    Type
REMARK                         _______ _______ _______ _____ _____    ______ ____
ROOT
ATOM      1  N   UNL     1       2.307   7.405  20.464  0.00  0.00    +0.000 N 
ATOM      2  C   UNL     1       1.986   6.058  20.394  0.00  0.00    +0.000 C 
ATOM      3  O   UNL     1       0.872   5.576  20.599  0.00  0.00    +0.000 OA
ATOM      4  H   UNL     1       3.259   7.681  20.253  0.00  0.00    +0.000 HD
ENDROOT
BRANCH   2   5
ATOM      5  C   UNL     1       3.026   5.075  20.009  0.00  0.00    +0.000 A 
ATOM      6  C   UNL     1       4.037   5.597  19.168  0.00  0.00    +0.000 A 
ATOM      7  C   UNL     1       4.975   4.773  18.539  0.00  0.00    +0.000 A 
ATOM      8  C   UNL     1       4.948   3.405  18.817  0.00  0.00    +0.000 A 
ATOM      9  C   UNL     1       3.977   2.881  19.685  0.00  0.00    +0.000 A 
ATOM     10  C   UNL     1       3.007   3.706  20.273  0.00  0.00    +0.000 A 
ATOM     11 CL   UNL     1       1.807   2.938  21.244  0.00  0.00    +0.000 Cl
BRANCH   7  12
ATOM     12  N   UNL     1       5.885   5.324  17.596  0.00  0.00    +0.000 N 
ATOM     13  C   UNL     1       6.105   4.930  16.296  0.00  0.00    +0.000 A 
ATOM     14  N   UNL     1       7.057   5.652  15.751  0.00  0.00    +0.000 NA
ATOM     15  N   UNL     1       7.488   6.546  16.692  0.00  0.00    +0.000 NA
ATOM     16  C   UNL     1       6.783   6.344  17.782  0.00  0.00    +0.000 A 
ENDBRANCH   7  12
ENDBRANCH   2   5
BRANCH   1  20
ATOM     17  C   UNL     1      -0.395  10.484  21.614  0.00  0.00    +0.000 A 
ATOM     18  C   UNL     1      -0.099  10.266  20.275  0.00  0.00    +0.000 A 
ATOM     19  C   UNL     1       0.784   9.259  19.893  0.00  0.00    +0.000 A 
ATOM     20  C   UNL     1       1.406   8.438  20.831  0.00  0.00    +0.000 A 
ATOM     21  C   UNL     1       1.120   8.652  22.183  0.00  0.00    +0.000 A 
ATOM     22  C   UNL     1       0.236   9.678  22.573  0.00  0.00    +0.000 A 
BRANCH  17  26
ATOM     23  C   UNL     1      -2.084  13.604  22.886  0.00  0.00    +0.000 C 
ATOM     24  C   UNL     1      -0.934  12.800  22.348  0.00  0.00    +0.000 C 
ATOM     25  O   UNL     1       0.174  13.313  22.232  0.00  0.00    +0.000 OA
ATOM     26  N   UNL     1      -1.287  11.494  22.029  0.00  0.00    +0.000 N 
ATOM     27  H   UNL     1      -2.273  11.267  22.019  0.00  0.00    +0.000 HD
ENDBRANCH  17  26
ENDBRANCH   1  20
TORSDOF 4
ENDMDL
MODEL 6
REMARK VINA RESULT:      -8.4      1.321      1.330
REMARK  Name = 
REMARK  5 active torsions:
REMARK  status: ('A' for Active; 'I' for Inactive)
REMARK    1  A    between atoms: C_1  and  C_2
REMARK    2  A    between atoms: N_4  and  C_5
REMARK    3  A    between atoms: C_8  and  N_9
REMARK    4  A    between atoms: C_10  and  C_12
REMARK    5  A    between atoms: C_14  and  N_15
REMARK                            x       y       z     vdW  Elec       q    Type
REMARK                         _______ _______ _______ _____ _____    ______ ____
ROOT
ATOM      1  N   UNL     1       2.338   7.385  20.290  0.00  0.00    +0.000 N 
ATOM      2  C   UNL     1       2.031   6.034  20.342  0.00  0.00    +0.000 C 
ATOM      3  O   UNL     1       0.942   5.559  20.668  0.00  0.00    +0.000 OA
ATOM      4  H   UNL     1       3.267   7.652  19.986  0.00  0.00    +0.000 HD
ENDROOT
BRANCH   2   5
ATOM      5  C   UNL     1       3.051   5.033  19.948  0.00  0.00    +0.000 A 
ATOM      6  C   UNL     1       4.100   5.554  19.155  0.00  0.00    +0.000 A 
ATOM      7  C   UNL     1       5.030   4.725  18.522  0.00  0.00    +0.000 A 
ATOM      8  C   UNL     1       4.954   3.349  18.747  0.00  0.00    +0.000 A 
ATOM      9  C   UNL     1       3.944   2.825  19.569  0.00  0.00    +0.000 A 
ATOM     10  C   UNL     1       2.983   3.657  20.161  0.00  0.00    +0.000 A 
ATOM     11 CL   UNL     1       1.733   2.892  21.070  0.00  0.00    +0.000 Cl
BRANCH   7  12
ATOM     12  N   UNL     1       5.982   5.282  17.624  0.00  0.00    +0.000 N 
ATOM     13  C   UNL     1       6.606   6.506  17.698  0.00  0.00    +0.000 A 
ATOM     14  N   UNL     1       7.390   6.686  16.660  0.00  0.00    +0.000 NA
ATOM     15  N   UNL     1       7.296   5.571  15.873  0.00  0.00    +0.000 NA
ATOM     16  C   UNL     1       6.460   4.743  16.456  0.00  0.00    +0.000 A 
ENDBRANCH   7  12
ENDBRANCH   2   5
BRANCH   1  20
ATOM     17  C   UNL     1      -0.310  10.551  21.322  0.00  0.00    +0.000 A 
ATOM     18  C   UNL     1       0.226   9.729  22.304  0.00  0.00    +0.000 A 
ATOM     19  C   UNL     1       1.095   8.691  21.972  0.00  0.00    +0.000 A 
ATOM     20  C   UNL     1       1.454   8.435  20.651  0.00  0.00    +0.000 A 
ATOM     21  C   UNL     1       0.915   9.253  19.653  0.00  0.00    +0.000 A 
ATOM     22  C   UNL     1       0.027  10.295  19.985  0.00  0.00    +0.000 A 
BRANCH  17  26
ATOM     23  C   UNL     1      -1.971  13.753  22.416  0.00  0.00    +0.000 C 
ATOM     24  C   UNL     1      -0.807  12.885  22.029  0.00  0.00    +0.000 C 
ATOM     25  O   UNL     1       0.335  13.327  22.086  0.00  0.00    +0.000 OA
ATOM     26  N   UNL     1      -1.190  11.611  21.630  0.00  0.00    +0.000 N 
ATOM     27  H   UNL     1      -2.175  11.447  21.473  0.00  0.00    +0.000 HD
ENDBRANCH  17  26
ENDBRANCH   1  20
TORSDOF 4
ENDMDL
MODEL 7
REMARK VINA RESULT:      -8.3      0.959      1.356
REMARK  Name = 
REMARK  5 active torsions:
REMARK  status: ('A' for Active; 'I' for Inactive)
REMARK    1  A    between atoms: C_1  and  C_2
REMARK    2  A    between atoms: N_4  and  C_5
REMARK    3  A    between atoms: C_8  and  N_9
REMARK    4  A    between atoms: C_10  and  C_12
REMARK    5  A    between atoms: C_14  and  N_15
REMARK                            x       y       z     vdW  Elec       q    Type
REMARK                         _______ _______ _______ _____ _____    ______ ____
ROOT
ATOM      1  N   UNL     1       2.112   7.400  19.386  0.00  0.00    +0.000 N 
ATOM      2  C   UNL     1       2.094   6.077  19.802  0.00  0.00    +0.000 C 
ATOM      3  O   UNL     1       1.450   5.634  20.752  0.00  0.00    +0.000 OA
ATOM      4  H   UNL     1       2.669   7.638  18.574  0.00  0.00    +0.000 HD
ENDROOT
BRANCH   2   5
ATOM      5  C   UNL     1       2.871   5.062  19.052  0.00  0.00    +0.000 A 
ATOM      6  C   UNL     1       4.082   5.546  18.502  0.00  0.00    +0.000 A 
ATOM      7  C   UNL     1       4.835   4.794  17.595  0.00  0.00    +0.000 A 
ATOM      8  C   UNL     1       4.407   3.501  17.288  0.00  0.00    +0.000 A 
ATOM      9  C   UNL     1       3.230   2.994  17.862  0.00  0.00    +0.000 A 
ATOM     10  C   UNL     1       2.452   3.771  18.732  0.00  0.00    +0.000 A 
ATOM     11 CL   UNL     1       0.978   3.078  19.299  0.00  0.00    +0.000 Cl
BRANCH   7  12
ATOM     12  N   UNL     1       5.970   5.373  16.963  0.00  0.00    +0.000 N 
ATOM     13  C   UNL     1       6.667   6.499  17.334  0.00  0.00    +0.000 A 
ATOM     14  N   UNL     1       7.631   6.747  16.477  0.00  0.00    +0.000 NA
ATOM     15  N   UNL     1       7.586   5.778  15.513  0.00  0.00    +0.000 NA
ATOM     16  C   UNL     1       6.598   4.966  15.813  0.00  0.00    +0.000 A 
ENDBRANCH   7  12
ENDBRANCH   2   5
BRANCH   1  20
ATOM     17  C   UNL     1       0.048  10.560  21.349  0.00  0.00    +0.000 A 
ATOM     18  C   UNL     1       0.104  10.506  19.963  0.00  0.00    +0.000 A 
ATOM     19  C   UNL     1       0.778   9.473  19.315  0.00  0.00    +0.000 A 
ATOM     20  C   UNL     1       1.422   8.462  20.025  0.00  0.00    +0.000 A 
ATOM     21  C   UNL     1       1.377   8.510  21.423  0.00  0.00    +0.000 A 
ATOM     22  C   UNL     1       0.707   9.561  22.080  0.00  0.00    +0.000 A 
BRANCH  17  26
ATOM     23  C   UNL     1      -1.048  13.730  23.070  0.00  0.00    +0.000 C 
ATOM     24  C   UNL     1      -0.171  12.897  22.178  0.00  0.00    +0.000 C 
ATOM     25  O   UNL     1       0.830  13.388  21.668  0.00  0.00    +0.000 OA
ATOM     26  N   UNL     1      -0.629  11.593  22.031  0.00  0.00    +0.000 N 
ATOM     27  H   UNL     1      -1.557  11.383  22.374  0.00  0.00    +0.000 HD
ENDBRANCH  17  26
ENDBRANCH   1  20
TORSDOF 4
ENDMDL
MODEL 8
REMARK VINA RESULT:      -8.3      1.261      1.382
REMARK  Name = 
REMARK  5 active torsions:
REMARK  status: ('A' for Active; 'I' for Inactive)
REMARK    1  A    between atoms: C_1  and  C_2
REMARK    2  A    between atoms: N_4  and  C_5
REMARK    3  A    between atoms: C_8  and  N_9
REMARK    4  A    between atoms: C_10  and  C_12
REMARK    5  A    between atoms: C_14  and  N_15
REMARK                            x       y       z     vdW  Elec       q    Type
REMARK                         _______ _______ _______ _____ _____    ______ ____
ROOT
ATOM      1  N   UNL     1       1.693   7.496  20.833  0.00  0.00    +0.000 N 
ATOM      2  C   UNL     1       2.195   7.213  19.573  0.00  0.00    +0.000 C 
ATOM      3  O   UNL     1       2.128   7.954  18.592  0.00  0.00    +0.000 OA
ATOM      4  H   UNL     1       1.828   6.811  21.567  0.00  0.00    +0.000 HD
ENDROOT
BRANCH   2   5
ATOM      5  C   UNL     1       2.915   5.938  19.339  0.00  0.00    +0.000 A 
ATOM      6  C   UNL     1       4.093   6.069  18.566  0.00  0.00    +0.000 A 
ATOM      7  C   UNL     1       4.781   4.957  18.072  0.00  0.00    +0.000 A 
ATOM      8  C   UNL     1       4.324   3.685  18.422  0.00  0.00    +0.000 A 
ATOM      9  C   UNL     1       3.181   3.543  19.226  0.00  0.00    +0.000 A 
ATOM     10  C   UNL     1       2.466   4.662  19.677  0.00  0.00    +0.000 A 
ATOM     11 CL   UNL     1       1.025   4.363  20.575  0.00  0.00    +0.000 Cl
BRANCH   7  12
ATOM     12  N   UNL     1       5.878   5.138  17.186  0.00  0.00    +0.000 N 
ATOM     13  C   UNL     1       6.671   6.251  17.030  0.00  0.00    +0.000 A 
ATOM     14  N   UNL     1       7.558   6.055  16.082  0.00  0.00    +0.000 NA
ATOM     15  N   UNL     1       7.364   4.794  15.589  0.00  0.00    +0.000 NA
ATOM     16  C   UNL     1       6.367   4.258  16.254  0.00  0.00    +0.000 A 
ENDBRANCH   7  12
ENDBRANCH   2   5
BRANCH   1  20
ATOM     17  C   UNL     1      -0.448  11.039  21.817  0.00  0.00    +0.000 A 
ATOM     18  C   UNL     1       0.008  10.188  22.815  0.00  0.00    +0.000 A 
ATOM     19  C   UNL     1       0.710   9.027  22.499  0.00  0.00    +0.000 A 
ATOM     20  C   UNL     1       0.977   8.673  21.179  0.00  0.00    +0.000 A 
ATOM     21  C   UNL     1       0.519   9.520  20.165  0.00  0.00    +0.000 A 
ATOM     22  C   UNL     1      -0.203  10.688  20.482  0.00  0.00    +0.000 A 
BRANCH  17  26
ATOM     23  C   UNL     1      -2.908  13.678  22.911  0.00  0.00    +0.000 C 
ATOM     24  C   UNL     1      -2.302  12.302  22.895  0.00  0.00    +0.000 C 
ATOM     25  O   UNL     1      -2.820  11.395  23.536  0.00  0.00    +0.000 OA
ATOM     26  N   UNL     1      -1.159  12.222  22.109  0.00  0.00    +0.000 N 
ATOM     27  H   UNL     1      -0.758  13.090  21.779  0.00  0.00    +0.000 HD
ENDBRANCH  17  26
ENDBRANCH   1  20
TORSDOF 4
ENDMDL
MODEL 9
REMARK VINA RESULT:      -8.2      1.084      1.310
REMARK  Name = 
REMARK  5 active torsions:
REMARK  status: ('A' for Active; 'I' for Inactive)
REMARK    1  A    between atoms: C_1  and  C_2
REMARK    2  A    between atoms: N_4  and  C_5
REMARK    3  A    between atoms: C_8  and  N_9
REMARK    4  A    between atoms: C_10  and  C_12
REMARK    5  A    between atoms: C_14  and  N_15
REMARK                            x       y       z     vdW  Elec       q    Type
REMARK                         _______ _______ _______ _____ _____    ______ ____
ROOT
ATOM      1  N   UNL     1       1.993   7.178  20.124  0.00  0.00    +0.000 N 
ATOM      2  C   UNL     1       2.492   7.004  18.842  0.00  0.00    +0.000 C 
ATOM      3  O   UNL     1       2.543   7.872  17.970  0.00  0.00    +0.000 OA
ATOM      4  H   UNL     1       2.024   6.390  20.759  0.00  0.00    +0.000 HD
ENDROOT
BRANCH   2   5
ATOM      5  C   UNL     1       3.056   5.693  18.446  0.00  0.00    +0.000 A 
ATOM      6  C   UNL     1       4.148   5.777  17.549  0.00  0.00    +0.000 A 
ATOM      7  C   UNL     1       4.667   4.648  16.909  0.00  0.00    +0.000 A 
ATOM      8  C   UNL     1       4.133   3.398  17.229  0.00  0.00    +0.000 A 
ATOM      9  C   UNL     1       3.079   3.298  18.151  0.00  0.00    +0.000 A 
ATOM     10  C   UNL     1       2.528   4.439  18.752  0.00  0.00    +0.000 A 
ATOM     11 CL   UNL     1       1.174   4.202  19.794  0.00  0.00    +0.000 Cl
BRANCH   7  12
ATOM     12  N   UNL     1       5.672   4.796  15.913  0.00  0.00    +0.000 N 
ATOM     13  C   UNL     1       5.673   4.305  14.628  0.00  0.00    +0.000 A 
ATOM     14  N   UNL     1       6.797   4.611  14.020  0.00  0.00    +0.000 NA
ATOM     15  N   UNL     1       7.566   5.316  14.904  0.00  0.00    +0.000 NA
ATOM     16  C   UNL     1       6.887   5.423  16.023  0.00  0.00    +0.000 A 
ENDBRANCH   7  12
ENDBRANCH   2   5
BRANCH   1  20
ATOM     17  C   UNL     1       0.274  10.798  21.555  0.00  0.00    +0.000 A 
ATOM     18  C   UNL     1       0.640   9.791  22.438  0.00  0.00    +0.000 A 
ATOM     19  C   UNL     1       1.204   8.604  21.975  0.00  0.00    +0.000 A 
ATOM     20  C   UNL     1       1.418   8.378  20.617  0.00  0.00    +0.000 A 
ATOM     21  C   UNL     1       1.049   9.384  19.718  0.00  0.00    +0.000 A 
ATOM     22  C   UNL     1       0.466  10.580  20.183  0.00  0.00    +0.000 A 
BRANCH  17  26
ATOM     23  C   UNL     1      -1.864  13.547  22.997  0.00  0.00    +0.000 C 
ATOM     24  C   UNL     1      -1.417  12.124  22.810  0.00  0.00    +0.000 C 
ATOM     25  O   UNL     1      -2.029  11.211  23.352  0.00  0.00    +0.000 OA
ATOM     26  N   UNL     1      -0.296  12.010  21.996  0.00  0.00    +0.000 N 
ATOM     27  H   UNL     1       0.198  12.860  21.760  0.00  0.00    +0.000 HD
ENDBRANCH  17  26
ENDBRANCH   1  20
TORSDOF 4
ENDMDL
