MODEL 1
REMARK VINA RESULT:      -9.7      0.000      0.000
REMARK  Name = 
REMARK  5 active torsions:
REMARK  status: ('A' for Active; 'I' for Inactive)
REMARK    1  A    between atoms: C_2  and  C_5
REMARK    2  A    between atoms: C_8  and  C_9
REMARK    3  A    between atoms: C_11  and  C_12
REMARK    4  A    between atoms: N_14  and  C_15
REMARK    5  A    between atoms: C_19  and  C_20
REMARK                            x       y       z     vdW  Elec       q    Type
REMARK                         _______ _______ _______ _____ _____    ______ ____
ROOT
ATOM      1  C   UNL     1       3.157   6.323  17.978  0.00  0.00    +0.000 A 
ATOM      2  C   UNL     1       4.537   6.183  18.088  0.00  0.00    +0.000 A 
ATOM      3  N   UNL     1       4.772   5.061  17.339  0.00  0.00    +0.000 N 
ATOM      4  C   UNL     1       3.813   4.161  17.751  0.00  0.00    +0.000 A 
ATOM      5  C   UNL     1       3.839   2.758  17.826  0.00  0.00    +0.000 A 
ATOM      6  C   UNL     1       2.636   2.117  18.066  0.00  0.00    +0.000 A 
ATOM      7  C   UNL     1       1.459   2.856  18.189  0.00  0.00    +0.000 A 
ATOM      8  C   UNL     1       1.456   4.270  18.137  0.00  0.00    +0.000 A 
ATOM      9  C   UNL     1       2.682   4.957  17.986  0.00  0.00    +0.000 A 
ENDROOT
BRANCH   3  10
ATOM     10  C   UNL     1       5.654   4.981  16.235  0.00  0.00    +0.000 A 
ATOM     11  C   UNL     1       6.970   5.443  16.327  0.00  0.00    +0.000 A 
ATOM     12  C   UNL     1       7.825   5.334  15.231  0.00  0.00    +0.000 A 
ATOM     13  C   UNL     1       7.375   4.756  14.045  0.00  0.00    +0.000 A 
ATOM     14  C   UNL     1       6.080   4.232  13.958  0.00  0.00    +0.000 A 
ATOM     15  C   UNL     1       5.240   4.314  15.075  0.00  0.00    +0.000 A 
BRANCH  14  16
ATOM     16  C   UNL     1       5.547   3.600  12.702  0.00  0.00    +0.000 C 
ATOM     17  F   UNL     1       4.197   3.701  12.566  0.00  0.00    +0.000 F 
ATOM     18  F   UNL     1       6.086   4.141  11.575  0.00  0.00    +0.000 F 
ATOM     19  F   UNL     1       5.832   2.268  12.643  0.00  0.00    +0.000 F 
ENDBRANCH  14  16
ENDBRANCH   3  10
BRANCH   1  22
ATOM     20  C   UNL     1       1.407   9.516  18.598  0.00  0.00    +0.000 C 
ATOM     21  C   UNL     1       1.391   8.017  18.740  0.00  0.00    +0.000 C 
ATOM     22  C   UNL     1       2.584   7.653  17.910  0.00  0.00    +0.000 C 
ATOM     23  N   UNL     1       3.069   8.618  17.204  0.00  0.00    +0.000 NA
ATOM     24  O   UNL     1       2.249   9.764  17.450  0.00  0.00    +0.000 OA
BRANCH  20  28
ATOM     25  C   UNL     1      -2.684  10.985  18.214  0.00  0.00    +0.000 A 
ATOM     26  C   UNL     1      -1.847  11.475  19.226  0.00  0.00    +0.000 A 
ATOM     27  C   UNL     1      -0.520  11.029  19.337  0.00  0.00    +0.000 A 
ATOM     28  C   UNL     1       0.002  10.082  18.435  0.00  0.00    +0.000 A 
ATOM     29  C   UNL     1      -0.838   9.612  17.415  0.00  0.00    +0.000 A 
ATOM     30  C   UNL     1      -2.158  10.059  17.303  0.00  0.00    +0.000 A 
BRANCH  25  32
ATOM     31  F   UNL     1      -5.018  10.402  18.332  0.00  0.00    +0.000 F 
ATOM     32  C   UNL     1      -4.130  11.408  18.095  0.00  0.00    +0.000 C 
ATOM     33  F   UNL     1      -4.432  11.883  16.854  0.00  0.00    +0.000 F 
ATOM     34  F   UNL     1      -4.458  12.405  18.964  0.00  0.00    +0.000 F 
ENDBRANCH  25  32
ENDBRANCH  20  28
ENDBRANCH   1  22
TORSDOF 5
ENDMDL
MODEL 2
REMARK VINA RESULT:      -9.7      2.301      3.000
REMARK  Name = 
REMARK  5 active torsions:
REMARK  status: ('A' for Active; 'I' for Inactive)
REMARK    1  A    between atoms: C_2  and  C_5
REMARK    2  A    between atoms: C_8  and  C_9
REMARK    3  A    between atoms: C_11  and  C_12
REMARK    4  A    between atoms: N_14  and  C_15
REMARK    5  A    between atoms: C_19  and  C_20
REMARK                            x       y       z     vdW  Elec       q    Type
REMARK                         _______ _______ _______ _____ _____    ______ ____
ROOT
ATOM      1  C   UNL     1       2.560   5.790  19.356  0.00  0.00    +0.000 A 
ATOM      2  C   UNL     1       3.868   5.574  19.780  0.00  0.00    +0.000 A 
ATOM      3  N   UNL     1       4.270   4.555  18.959  0.00  0.00    +0.000 N 
ATOM      4  C   UNL     1       3.230   3.652  18.990  0.00  0.00    +0.000 A 
ATOM      5  C   UNL     1       3.221   2.251  18.867  0.00  0.00    +0.000 A 
ATOM      6  C   UNL     1       1.990   1.639  18.712  0.00  0.00    +0.000 A 
ATOM      7  C   UNL     1       0.827   2.407  18.647  0.00  0.00    +0.000 A 
ATOM      8  C   UNL     1       0.852   3.814  18.799  0.00  0.00    +0.000 A 
ATOM      9  C   UNL     1       2.084   4.459  19.053  0.00  0.00    +0.000 A 
ENDROOT
BRANCH   3  10
ATOM     10  C   UNL     1       5.398   4.585  18.104  0.00  0.00    +0.000 A 
ATOM     11  C   UNL     1       6.694   4.669  18.622  0.00  0.00    +0.000 A 
ATOM     12  C   UNL     1       7.790   4.677  17.761  0.00  0.00    +0.000 A 
ATOM     13  C   UNL     1       7.599   4.591  16.382  0.00  0.00    +0.000 A 
ATOM     14  C   UNL     1       6.311   4.443  15.852  0.00  0.00    +0.000 A 
ATOM     15  C   UNL     1       5.220   4.401  16.728  0.00  0.00    +0.000 A 
BRANCH  14  16
ATOM     16  C   UNL     1       6.052   4.348  14.373  0.00  0.00    +0.000 C 
ATOM     17  F   UNL     1       6.887   5.112  13.619  0.00  0.00    +0.000 F 
ATOM     18  F   UNL     1       6.168   3.075  13.904  0.00  0.00    +0.000 F 
ATOM     19  F   UNL     1       4.787   4.744  14.053  0.00  0.00    +0.000 F 
ENDBRANCH  14  16
ENDBRANCH   3  10
BRANCH   1  22
ATOM     20  C   UNL     1       1.593   9.276  20.100  0.00  0.00    +0.000 C 
ATOM     21  C   UNL     1       1.765   7.873  20.620  0.00  0.00    +0.000 C 
ATOM     22  C   UNL     1       2.036   7.142  19.341  0.00  0.00    +0.000 C 
ATOM     23  N   UNL     1       1.823   7.826  18.269  0.00  0.00    +0.000 NA
ATOM     24  O   UNL     1       1.357   9.113  18.684  0.00  0.00    +0.000 OA
BRANCH  20  28
ATOM     25  C   UNL     1      -1.531  11.474  22.210  0.00  0.00    +0.000 A 
ATOM     26  C   UNL     1      -1.290  11.715  20.850  0.00  0.00    +0.000 A 
ATOM     27  C   UNL     1      -0.306  10.991  20.157  0.00  0.00    +0.000 A 
ATOM     28  C   UNL     1       0.458  10.005  20.810  0.00  0.00    +0.000 A 
ATOM     29  C   UNL     1       0.196   9.758  22.165  0.00  0.00    +0.000 A 
ATOM     30  C   UNL     1      -0.785  10.477  22.853  0.00  0.00    +0.000 A 
BRANCH  25  32
ATOM     31  F   UNL     1      -3.566  12.761  22.236  0.00  0.00    +0.000 F 
ATOM     32  C   UNL     1      -2.549  12.268  22.996  0.00  0.00    +0.000 C 
ATOM     33  F   UNL     1      -1.997  13.345  23.621  0.00  0.00    +0.000 F 
ATOM     34  F   UNL     1      -3.143  11.533  23.979  0.00  0.00    +0.000 F 
ENDBRANCH  25  32
ENDBRANCH  20  28
ENDBRANCH   1  22
TORSDOF 5
ENDMDL
MODEL 3
REMARK VINA RESULT:      -9.6      1.146      1.494
REMARK  Name = 
REMARK  5 active torsions:
REMARK  status: ('A' for Active; 'I' for Inactive)
REMARK    1  A    between atoms: C_2  and  C_5
REMARK    2  A    between atoms: C_8  and  C_9
REMARK    3  A    between atoms: C_11  and  C_12
REMARK    4  A    between atoms: N_14  and  C_15
REMARK    5  A    between atoms: C_19  and  C_20
REMARK                            x       y       z     vdW  Elec       q    Type
REMARK                         _______ _______ _______ _____ _____    ______ ____
ROOT
ATOM      1  C   UNL     1       2.649   6.374  18.844  0.00  0.00    +0.000 A 
ATOM      2  C   UNL     1       3.951   6.300  19.330  0.00  0.00    +0.000 A 
ATOM      3  N   UNL     1       4.378   5.101  18.823  0.00  0.00    +0.000 N 
ATOM      4  C   UNL     1       3.346   4.226  19.084  0.00  0.00    +0.000 A 
ATOM      5  C   UNL     1       3.353   2.845  19.346  0.00  0.00    +0.000 A 
ATOM      6  C   UNL     1       2.131   2.197  19.346  0.00  0.00    +0.000 A 
ATOM      7  C   UNL     1       0.962   2.901  19.057  0.00  0.00    +0.000 A 
ATOM      8  C   UNL     1       0.970   4.297  18.821  0.00  0.00    +0.000 A 
ATOM      9  C   UNL     1       2.191   5.004  18.908  0.00  0.00    +0.000 A 
ENDROOT
BRANCH   3  10
ATOM     10  C   UNL     1       5.520   4.914  18.009  0.00  0.00    +0.000 A 
ATOM     11  C   UNL     1       6.800   4.840  18.567  0.00  0.00    +0.000 A 
ATOM     12  C   UNL     1       7.908   4.636  17.746  0.00  0.00    +0.000 A 
ATOM     13  C   UNL     1       7.743   4.493  16.368  0.00  0.00    +0.000 A 
ATOM     14  C   UNL     1       6.463   4.502  15.803  0.00  0.00    +0.000 A 
ATOM     15  C   UNL     1       5.354   4.673  16.640  0.00  0.00    +0.000 A 
BRANCH  14  16
ATOM     16  C   UNL     1       6.232   4.354  14.323  0.00  0.00    +0.000 C 
ATOM     17  F   UNL     1       7.144   5.010  13.557  0.00  0.00    +0.000 F 
ATOM     18  F   UNL     1       6.256   3.054  13.918  0.00  0.00    +0.000 F 
ATOM     19  F   UNL     1       5.012   4.833  13.950  0.00  0.00    +0.000 F 
ENDBRANCH  14  16
ENDBRANCH   3  10
BRANCH   1  22
ATOM     20  C   UNL     1       1.057   9.703  18.686  0.00  0.00    +0.000 C 
ATOM     21  C   UNL     1       1.009   8.303  19.240  0.00  0.00    +0.000 C 
ATOM     22  C   UNL     1       2.112   7.663  18.454  0.00  0.00    +0.000 C 
ATOM     23  N   UNL     1       2.560   8.369  17.473  0.00  0.00    +0.000 NA
ATOM     24  O   UNL     1       1.800   9.581  17.453  0.00  0.00    +0.000 OA
BRANCH  20  28
ATOM     25  C   UNL     1      -3.012  11.202  18.198  0.00  0.00    +0.000 A 
ATOM     26  C   UNL     1      -2.161  11.763  19.161  0.00  0.00    +0.000 A 
ATOM     27  C   UNL     1      -0.840  11.306  19.304  0.00  0.00    +0.000 A 
ATOM     28  C   UNL     1      -0.340  10.277  18.483  0.00  0.00    +0.000 A 
ATOM     29  C   UNL     1      -1.193   9.736  17.510  0.00  0.00    +0.000 A 
ATOM     30  C   UNL     1      -2.506  10.194  17.367  0.00  0.00    +0.000 A 
BRANCH  25  32
ATOM     31  F   UNL     1      -5.348  10.618  18.159  0.00  0.00    +0.000 F 
ATOM     32  C   UNL     1      -4.451  11.638  18.050  0.00  0.00    +0.000 C 
ATOM     33  F   UNL     1      -4.696  12.219  16.842  0.00  0.00    +0.000 F 
ATOM     34  F   UNL     1      -4.820  12.558  18.986  0.00  0.00    +0.000 F 
ENDBRANCH  25  32
ENDBRANCH  20  28
ENDBRANCH   1  22
TORSDOF 5
ENDMDL
MODEL 4
REMARK VINA RESULT:      -9.4      0.223      1.251
REMARK  Name = 
REMARK  5 active torsions:
REMARK  status: ('A' for Active; 'I' for Inactive)
REMARK    1  A    between atoms: C_2  and  C_5
REMARK    2  A    between atoms: C_8  and  C_9
REMARK    3  A    between atoms: C_11  and  C_12
REMARK    4  A    between atoms: N_14  and  C_15
REMARK    5  A    between atoms: C_19  and  C_20
REMARK                            x       y       z     vdW  Elec       q    Type
REMARK                         _______ _______ _______ _____ _____    ______ ____
ROOT
ATOM      1  C   UNL     1       3.158   6.250  17.942  0.00  0.00    +0.000 A 
ATOM      2  C   UNL     1       4.545   6.155  18.016  0.00  0.00    +0.000 A 
ATOM      3  N   UNL     1       4.796   5.038  17.264  0.00  0.00    +0.000 N 
ATOM      4  C   UNL     1       3.877   4.110  17.703  0.00  0.00    +0.000 A 
ATOM      5  C   UNL     1       3.949   2.708  17.781  0.00  0.00    +0.000 A 
ATOM      6  C   UNL     1       2.774   2.030  18.054  0.00  0.00    +0.000 A 
ATOM      7  C   UNL     1       1.578   2.731  18.205  0.00  0.00    +0.000 A 
ATOM      8  C   UNL     1       1.528   4.145  18.150  0.00  0.00    +0.000 A 
ATOM      9  C   UNL     1       2.727   4.870  17.966  0.00  0.00    +0.000 A 
ENDROOT
BRANCH   3  10
ATOM     10  C   UNL     1       5.651   4.982  16.138  0.00  0.00    +0.000 A 
ATOM     11  C   UNL     1       6.948   5.501  16.190  0.00  0.00    +0.000 A 
ATOM     12  C   UNL     1       7.778   5.416  15.073  0.00  0.00    +0.000 A 
ATOM     13  C   UNL     1       7.322   4.805  13.905  0.00  0.00    +0.000 A 
ATOM     14  C   UNL     1       6.049   4.226  13.859  0.00  0.00    +0.000 A 
ATOM     15  C   UNL     1       5.236   4.286  14.997  0.00  0.00    +0.000 A 
BRANCH  14  16
ATOM     16  C   UNL     1       5.510   3.557  12.624  0.00  0.00    +0.000 C 
ATOM     17  F   UNL     1       5.957   4.105  11.462  0.00  0.00    +0.000 F 
ATOM     18  F   UNL     1       5.823   2.233  12.568  0.00  0.00    +0.000 F 
ATOM     19  F   UNL     1       4.149   3.614  12.568  0.00  0.00    +0.000 F 
ENDBRANCH  14  16
ENDBRANCH   3  10
BRANCH   1  22
ATOM     20  C   UNL     1       1.384   9.418  18.623  0.00  0.00    +0.000 C 
ATOM     21  C   UNL     1       1.428   7.925  18.819  0.00  0.00    +0.000 C 
ATOM     22  C   UNL     1       2.541   7.561  17.885  0.00  0.00    +0.000 C 
ATOM     23  N   UNL     1       2.923   8.510  17.099  0.00  0.00    +0.000 NA
ATOM     24  O   UNL     1       2.098   9.643  17.386  0.00  0.00    +0.000 OA
BRANCH  20  28
ATOM     25  C   UNL     1      -2.652  11.066  18.434  0.00  0.00    +0.000 A 
ATOM     26  C   UNL     1      -2.233  10.107  17.500  0.00  0.00    +0.000 A 
ATOM     27  C   UNL     1      -0.946   9.550  17.573  0.00  0.00    +0.000 A 
ATOM     28  C   UNL     1      -0.047   9.940  18.584  0.00  0.00    +0.000 A 
ATOM     29  C   UNL     1      -0.482  10.885  19.524  0.00  0.00    +0.000 A 
ATOM     30  C   UNL     1      -1.765  11.436  19.453  0.00  0.00    +0.000 A 
BRANCH  25  32
ATOM     31  F   UNL     1      -4.159  12.784  19.193  0.00  0.00    +0.000 F 
ATOM     32  C   UNL     1      -4.012  11.719  18.356  0.00  0.00    +0.000 C 
ATOM     33  F   UNL     1      -5.020  10.858  18.673  0.00  0.00    +0.000 F 
ATOM     34  F   UNL     1      -4.301  12.184  17.108  0.00  0.00    +0.000 F 
ENDBRANCH  25  32
ENDBRANCH  20  28
ENDBRANCH   1  22
TORSDOF 5
ENDMDL
MODEL 5
REMARK VINA RESULT:      -9.4      2.264      2.808
REMARK  Name = 
REMARK  5 active torsions:
REMARK  status: ('A' for Active; 'I' for Inactive)
REMARK    1  A    between atoms: C_2  and  C_5
REMARK    2  A    between atoms: C_8  and  C_9
REMARK    3  A    between atoms: C_11  and  C_12
REMARK    4  A    between atoms: N_14  and  C_15
REMARK    5  A    between atoms: C_19  and  C_20
REMARK                            x       y       z     vdW  Elec       q    Type
REMARK                         _______ _______ _______ _____ _____    ______ ____
ROOT
ATOM      1  C   UNL     1       2.532   5.849  19.372  0.00  0.00    +0.000 A 
ATOM      2  C   UNL     1       3.839   5.641  19.802  0.00  0.00    +0.000 A 
ATOM      3  N   UNL     1       4.245   4.611  18.996  0.00  0.00    +0.000 N 
ATOM      4  C   UNL     1       3.206   3.707  19.038  0.00  0.00    +0.000 A 
ATOM      5  C   UNL     1       3.200   2.305  18.934  0.00  0.00    +0.000 A 
ATOM      6  C   UNL     1       1.970   1.689  18.785  0.00  0.00    +0.000 A 
ATOM      7  C   UNL     1       0.806   2.454  18.706  0.00  0.00    +0.000 A 
ATOM      8  C   UNL     1       0.828   3.863  18.838  0.00  0.00    +0.000 A 
ATOM      9  C   UNL     1       2.059   4.513  19.086  0.00  0.00    +0.000 A 
ENDROOT
BRANCH   3  10
ATOM     10  C   UNL     1       5.375   4.630  18.144  0.00  0.00    +0.000 A 
ATOM     11  C   UNL     1       6.670   4.716  18.664  0.00  0.00    +0.000 A 
ATOM     12  C   UNL     1       7.768   4.714  17.806  0.00  0.00    +0.000 A 
ATOM     13  C   UNL     1       7.580   4.616  16.427  0.00  0.00    +0.000 A 
ATOM     14  C   UNL     1       6.294   4.466  15.896  0.00  0.00    +0.000 A 
ATOM     15  C   UNL     1       5.200   4.434  16.769  0.00  0.00    +0.000 A 
BRANCH  14  16
ATOM     16  C   UNL     1       6.037   4.358  14.417  0.00  0.00    +0.000 C 
ATOM     17  F   UNL     1       4.763   4.668  14.057  0.00  0.00    +0.000 F 
ATOM     18  F   UNL     1       6.851   5.168  13.686  0.00  0.00    +0.000 F 
ATOM     19  F   UNL     1       6.264   3.096  13.954  0.00  0.00    +0.000 F 
ENDBRANCH  14  16
ENDBRANCH   3  10
BRANCH   1  22
ATOM     20  C   UNL     1       1.641   9.375  20.017  0.00  0.00    +0.000 C 
ATOM     21  C   UNL     1       1.870   8.003  20.593  0.00  0.00    +0.000 C 
ATOM     22  C   UNL     1       2.006   7.200  19.336  0.00  0.00    +0.000 C 
ATOM     23  N   UNL     1       1.679   7.823  18.256  0.00  0.00    +0.000 NA
ATOM     24  O   UNL     1       1.257   9.133  18.645  0.00  0.00    +0.000 OA
BRANCH  20  28
ATOM     25  C   UNL     1      -1.510  11.476  22.186  0.00  0.00    +0.000 A 
ATOM     26  C   UNL     1      -0.723  10.513  22.834  0.00  0.00    +0.000 A 
ATOM     27  C   UNL     1       0.312   9.854  22.151  0.00  0.00    +0.000 A 
ATOM     28  C   UNL     1       0.586  10.146  20.801  0.00  0.00    +0.000 A 
ATOM     29  C   UNL     1      -0.194  11.124  20.167  0.00  0.00    +0.000 A 
ATOM     30  C   UNL     1      -1.222  11.781  20.849  0.00  0.00    +0.000 A 
BRANCH  25  32
ATOM     31  F   UNL     1      -3.143  11.487  23.955  0.00  0.00    +0.000 F 
ATOM     32  C   UNL     1      -2.661  12.168  22.878  0.00  0.00    +0.000 C 
ATOM     33  F   UNL     1      -3.727  12.356  22.051  0.00  0.00    +0.000 F 
ATOM     34  F   UNL     1      -2.327  13.406  23.340  0.00  0.00    +0.000 F 
ENDBRANCH  25  32
ENDBRANCH  20  28
ENDBRANCH   1  22
TORSDOF 5
ENDMDL
MODEL 6
REMARK VINA RESULT:      -9.4      3.895      9.845
REMARK  Name = 
REMARK  5 active torsions:
REMARK  status: ('A' for Active; 'I' for Inactive)
REMARK    1  A    between atoms: C_2  and  C_5
REMARK    2  A    between atoms: C_8  and  C_9
REMARK    3  A    between atoms: C_11  and  C_12
REMARK    4  A    between atoms: N_14  and  C_15
REMARK    5  A    between atoms: C_19  and  C_20
REMARK                            x       y       z     vdW  Elec       q    Type
REMARK                         _______ _______ _______ _____ _____    ______ ____
ROOT
ATOM      1  C   UNL     1       0.198  11.127  20.459  0.00  0.00    +0.000 A 
ATOM      2  C   UNL     1      -1.108  11.417  20.844  0.00  0.00    +0.000 A 
ATOM      3  N   UNL     1      -1.551  12.184  19.799  0.00  0.00    +0.000 N 
ATOM      4  C   UNL     1      -0.534  13.086  19.575  0.00  0.00    +0.000 A 
ATOM      5  C   UNL     1      -0.563  14.408  19.098  0.00  0.00    +0.000 A 
ATOM      6  C   UNL     1       0.649  14.986  18.763  0.00  0.00    +0.000 A 
ATOM      7  C   UNL     1       1.830  14.251  18.870  0.00  0.00    +0.000 A 
ATOM      8  C   UNL     1       1.844  12.929  19.376  0.00  0.00    +0.000 A 
ATOM      9  C   UNL     1       0.634  12.346  19.815  0.00  0.00    +0.000 A 
ENDROOT
BRANCH   3  10
ATOM     10  C   UNL     1      -2.692  11.913  19.007  0.00  0.00    +0.000 A 
ATOM     11  C   UNL     1      -3.965  12.326  19.410  0.00  0.00    +0.000 A 
ATOM     12  C   UNL     1      -5.071  12.064  18.603  0.00  0.00    +0.000 A 
ATOM     13  C   UNL     1      -4.910  11.400  17.387  0.00  0.00    +0.000 A 
ATOM     14  C   UNL     1      -3.634  11.036  16.941  0.00  0.00    +0.000 A 
ATOM     15  C   UNL     1      -2.527  11.334  17.743  0.00  0.00    +0.000 A 
BRANCH  14  16
ATOM     16  C   UNL     1      -3.408  10.316  15.639  0.00  0.00    +0.000 C 
ATOM     17  F   UNL     1      -2.439  10.874  14.865  0.00  0.00    +0.000 F 
ATOM     18  F   UNL     1      -3.054   9.013  15.817  0.00  0.00    +0.000 F 
ATOM     19  F   UNL     1      -4.534  10.289  14.872  0.00  0.00    +0.000 F 
ENDBRANCH  14  16
ENDBRANCH   3  10
BRANCH   1  22
ATOM     20  C   UNL     1       2.054   7.935  20.530  0.00  0.00    +0.000 C 
ATOM     21  C   UNL     1       1.306   8.944  19.700  0.00  0.00    +0.000 C 
ATOM     22  C   UNL     1       0.757   9.828  20.778  0.00  0.00    +0.000 C 
ATOM     23  N   UNL     1       0.880   9.364  21.975  0.00  0.00    +0.000 NA
ATOM     24  O   UNL     1       1.516   8.088  21.862  0.00  0.00    +0.000 OA
BRANCH  20  28
ATOM     25  C   UNL     1       1.762   3.860  18.996  0.00  0.00    +0.000 A 
ATOM     26  C   UNL     1       1.309   4.166  20.287  0.00  0.00    +0.000 A 
ATOM     27  C   UNL     1       1.373   5.480  20.777  0.00  0.00    +0.000 A 
ATOM     28  C   UNL     1       1.890   6.522  19.983  0.00  0.00    +0.000 A 
ATOM     29  C   UNL     1       2.322   6.209  18.686  0.00  0.00    +0.000 A 
ATOM     30  C   UNL     1       2.256   4.901  18.198  0.00  0.00    +0.000 A 
BRANCH  25  32
ATOM     31  F   UNL     1       2.220   2.345  17.181  0.00  0.00    +0.000 F 
ATOM     32  C   UNL     1       1.751   2.449  18.456  0.00  0.00    +0.000 C 
ATOM     33  F   UNL     1       0.500   1.910  18.435  0.00  0.00    +0.000 F 
ATOM     34  F   UNL     1       2.510   1.596  19.201  0.00  0.00    +0.000 F 
ENDBRANCH  25  32
ENDBRANCH  20  28
ENDBRANCH   1  22
TORSDOF 5
ENDMDL
MODEL 7
REMARK VINA RESULT:      -9.4      2.446      3.128
REMARK  Name = 
REMARK  5 active torsions:
REMARK  status: ('A' for Active; 'I' for Inactive)
REMARK    1  A    between atoms: C_2  and  C_5
REMARK    2  A    between atoms: C_8  and  C_9
REMARK    3  A    between atoms: C_11  and  C_12
REMARK    4  A    between atoms: N_14  and  C_15
REMARK    5  A    between atoms: C_19  and  C_20
REMARK                            x       y       z     vdW  Elec       q    Type
REMARK                         _______ _______ _______ _____ _____    ______ ____
ROOT
ATOM      1  C   UNL     1       2.517   5.941  19.602  0.00  0.00    +0.000 A 
ATOM      2  C   UNL     1       3.839   5.715  19.974  0.00  0.00    +0.000 A 
ATOM      3  N   UNL     1       4.202   4.695  19.134  0.00  0.00    +0.000 N 
ATOM      4  C   UNL     1       3.157   3.799  19.203  0.00  0.00    +0.000 A 
ATOM      5  C   UNL     1       3.133   2.400  19.076  0.00  0.00    +0.000 A 
ATOM      6  C   UNL     1       1.893   1.797  18.967  0.00  0.00    +0.000 A 
ATOM      7  C   UNL     1       0.734   2.573  18.949  0.00  0.00    +0.000 A 
ATOM      8  C   UNL     1       0.774   3.980  19.104  0.00  0.00    +0.000 A 
ATOM      9  C   UNL     1       2.020   4.614  19.312  0.00  0.00    +0.000 A 
ENDROOT
BRANCH   3  10
ATOM     10  C   UNL     1       5.296   4.720  18.237  0.00  0.00    +0.000 A 
ATOM     11  C   UNL     1       6.611   4.611  18.699  0.00  0.00    +0.000 A 
ATOM     12  C   UNL     1       7.671   4.619  17.794  0.00  0.00    +0.000 A 
ATOM     13  C   UNL     1       7.424   4.724  16.425  0.00  0.00    +0.000 A 
ATOM     14  C   UNL     1       6.110   4.771  15.944  0.00  0.00    +0.000 A 
ATOM     15  C   UNL     1       5.052   4.728  16.859  0.00  0.00    +0.000 A 
BRANCH  14  16
ATOM     16  C   UNL     1       5.791   4.887  14.478  0.00  0.00    +0.000 C 
ATOM     17  F   UNL     1       4.956   3.916  14.020  0.00  0.00    +0.000 F 
ATOM     18  F   UNL     1       5.205   6.076  14.164  0.00  0.00    +0.000 F 
ATOM     19  F   UNL     1       6.912   4.815  13.707  0.00  0.00    +0.000 F 
ENDBRANCH  14  16
ENDBRANCH   3  10
BRANCH   1  22
ATOM     20  C   UNL     1       1.522   9.400  20.432  0.00  0.00    +0.000 C 
ATOM     21  C   UNL     1       1.651   7.974  20.900  0.00  0.00    +0.000 C 
ATOM     22  C   UNL     1       2.002   7.297  19.611  0.00  0.00    +0.000 C 
ATOM     23  N   UNL     1       1.865   8.029  18.558  0.00  0.00    +0.000 NA
ATOM     24  O   UNL     1       1.380   9.301  18.997  0.00  0.00    +0.000 OA
BRANCH  20  28
ATOM     25  C   UNL     1      -1.725  11.531  22.423  0.00  0.00    +0.000 A 
ATOM     26  C   UNL     1      -1.399  11.820  21.090  0.00  0.00    +0.000 A 
ATOM     27  C   UNL     1      -0.376  11.118  20.433  0.00  0.00    +0.000 A 
ATOM     28  C   UNL     1       0.346  10.106  21.096  0.00  0.00    +0.000 A 
ATOM     29  C   UNL     1      -0.000   9.812  22.423  0.00  0.00    +0.000 A 
ATOM     30  C   UNL     1      -1.021  10.510  23.075  0.00  0.00    +0.000 A 
BRANCH  25  32
ATOM     31  F   UNL     1      -2.333  13.449  23.746  0.00  0.00    +0.000 F 
ATOM     32  C   UNL     1      -2.788  12.300  23.173  0.00  0.00    +0.000 C 
ATOM     33  F   UNL     1      -3.337  11.573  24.186  0.00  0.00    +0.000 F 
ATOM     34  F   UNL     1      -3.829  12.670  22.375  0.00  0.00    +0.000 F 
ENDBRANCH  25  32
ENDBRANCH  20  28
ENDBRANCH   1  22
TORSDOF 5
ENDMDL
MODEL 8
REMARK VINA RESULT:      -9.4      3.737     10.362
REMARK  Name = 
REMARK  5 active torsions:
REMARK  status: ('A' for Active; 'I' for Inactive)
REMARK    1  A    between atoms: C_2  and  C_5
REMARK    2  A    between atoms: C_8  and  C_9
REMARK    3  A    between atoms: C_11  and  C_12
REMARK    4  A    between atoms: N_14  and  C_15
REMARK    5  A    between atoms: C_19  and  C_20
REMARK                            x       y       z     vdW  Elec       q    Type
REMARK                         _______ _______ _______ _____ _____    ______ ____
ROOT
ATOM      1  C   UNL     1       0.198  11.016  20.159  0.00  0.00    +0.000 A 
ATOM      2  C   UNL     1      -1.168  11.224  20.325  0.00  0.00    +0.000 A 
ATOM      3  N   UNL     1      -1.470  12.014  19.247  0.00  0.00    +0.000 N 
ATOM      4  C   UNL     1      -0.482  12.974  19.233  0.00  0.00    +0.000 A 
ATOM      5  C   UNL     1      -0.505  14.313  18.806  0.00  0.00    +0.000 A 
ATOM      6  C   UNL     1       0.712  14.964  18.704  0.00  0.00    +0.000 A 
ATOM      7  C   UNL     1       1.897  14.285  18.984  0.00  0.00    +0.000 A 
ATOM      8  C   UNL     1       1.900  12.944  19.439  0.00  0.00    +0.000 A 
ATOM      9  C   UNL     1       0.668  12.283  19.642  0.00  0.00    +0.000 A 
ENDROOT
BRANCH   3  10
ATOM     10  C   UNL     1      -2.444  11.722  18.263  0.00  0.00    +0.000 A 
ATOM     11  C   UNL     1      -2.074  11.264  16.995  0.00  0.00    +0.000 A 
ATOM     12  C   UNL     1      -3.053  10.964  16.049  0.00  0.00    +0.000 A 
ATOM     13  C   UNL     1      -4.403  11.110  16.366  0.00  0.00    +0.000 A 
ATOM     14  C   UNL     1      -4.790  11.508  17.651  0.00  0.00    +0.000 A 
ATOM     15  C   UNL     1      -3.800  11.773  18.605  0.00  0.00    +0.000 A 
BRANCH  14  16
ATOM     16  C   UNL     1      -6.232  11.681  18.043  0.00  0.00    +0.000 C 
ATOM     17  F   UNL     1      -6.407  12.373  19.201  0.00  0.00    +0.000 F 
ATOM     18  F   UNL     1      -6.956  12.335  17.093  0.00  0.00    +0.000 F 
ATOM     19  F   UNL     1      -6.857  10.483  18.222  0.00  0.00    +0.000 F 
ENDBRANCH  14  16
ENDBRANCH   3  10
BRANCH   1  22
ATOM     20  C   UNL     1       2.081   7.843  20.339  0.00  0.00    +0.000 C 
ATOM     21  C   UNL     1       1.324   8.817  19.475  0.00  0.00    +0.000 C 
ATOM     22  C   UNL     1       0.768   9.733  20.522  0.00  0.00    +0.000 C 
ATOM     23  N   UNL     1       0.896   9.312  21.735  0.00  0.00    +0.000 NA
ATOM     24  O   UNL     1       1.541   8.038  21.666  0.00  0.00    +0.000 OA
BRANCH  20  28
ATOM     25  C   UNL     1       1.823   3.721  18.931  0.00  0.00    +0.000 A 
ATOM     26  C   UNL     1       1.471   4.043  20.250  0.00  0.00    +0.000 A 
ATOM     27  C   UNL     1       1.523   5.372  20.701  0.00  0.00    +0.000 A 
ATOM     28  C   UNL     1       1.927   6.411  19.841  0.00  0.00    +0.000 A 
ATOM     29  C   UNL     1       2.258   6.081  18.519  0.00  0.00    +0.000 A 
ATOM     30  C   UNL     1       2.204   4.758  18.070  0.00  0.00    +0.000 A 
BRANCH  25  32
ATOM     31  F   UNL     1       2.281   2.165  17.150  0.00  0.00    +0.000 F 
ATOM     32  C   UNL     1       1.823   2.296  18.427  0.00  0.00    +0.000 C 
ATOM     33  F   UNL     1       0.578   1.743  18.432  0.00  0.00    +0.000 F 
ATOM     34  F   UNL     1       2.599   1.471  19.185  0.00  0.00    +0.000 F 
ENDBRANCH  25  32
ENDBRANCH  20  28
ENDBRANCH   1  22
TORSDOF 5
ENDMDL
MODEL 9
REMARK VINA RESULT:      -9.3      1.456      2.101
REMARK  Name = 
REMARK  5 active torsions:
REMARK  status: ('A' for Active; 'I' for Inactive)
REMARK    1  A    between atoms: C_2  and  C_5
REMARK    2  A    between atoms: C_8  and  C_9
REMARK    3  A    between atoms: C_11  and  C_12
REMARK    4  A    between atoms: N_14  and  C_15
REMARK    5  A    between atoms: C_19  and  C_20
REMARK                            x       y       z     vdW  Elec       q    Type
REMARK                         _______ _______ _______ _____ _____    ______ ____
ROOT
ATOM      1  C   UNL     1       2.620   6.164  18.960  0.00  0.00    +0.000 A 
ATOM      2  C   UNL     1       3.920   6.019  19.434  0.00  0.00    +0.000 A 
ATOM      3  N   UNL     1       4.328   4.875  18.801  0.00  0.00    +0.000 N 
ATOM      4  C   UNL     1       3.283   3.993  18.968  0.00  0.00    +0.000 A 
ATOM      5  C   UNL     1       3.268   2.592  19.081  0.00  0.00    +0.000 A 
ATOM      6  C   UNL     1       2.036   1.967  19.012  0.00  0.00    +0.000 A 
ATOM      7  C   UNL     1       0.878   2.716  18.801  0.00  0.00    +0.000 A 
ATOM      8  C   UNL     1       0.908   4.129  18.716  0.00  0.00    +0.000 A 
ATOM      9  C   UNL     1       2.140   4.803  18.877  0.00  0.00    +0.000 A 
ENDROOT
BRANCH   3  10
ATOM     10  C   UNL     1       5.469   4.758  17.971  0.00  0.00    +0.000 A 
ATOM     11  C   UNL     1       6.757   4.734  18.513  0.00  0.00    +0.000 A 
ATOM     12  C   UNL     1       7.863   4.599  17.676  0.00  0.00    +0.000 A 
ATOM     13  C   UNL     1       7.689   4.476  16.297  0.00  0.00    +0.000 A 
ATOM     14  C   UNL     1       6.403   4.435  15.747  0.00  0.00    +0.000 A 
ATOM     15  C   UNL     1       5.298   4.537  16.599  0.00  0.00    +0.000 A 
BRANCH  14  16
ATOM     16  C   UNL     1       6.161   4.305  14.267  0.00  0.00    +0.000 C 
ATOM     17  F   UNL     1       4.883   4.582  13.893  0.00  0.00    +0.000 F 
ATOM     18  F   UNL     1       6.962   5.127  13.533  0.00  0.00    +0.000 F 
ATOM     19  F   UNL     1       6.420   3.044  13.819  0.00  0.00    +0.000 F 
ENDBRANCH  14  16
ENDBRANCH   3  10
BRANCH   1  22
ATOM     20  C   UNL     1       1.450   9.662  19.173  0.00  0.00    +0.000 C 
ATOM     21  C   UNL     1       1.493   8.301  19.817  0.00  0.00    +0.000 C 
ATOM     22  C   UNL     1       2.103   7.497  18.711  0.00  0.00    +0.000 C 
ATOM     23  N   UNL     1       2.176   8.103  17.575  0.00  0.00    +0.000 NA
ATOM     24  O   UNL     1       1.602   9.400  17.760  0.00  0.00    +0.000 OA
BRANCH  20  28
ATOM     25  C   UNL     1      -2.164  11.936  20.074  0.00  0.00    +0.000 A 
ATOM     26  C   UNL     1      -2.051  11.233  18.865  0.00  0.00    +0.000 A 
ATOM     27  C   UNL     1      -0.903  10.475  18.581  0.00  0.00    +0.000 A 
ATOM     28  C   UNL     1       0.159  10.401  19.503  0.00  0.00    +0.000 A 
ATOM     29  C   UNL     1       0.028  11.092  20.716  0.00  0.00    +0.000 A 
ATOM     30  C   UNL     1      -1.116  11.844  20.999  0.00  0.00    +0.000 A 
BRANCH  25  32
ATOM     31  F   UNL     1      -3.079  14.129  20.467  0.00  0.00    +0.000 F 
ATOM     32  C   UNL     1      -3.364  12.799  20.390  0.00  0.00    +0.000 C 
ATOM     33  F   UNL     1      -3.937  12.474  21.582  0.00  0.00    +0.000 F 
ATOM     34  F   UNL     1      -4.352  12.685  19.458  0.00  0.00    +0.000 F 
ENDBRANCH  25  32
ENDBRANCH  20  28
ENDBRANCH   1  22
TORSDOF 5
ENDMDL
