MODEL 1
REMARK VINA RESULT:      -6.6      0.000      0.000
REMARK  Name = 
REMARK  5 active torsions:
REMARK  status: ('A' for Active; 'I' for Inactive)
REMARK    1  A    between atoms: C_2  and  C_3
REMARK    2  A    between atoms: C_3  and  S_4
REMARK    3  A    between atoms: S_4  and  C_5
REMARK    4  A    between atoms: C_5  and  C_6
REMARK    5  A    between atoms: N_13  and  C_14
REMARK                            x       y       z     vdW  Elec       q    Type
REMARK                         _______ _______ _______ _____ _____    ______ ____
ROOT
ATOM      1  S   UNL     1       6.537   5.932  17.082  0.00  0.00    +0.000 S 
ENDROOT
BRANCH   1   2
ATOM      2  C   UNL     1       6.994   4.411  16.198  0.00  0.00    +0.000 C 
BRANCH   2   4
ATOM      3  O   UNL     1       7.611   5.534  14.166  0.00  0.00    +0.000 OA
ATOM      4  C   UNL     1       6.992   4.614  14.696  0.00  0.00    +0.000 C 
ATOM      5  N   UNL     1       6.264   3.669  13.995  0.00  0.00    +0.000 N 
ATOM      6  H   UNL     1       5.706   3.008  14.527  0.00  0.00    +0.000 HD
BRANCH   5   7
ATOM      7  C   UNL     1       6.193   3.646  12.569  0.00  0.00    +0.000 C 
ATOM      8  C   UNL     1       5.964   2.338  11.862  0.00  0.00    +0.000 C 
ATOM      9  C   UNL     1       4.897   3.393  11.853  0.00  0.00    +0.000 C 
ENDBRANCH   5   7
ENDBRANCH   2   4
ENDBRANCH   1   2
BRANCH   1  10
ATOM     10  C   UNL     1       4.765   5.995  16.641  0.00  0.00    +0.000 C 
BRANCH  10  11
ATOM     11  C   UNL     1       3.936   5.303  17.694  0.00  0.00    +0.000 A 
ATOM     12  C   UNL     1       3.411   6.022  18.778  0.00  0.00    +0.000 A 
ATOM     13  C   UNL     1       2.687   5.368  19.778  0.00  0.00    +0.000 A 
ATOM     14  C   UNL     1       2.486   3.992  19.698  0.00  0.00    +0.000 A 
ATOM     15 BR   UNL     1       1.527   3.102  21.062  0.00  0.00    +0.000 Br
ATOM     16  C   UNL     1       2.997   3.263  18.626  0.00  0.00    +0.000 A 
ATOM     17  C   UNL     1       3.720   3.918  17.627  0.00  0.00    +0.000 A 
ENDBRANCH  10  11
ENDBRANCH   1  10
TORSDOF 5
ENDMDL
MODEL 2
REMARK VINA RESULT:      -6.5      1.225      1.568
REMARK  Name = 
REMARK  5 active torsions:
REMARK  status: ('A' for Active; 'I' for Inactive)
REMARK    1  A    between atoms: C_2  and  C_3
REMARK    2  A    between atoms: C_3  and  S_4
REMARK    3  A    between atoms: S_4  and  C_5
REMARK    4  A    between atoms: C_5  and  C_6
REMARK    5  A    between atoms: N_13  and  C_14
REMARK                            x       y       z     vdW  Elec       q    Type
REMARK                         _______ _______ _______ _____ _____    ______ ____
ROOT
ATOM      1  S   UNL     1       6.764   6.012  17.088  0.00  0.00    +0.000 S 
ENDROOT
BRANCH   1   2
ATOM      2  C   UNL     1       6.803   4.408  16.234  0.00  0.00    +0.000 C 
BRANCH   2   4
ATOM      3  O   UNL     1       7.637   5.440  14.231  0.00  0.00    +0.000 OA
ATOM      4  C   UNL     1       6.921   4.575  14.732  0.00  0.00    +0.000 C 
ATOM      5  N   UNL     1       6.182   3.665  13.999  0.00  0.00    +0.000 N 
ATOM      6  H   UNL     1       5.544   3.055  14.501  0.00  0.00    +0.000 HD
BRANCH   5   7
ATOM      7  C   UNL     1       6.211   3.612  12.572  0.00  0.00    +0.000 C 
ATOM      8  C   UNL     1       6.019   2.292  11.877  0.00  0.00    +0.000 C 
ATOM      9  C   UNL     1       4.965   3.355  11.772  0.00  0.00    +0.000 C 
ENDBRANCH   5   7
ENDBRANCH   2   4
ENDBRANCH   1   2
BRANCH   1  10
ATOM     10  C   UNL     1       6.406   5.425  18.780  0.00  0.00    +0.000 C 
BRANCH  10  11
ATOM     11  C   UNL     1       5.044   4.778  18.835  0.00  0.00    +0.000 A 
ATOM     12  C   UNL     1       4.894   3.466  19.311  0.00  0.00    +0.000 A 
ATOM     13  C   UNL     1       3.639   2.853  19.312  0.00  0.00    +0.000 A 
ATOM     14  C   UNL     1       2.529   3.548  18.835  0.00  0.00    +0.000 A 
ATOM     15 BR   UNL     1       0.835   2.710  18.815  0.00  0.00    +0.000 Br
ATOM     16  C   UNL     1       2.660   4.852  18.363  0.00  0.00    +0.000 A 
ATOM     17  C   UNL     1       3.915   5.465  18.364  0.00  0.00    +0.000 A 
ENDBRANCH  10  11
ENDBRANCH   1  10
TORSDOF 5
ENDMDL
MODEL 3
REMARK VINA RESULT:      -6.4      0.449      1.224
REMARK  Name = 
REMARK  5 active torsions:
REMARK  status: ('A' for Active; 'I' for Inactive)
REMARK    1  A    between atoms: C_2  and  C_3
REMARK    2  A    between atoms: C_3  and  S_4
REMARK    3  A    between atoms: S_4  and  C_5
REMARK    4  A    between atoms: C_5  and  C_6
REMARK    5  A    between atoms: N_13  and  C_14
REMARK                            x       y       z     vdW  Elec       q    Type
REMARK                         _______ _______ _______ _____ _____    ______ ____
ROOT
ATOM      1  S   UNL     1       6.660   5.951  17.010  0.00  0.00    +0.000 S 
ENDROOT
BRANCH   1   2
ATOM      2  C   UNL     1       6.877   4.388  16.108  0.00  0.00    +0.000 C 
BRANCH   2   4
ATOM      3  O   UNL     1       7.481   5.566  14.104  0.00  0.00    +0.000 OA
ATOM      4  C   UNL     1       6.904   4.605  14.608  0.00  0.00    +0.000 C 
ATOM      5  N   UNL     1       6.253   3.626  13.880  0.00  0.00    +0.000 N 
ATOM      6  H   UNL     1       5.721   2.928  14.391  0.00  0.00    +0.000 HD
BRANCH   5   7
ATOM      7  C   UNL     1       6.222   3.612  12.453  0.00  0.00    +0.000 C 
ATOM      8  C   UNL     1       6.647   2.371  11.716  0.00  0.00    +0.000 C 
ATOM      9  C   UNL     1       5.208   2.799  11.698  0.00  0.00    +0.000 C 
ENDBRANCH   5   7
ENDBRANCH   2   4
ENDBRANCH   1   2
BRANCH   1  10
ATOM     10  C   UNL     1       4.891   6.241  16.655  0.00  0.00    +0.000 C 
BRANCH  10  11
ATOM     11  C   UNL     1       4.028   5.476  17.628  0.00  0.00    +0.000 A 
ATOM     12  C   UNL     1       3.326   4.333  17.216  0.00  0.00    +0.000 A 
ATOM     13  C   UNL     1       2.488   3.658  18.106  0.00  0.00    +0.000 A 
ATOM     14  C   UNL     1       2.347   4.124  19.411  0.00  0.00    +0.000 A 
ATOM     15 BR   UNL     1       1.194   3.225  20.610  0.00  0.00    +0.000 Br
ATOM     16  C   UNL     1       3.038   5.256  19.838  0.00  0.00    +0.000 A 
ATOM     17  C   UNL     1       3.877   5.929  18.947  0.00  0.00    +0.000 A 
ENDBRANCH  10  11
ENDBRANCH   1  10
TORSDOF 5
ENDMDL
MODEL 4
REMARK VINA RESULT:      -6.2      2.033      2.577
REMARK  Name = 
REMARK  5 active torsions:
REMARK  status: ('A' for Active; 'I' for Inactive)
REMARK    1  A    between atoms: C_2  and  C_3
REMARK    2  A    between atoms: C_3  and  S_4
REMARK    3  A    between atoms: S_4  and  C_5
REMARK    4  A    between atoms: C_5  and  C_6
REMARK    5  A    between atoms: N_13  and  C_14
REMARK                            x       y       z     vdW  Elec       q    Type
REMARK                         _______ _______ _______ _____ _____    ______ ____
ROOT
ATOM      1  S   UNL     1       5.238   3.807  16.658  0.00  0.00    +0.000 S 
ENDROOT
BRANCH   1   2
ATOM      2  C   UNL     1       6.849   4.485  16.161  0.00  0.00    +0.000 C 
BRANCH   2   4
ATOM      3  O   UNL     1       7.680   5.463  14.129  0.00  0.00    +0.000 OA
ATOM      4  C   UNL     1       6.963   4.613  14.654  0.00  0.00    +0.000 C 
ATOM      5  N   UNL     1       6.219   3.686  13.947  0.00  0.00    +0.000 N 
ATOM      6  H   UNL     1       5.581   3.092  14.467  0.00  0.00    +0.000 HD
BRANCH   5   7
ATOM      7  C   UNL     1       6.243   3.597  12.522  0.00  0.00    +0.000 C 
ATOM      8  C   UNL     1       6.100   2.252  11.863  0.00  0.00    +0.000 C 
ATOM      9  C   UNL     1       5.005   3.270  11.736  0.00  0.00    +0.000 C 
ENDBRANCH   5   7
ENDBRANCH   2   4
ENDBRANCH   1   2
BRANCH   1  10
ATOM     10  C   UNL     1       5.163   4.472  18.359  0.00  0.00    +0.000 C 
BRANCH  10  11
ATOM     11  C   UNL     1       4.185   5.618  18.432  0.00  0.00    +0.000 A 
ATOM     12  C   UNL     1       4.175   6.614  17.442  0.00  0.00    +0.000 A 
ATOM     13  C   UNL     1       3.303   7.700  17.541  0.00  0.00    +0.000 A 
ATOM     14  C   UNL     1       2.439   7.797  18.629  0.00  0.00    +0.000 A 
ATOM     15 BR   UNL     1       1.275   9.280  18.775  0.00  0.00    +0.000 Br
ATOM     16  C   UNL     1       2.433   6.816  19.619  0.00  0.00    +0.000 A 
ATOM     17  C   UNL     1       3.304   5.729  19.518  0.00  0.00    +0.000 A 
ENDBRANCH  10  11
ENDBRANCH   1  10
TORSDOF 5
ENDMDL
MODEL 5
REMARK VINA RESULT:      -6.2      1.016      1.088
REMARK  Name = 
REMARK  5 active torsions:
REMARK  status: ('A' for Active; 'I' for Inactive)
REMARK    1  A    between atoms: C_2  and  C_3
REMARK    2  A    between atoms: C_3  and  S_4
REMARK    3  A    between atoms: S_4  and  C_5
REMARK    4  A    between atoms: C_5  and  C_6
REMARK    5  A    between atoms: N_13  and  C_14
REMARK                            x       y       z     vdW  Elec       q    Type
REMARK                         _______ _______ _______ _____ _____    ______ ____
ROOT
ATOM      1  S   UNL     1       7.276   5.133  17.166  0.00  0.00    +0.000 S 
ENDROOT
BRANCH   1   2
ATOM      2  C   UNL     1       6.282   4.018  16.131  0.00  0.00    +0.000 C 
BRANCH   2   4
ATOM      3  O   UNL     1       7.256   5.167  14.259  0.00  0.00    +0.000 OA
ATOM      4  C   UNL     1       6.496   4.285  14.654  0.00  0.00    +0.000 C 
ATOM      5  N   UNL     1       5.791   3.441  13.815  0.00  0.00    +0.000 N 
ATOM      6  H   UNL     1       5.114   2.811  14.234  0.00  0.00    +0.000 HD
BRANCH   5   7
ATOM      7  C   UNL     1       5.909   3.486  12.393  0.00  0.00    +0.000 C 
ATOM      8  C   UNL     1       5.811   2.209  11.603  0.00  0.00    +0.000 C 
ATOM      9  C   UNL     1       4.725   3.240  11.500  0.00  0.00    +0.000 C 
ENDBRANCH   5   7
ENDBRANCH   2   4
ENDBRANCH   1   2
BRANCH   1  10
ATOM     10  C   UNL     1       5.970   6.317  17.645  0.00  0.00    +0.000 C 
BRANCH  10  11
ATOM     11  C   UNL     1       4.765   5.584  18.178  0.00  0.00    +0.000 A 
ATOM     12  C   UNL     1       3.477   5.889  17.711  0.00  0.00    +0.000 A 
ATOM     13  C   UNL     1       2.359   5.243  18.244  0.00  0.00    +0.000 A 
ATOM     14  C   UNL     1       2.524   4.291  19.248  0.00  0.00    +0.000 A 
ATOM     15 BR   UNL     1       1.009   3.434  19.987  0.00  0.00    +0.000 Br
ATOM     16  C   UNL     1       3.795   3.974  19.721  0.00  0.00    +0.000 A 
ATOM     17  C   UNL     1       4.912   4.619  19.186  0.00  0.00    +0.000 A 
ENDBRANCH  10  11
ENDBRANCH   1  10
TORSDOF 5
ENDMDL
MODEL 6
REMARK VINA RESULT:      -6.2      1.098      1.150
REMARK  Name = 
REMARK  5 active torsions:
REMARK  status: ('A' for Active; 'I' for Inactive)
REMARK    1  A    between atoms: C_2  and  C_3
REMARK    2  A    between atoms: C_3  and  S_4
REMARK    3  A    between atoms: S_4  and  C_5
REMARK    4  A    between atoms: C_5  and  C_6
REMARK    5  A    between atoms: N_13  and  C_14
REMARK                            x       y       z     vdW  Elec       q    Type
REMARK                         _______ _______ _______ _____ _____    ______ ____
ROOT
ATOM      1  S   UNL     1       5.895   3.844  16.187  0.00  0.00    +0.000 S 
ENDROOT
BRANCH   1   2
ATOM      2  C   UNL     1       7.046   4.979  15.356  0.00  0.00    +0.000 C 
BRANCH   2   4
ATOM      3  O   UNL     1       7.763   5.442  13.110  0.00  0.00    +0.000 OA
ATOM      4  C   UNL     1       7.014   4.808  13.850  0.00  0.00    +0.000 C 
ATOM      5  N   UNL     1       6.098   3.872  13.403  0.00  0.00    +0.000 N 
ATOM      6  H   UNL     1       5.456   3.474  14.081  0.00  0.00    +0.000 HD
BRANCH   5   7
ATOM      7  C   UNL     1       5.961   3.517  12.027  0.00  0.00    +0.000 C 
ATOM      8  C   UNL     1       5.682   2.085  11.658  0.00  0.00    +0.000 C 
ATOM      9  C   UNL     1       4.630   3.134  11.445  0.00  0.00    +0.000 C 
ENDBRANCH   5   7
ENDBRANCH   2   4
ENDBRANCH   1   2
BRANCH   1  10
ATOM     10  C   UNL     1       4.703   5.070  16.830  0.00  0.00    +0.000 C 
BRANCH  10  11
ATOM     11  C   UNL     1       3.885   4.471  17.948  0.00  0.00    +0.000 A 
ATOM     12  C   UNL     1       2.555   4.868  18.153  0.00  0.00    +0.000 A 
ATOM     13  C   UNL     1       1.818   4.349  19.220  0.00  0.00    +0.000 A 
ATOM     14  C   UNL     1       2.408   3.432  20.087  0.00  0.00    +0.000 A 
ATOM     15 BR   UNL     1       1.419   2.747  21.545  0.00  0.00    +0.000 Br
ATOM     16  C   UNL     1       3.726   3.024  19.896  0.00  0.00    +0.000 A 
ATOM     17  C   UNL     1       4.462   3.542  18.827  0.00  0.00    +0.000 A 
ENDBRANCH  10  11
ENDBRANCH   1  10
TORSDOF 5
ENDMDL
MODEL 7
REMARK VINA RESULT:      -6.2      1.641      2.082
REMARK  Name = 
REMARK  5 active torsions:
REMARK  status: ('A' for Active; 'I' for Inactive)
REMARK    1  A    between atoms: C_2  and  C_3
REMARK    2  A    between atoms: C_3  and  S_4
REMARK    3  A    between atoms: S_4  and  C_5
REMARK    4  A    between atoms: C_5  and  C_6
REMARK    5  A    between atoms: N_13  and  C_14
REMARK                            x       y       z     vdW  Elec       q    Type
REMARK                         _______ _______ _______ _____ _____    ______ ____
ROOT
ATOM      1  S   UNL     1       5.907   5.764  16.925  0.00  0.00    +0.000 S 
ENDROOT
BRANCH   1   2
ATOM      2  C   UNL     1       6.766   4.363  16.150  0.00  0.00    +0.000 C 
BRANCH   2   4
ATOM      3  O   UNL     1       7.586   5.386  14.137  0.00  0.00    +0.000 OA
ATOM      4  C   UNL     1       6.867   4.529  14.646  0.00  0.00    +0.000 C 
ATOM      5  N   UNL     1       6.108   3.628  13.922  0.00  0.00    +0.000 N 
ATOM      6  H   UNL     1       5.470   3.025  14.432  0.00  0.00    +0.000 HD
BRANCH   5   7
ATOM      7  C   UNL     1       6.118   3.576  12.495  0.00  0.00    +0.000 C 
ATOM      8  C   UNL     1       5.918   2.256  11.802  0.00  0.00    +0.000 C 
ATOM      9  C   UNL     1       4.862   3.319  11.711  0.00  0.00    +0.000 C 
ENDBRANCH   5   7
ENDBRANCH   2   4
ENDBRANCH   1   2
BRANCH   1  10
ATOM     10  C   UNL     1       4.262   5.001  17.147  0.00  0.00    +0.000 C 
BRANCH  10  11
ATOM     11  C   UNL     1       3.423   5.825  18.092  0.00  0.00    +0.000 A 
ATOM     12  C   UNL     1       3.148   7.173  17.814  0.00  0.00    +0.000 A 
ATOM     13  C   UNL     1       2.414   7.946  18.717  0.00  0.00    +0.000 A 
ATOM     14  C   UNL     1       1.955   7.375  19.902  0.00  0.00    +0.000 A 
ATOM     15 BR   UNL     1       0.982   8.428  21.135  0.00  0.00    +0.000 Br
ATOM     16  C   UNL     1       2.216   6.038  20.192  0.00  0.00    +0.000 A 
ATOM     17  C   UNL     1       2.948   5.266  19.288  0.00  0.00    +0.000 A 
ENDBRANCH  10  11
ENDBRANCH   1  10
TORSDOF 5
ENDMDL
MODEL 8
REMARK VINA RESULT:      -6.0      1.237      1.415
REMARK  Name = 
REMARK  5 active torsions:
REMARK  status: ('A' for Active; 'I' for Inactive)
REMARK    1  A    between atoms: C_2  and  C_3
REMARK    2  A    between atoms: C_3  and  S_4
REMARK    3  A    between atoms: S_4  and  C_5
REMARK    4  A    between atoms: C_5  and  C_6
REMARK    5  A    between atoms: N_13  and  C_14
REMARK                            x       y       z     vdW  Elec       q    Type
REMARK                         _______ _______ _______ _____ _____    ______ ____
ROOT
ATOM      1  S   UNL     1       6.519   6.727  17.412  0.00  0.00    +0.000 S 
ENDROOT
BRANCH   1   2
ATOM      2  C   UNL     1       5.513   5.863  16.170  0.00  0.00    +0.000 C 
BRANCH   2   4
ATOM      3  O   UNL     1       7.584   4.923  15.395  0.00  0.00    +0.000 OA
ATOM      4  C   UNL     1       6.368   5.022  15.242  0.00  0.00    +0.000 C 
ATOM      5  N   UNL     1       5.660   4.375  14.246  0.00  0.00    +0.000 N 
ATOM      6  H   UNL     1       4.676   4.599  14.140  0.00  0.00    +0.000 HD
BRANCH   5   7
ATOM      7  C   UNL     1       6.272   3.484  13.313  0.00  0.00    +0.000 C 
ATOM      8  C   UNL     1       5.564   3.161  12.025  0.00  0.00    +0.000 C 
ATOM      9  C   UNL     1       6.824   3.976  12.005  0.00  0.00    +0.000 C 
ENDBRANCH   5   7
ENDBRANCH   2   4
ENDBRANCH   1   2
BRANCH   1  10
ATOM     10  C   UNL     1       6.585   5.419  18.685  0.00  0.00    +0.000 C 
BRANCH  10  11
ATOM     11  C   UNL     1       5.195   4.937  19.017  0.00  0.00    +0.000 A 
ATOM     12  C   UNL     1       4.200   5.844  19.414  0.00  0.00    +0.000 A 
ATOM     13  C   UNL     1       2.928   5.387  19.769  0.00  0.00    +0.000 A 
ATOM     14  C   UNL     1       2.647   4.024  19.730  0.00  0.00    +0.000 A 
ATOM     15 BR   UNL     1       0.933   3.404  20.233  0.00  0.00    +0.000 Br
ATOM     16  C   UNL     1       3.622   3.111  19.334  0.00  0.00    +0.000 A 
ATOM     17  C   UNL     1       4.892   3.568  18.977  0.00  0.00    +0.000 A 
ENDBRANCH  10  11
ENDBRANCH   1  10
TORSDOF 5
ENDMDL
MODEL 9
REMARK VINA RESULT:      -6.0      1.472      1.607
REMARK  Name = 
REMARK  5 active torsions:
REMARK  status: ('A' for Active; 'I' for Inactive)
REMARK    1  A    between atoms: C_2  and  C_3
REMARK    2  A    between atoms: C_3  and  S_4
REMARK    3  A    between atoms: S_4  and  C_5
REMARK    4  A    between atoms: C_5  and  C_6
REMARK    5  A    between atoms: N_13  and  C_14
REMARK                            x       y       z     vdW  Elec       q    Type
REMARK                         _______ _______ _______ _____ _____    ______ ____
ROOT
ATOM      1  S   UNL     1       7.120   6.007  17.604  0.00  0.00    +0.000 S 
ENDROOT
BRANCH   1   2
ATOM      2  C   UNL     1       6.915   4.480  16.640  0.00  0.00    +0.000 C 
BRANCH   2   4
ATOM      3  O   UNL     1       5.677   5.796  15.057  0.00  0.00    +0.000 OA
ATOM      4  C   UNL     1       6.277   4.749  15.292  0.00  0.00    +0.000 C 
ATOM      5  N   UNL     1       6.453   3.737  14.367  0.00  0.00    +0.000 N 
ATOM      6  H   UNL     1       6.875   2.870  14.685  0.00  0.00    +0.000 HD
BRANCH   5   7
ATOM      7  C   UNL     1       5.987   3.827  13.020  0.00  0.00    +0.000 C 
ATOM      8  C   UNL     1       6.985   3.880  11.895  0.00  0.00    +0.000 C 
ATOM      9  C   UNL     1       6.113   2.671  12.068  0.00  0.00    +0.000 C 
ENDBRANCH   5   7
ENDBRANCH   2   4
ENDBRANCH   1   2
BRANCH   1  10
ATOM     10  C   UNL     1       6.492   5.414  19.214  0.00  0.00    +0.000 C 
BRANCH  10  11
ATOM     11  C   UNL     1       5.132   4.782  19.047  0.00  0.00    +0.000 A 
ATOM     12  C   UNL     1       4.056   5.524  18.536  0.00  0.00    +0.000 A 
ATOM     13  C   UNL     1       2.787   4.950  18.431  0.00  0.00    +0.000 A 
ATOM     14  C   UNL     1       2.589   3.632  18.838  0.00  0.00    +0.000 A 
ATOM     15 BR   UNL     1       0.866   2.862  18.717  0.00  0.00    +0.000 Br
ATOM     16  C   UNL     1       3.647   2.880  19.344  0.00  0.00    +0.000 A 
ATOM     17  C   UNL     1       4.915   3.455  19.447  0.00  0.00    +0.000 A 
ENDBRANCH  10  11
ENDBRANCH   1  10
TORSDOF 5
ENDMDL
