MODEL 1
REMARK VINA RESULT:      -8.7      0.000      0.000
REMARK  Name = 
REMARK  13 active torsions:
REMARK  status: ('A' for Active; 'I' for Inactive)
REMARK    1  A    between atoms: C_1  and  C_2
REMARK    2  A    between atoms: C_2  and  C_3
REMARK    3  A    between atoms: C_3  and  C_4
REMARK    4  A    between atoms: C_4  and  N_5
REMARK    5  A    between atoms: C_6  and  C_8
REMARK    6  A    between atoms: C_8  and  O_9
REMARK    7  A    between atoms: O_9  and  C_10
REMARK    8  A    between atoms: C_13  and  C_14
REMARK    9  A    between atoms: C_15  and  C_16
REMARK   10  A    between atoms: C_15  and  C_26
REMARK   11  A    between atoms: C_16  and  C_18
REMARK   12  A    between atoms: C_21  and  O_22
REMARK   13  A    between atoms: O_22  and  C_23
REMARK                            x       y       z     vdW  Elec       q    Type
REMARK                         _______ _______ _______ _____ _____    ______ ____
ROOT
ATOM      1  C   UNL     1       3.548   7.059  18.651  0.00  0.00    +0.000 C 
ATOM      2  C   UNL     1       3.708   5.745  18.903  0.00  0.00    +0.000 C 
ENDROOT
BRANCH   1   6
ATOM      3  C   UNL     1       0.305   9.728  19.411  0.00  0.00    +0.000 A 
ATOM      4  C   UNL     1       0.818   8.935  20.439  0.00  0.00    +0.000 A 
ATOM      5  C   UNL     1       1.852   8.030  20.175  0.00  0.00    +0.000 A 
ATOM      6  C   UNL     1       2.355   7.886  18.878  0.00  0.00    +0.000 A 
ATOM      7  C   UNL     1       1.796   8.630  17.839  0.00  0.00    +0.000 A 
ATOM      8  C   UNL     1       0.775   9.548  18.108  0.00  0.00    +0.000 A 
BRANCH   3   9
ATOM      9  O   UNL     1      -0.643  10.703  19.567  0.00  0.00    +0.000 OA
BRANCH   9  10
ATOM     10  C   UNL     1      -0.908  11.495  18.409  0.00  0.00    +0.000 C 
BRANCH  10  12
ATOM     11  N   UNL     1      -2.315  11.604  16.409  0.00  0.00    +0.000 N 
ATOM     12  C   UNL     1      -2.083  10.946  17.597  0.00  0.00    +0.000 C 
ATOM     13  O   UNL     1      -2.755   9.998  17.990  0.00  0.00    +0.000 OA
ATOM     14  H   UNL     1      -1.751  12.427  16.223  0.00  0.00    +0.000 HD
BRANCH  11  15
ATOM     15  C   UNL     1      -3.450  11.305  15.565  0.00  0.00    +0.000 C 
BRANCH  15  16
ATOM     16  C   UNL     1      -3.195  10.115  14.640  0.00  0.00    +0.000 C 
BRANCH  16  18
ATOM     17  C   UNL     1      -4.026   9.723  12.288  0.00  0.00    +0.000 C 
ATOM     18  C   UNL     1      -4.405   9.788  13.760  0.00  0.00    +0.000 C 
ENDBRANCH  16  18
ENDBRANCH  15  16
ENDBRANCH  11  15
ENDBRANCH  10  12
ENDBRANCH   9  10
ENDBRANCH   3   9
ENDBRANCH   1   6
BRANCH   2  19
ATOM     19  C   UNL     1       2.584   4.869  19.285  0.00  0.00    +0.000 A 
ATOM     20  C   UNL     1       1.825   4.232  18.289  0.00  0.00    +0.000 A 
ATOM     21  C   UNL     1       0.863   3.283  18.636  0.00  0.00    +0.000 A 
ATOM     22  C   UNL     1       0.656   2.961  19.977  0.00  0.00    +0.000 A 
ATOM     23  C   UNL     1       1.392   3.603  20.971  0.00  0.00    +0.000 A 
ATOM     24  C   UNL     1       2.350   4.560  20.629  0.00  0.00    +0.000 A 
ENDBRANCH   2  19
BRANCH   2  25
ATOM     25  C   UNL     1       5.051   5.074  18.711  0.00  0.00    +0.000 C 
ATOM     26  O   UNL     1       5.729   4.737  19.678  0.00  0.00    +0.000 OA
BRANCH  25  27
ATOM     27  C   UNL     1       5.605   4.820  17.348  0.00  0.00    +0.000 A 
ATOM     28  C   UNL     1       6.739   5.473  16.857  0.00  0.00    +0.000 A 
ATOM     29  C   UNL     1       7.179   5.225  15.555  0.00  0.00    +0.000 A 
ATOM     30  C   UNL     1       6.546   4.270  14.761  0.00  0.00    +0.000 A 
ATOM     31  C   UNL     1       5.441   3.581  15.260  0.00  0.00    +0.000 A 
ATOM     32  C   UNL     1       4.972   3.857  16.550  0.00  0.00    +0.000 A 
BRANCH  30  33
ATOM     33  O   UNL     1       7.065   4.121  13.505  0.00  0.00    +0.000 OA
ATOM     34  C   UNL     1       6.216   3.462  12.572  0.00  0.00    +0.000 C 
ENDBRANCH  30  33
ENDBRANCH  25  27
ENDBRANCH   2  25
TORSDOF 11
ENDMDL
MODEL 2
REMARK VINA RESULT:      -8.7      1.345      2.004
REMARK  Name = 
REMARK  13 active torsions:
REMARK  status: ('A' for Active; 'I' for Inactive)
REMARK    1  A    between atoms: C_1  and  C_2
REMARK    2  A    between atoms: C_2  and  C_3
REMARK    3  A    between atoms: C_3  and  C_4
REMARK    4  A    between atoms: C_4  and  N_5
REMARK    5  A    between atoms: C_6  and  C_8
REMARK    6  A    between atoms: C_8  and  O_9
REMARK    7  A    between atoms: O_9  and  C_10
REMARK    8  A    between atoms: C_13  and  C_14
REMARK    9  A    between atoms: C_15  and  C_16
REMARK   10  A    between atoms: C_15  and  C_26
REMARK   11  A    between atoms: C_16  and  C_18
REMARK   12  A    between atoms: C_21  and  O_22
REMARK   13  A    between atoms: O_22  and  C_23
REMARK                            x       y       z     vdW  Elec       q    Type
REMARK                         _______ _______ _______ _____ _____    ______ ____
ROOT
ATOM      1  C   UNL     1       3.655   7.078  18.358  0.00  0.00    +0.000 C 
ATOM      2  C   UNL     1       3.893   5.778  18.625  0.00  0.00    +0.000 C 
ENDROOT
BRANCH   1   6
ATOM      3  C   UNL     1       0.333   9.586  19.301  0.00  0.00    +0.000 A 
ATOM      4  C   UNL     1       0.858   8.724  20.265  0.00  0.00    +0.000 A 
ATOM      5  C   UNL     1       1.919   7.872  19.939  0.00  0.00    +0.000 A 
ATOM      6  C   UNL     1       2.437   7.850  18.640  0.00  0.00    +0.000 A 
ATOM      7  C   UNL     1       1.868   8.663  17.661  0.00  0.00    +0.000 A 
ATOM      8  C   UNL     1       0.820   9.529  17.993  0.00  0.00    +0.000 A 
BRANCH   3   9
ATOM      9  O   UNL     1      -0.642  10.520  19.528  0.00  0.00    +0.000 OA
BRANCH   9  10
ATOM     10  C   UNL     1      -1.082  11.242  18.377  0.00  0.00    +0.000 C 
BRANCH  10  12
ATOM     11  N   UNL     1      -3.295  11.733  17.455  0.00  0.00    +0.000 N 
ATOM     12  C   UNL     1      -2.436  10.741  17.869  0.00  0.00    +0.000 C 
ATOM     13  O   UNL     1      -2.716   9.546  17.844  0.00  0.00    +0.000 OA
ATOM     14  H   UNL     1      -2.992  12.692  17.598  0.00  0.00    +0.000 HD
BRANCH  11  15
ATOM     15  C   UNL     1      -4.658  11.464  17.054  0.00  0.00    +0.000 C 
BRANCH  15  16
ATOM     16  C   UNL     1      -5.612  12.600  17.420  0.00  0.00    +0.000 C 
BRANCH  16  18
ATOM     17  C   UNL     1      -6.673  10.647  18.618  0.00  0.00    +0.000 C 
ATOM     18  C   UNL     1      -6.789  12.124  18.277  0.00  0.00    +0.000 C 
ENDBRANCH  16  18
ENDBRANCH  15  16
ENDBRANCH  11  15
ENDBRANCH  10  12
ENDBRANCH   9  10
ENDBRANCH   3   9
ENDBRANCH   1   6
BRANCH   2  19
ATOM     19  C   UNL     1       2.838   4.857  19.090  0.00  0.00    +0.000 A 
ATOM     20  C   UNL     1       2.628   4.674  20.466  0.00  0.00    +0.000 A 
ATOM     21  C   UNL     1       1.537   3.931  20.919  0.00  0.00    +0.000 A 
ATOM     22  C   UNL     1       0.648   3.371  20.002  0.00  0.00    +0.000 A 
ATOM     23  C   UNL     1       0.862   3.533  18.634  0.00  0.00    +0.000 A 
ATOM     24  C   UNL     1       1.957   4.269  18.176  0.00  0.00    +0.000 A 
ENDBRANCH   2  19
BRANCH   2  25
ATOM     25  C   UNL     1       5.255   5.169  18.367  0.00  0.00    +0.000 C 
ATOM     26  O   UNL     1       5.991   4.857  19.300  0.00  0.00    +0.000 OA
BRANCH  25  27
ATOM     27  C   UNL     1       5.755   4.946  16.978  0.00  0.00    +0.000 A 
ATOM     28  C   UNL     1       7.038   5.318  16.566  0.00  0.00    +0.000 A 
ATOM     29  C   UNL     1       7.429   5.124  15.240  0.00  0.00    +0.000 A 
ATOM     30  C   UNL     1       6.581   4.488  14.334  0.00  0.00    +0.000 A 
ATOM     31  C   UNL     1       5.316   4.074  14.750  0.00  0.00    +0.000 A 
ATOM     32  C   UNL     1       4.905   4.302  16.068  0.00  0.00    +0.000 A 
BRANCH  30  33
ATOM     33  O   UNL     1       7.074   4.362  13.066  0.00  0.00    +0.000 OA
ATOM     34  C   UNL     1       6.423   3.389  12.256  0.00  0.00    +0.000 C 
ENDBRANCH  30  33
ENDBRANCH  25  27
ENDBRANCH   2  25
TORSDOF 11
ENDMDL
MODEL 3
REMARK VINA RESULT:      -8.7      2.685      4.191
REMARK  Name = 
REMARK  13 active torsions:
REMARK  status: ('A' for Active; 'I' for Inactive)
REMARK    1  A    between atoms: C_1  and  C_2
REMARK    2  A    between atoms: C_2  and  C_3
REMARK    3  A    between atoms: C_3  and  C_4
REMARK    4  A    between atoms: C_4  and  N_5
REMARK    5  A    between atoms: C_6  and  C_8
REMARK    6  A    between atoms: C_8  and  O_9
REMARK    7  A    between atoms: O_9  and  C_10
REMARK    8  A    between atoms: C_13  and  C_14
REMARK    9  A    between atoms: C_15  and  C_16
REMARK   10  A    between atoms: C_15  and  C_26
REMARK   11  A    between atoms: C_16  and  C_18
REMARK   12  A    between atoms: C_21  and  O_22
REMARK   13  A    between atoms: O_22  and  C_23
REMARK                            x       y       z     vdW  Elec       q    Type
REMARK                         _______ _______ _______ _____ _____    ______ ____
ROOT
ATOM      1  C   UNL     1       3.638   6.826  18.413  0.00  0.00    +0.000 C 
ATOM      2  C   UNL     1       3.774   5.505  18.645  0.00  0.00    +0.000 C 
ENDROOT
BRANCH   1   6
ATOM      3  C   UNL     1       0.584   9.589  19.538  0.00  0.00    +0.000 A 
ATOM      4  C   UNL     1       1.077   8.670  20.466  0.00  0.00    +0.000 A 
ATOM      5  C   UNL     1       2.047   7.737  20.081  0.00  0.00    +0.000 A 
ATOM      6  C   UNL     1       2.504   7.693  18.759  0.00  0.00    +0.000 A 
ATOM      7  C   UNL     1       1.962   8.567  17.817  0.00  0.00    +0.000 A 
ATOM      8  C   UNL     1       1.007   9.512  18.208  0.00  0.00    +0.000 A 
BRANCH   3   9
ATOM      9  O   UNL     1      -0.297  10.597  19.821  0.00  0.00    +0.000 OA
BRANCH   9  10
ATOM     10  C   UNL     1       0.142  11.543  20.796  0.00  0.00    +0.000 C 
BRANCH  10  12
ATOM     11  N   UNL     1      -1.931  12.097  21.972  0.00  0.00    +0.000 N 
ATOM     12  C   UNL     1      -0.702  11.485  22.071  0.00  0.00    +0.000 C 
ATOM     13  O   UNL     1      -0.297  10.935  23.091  0.00  0.00    +0.000 OA
ATOM     14  H   UNL     1      -2.128  12.593  21.109  0.00  0.00    +0.000 HD
BRANCH  11  15
ATOM     15  C   UNL     1      -2.817  12.247  23.104  0.00  0.00    +0.000 C 
BRANCH  15  16
ATOM     16  C   UNL     1      -2.698  13.620  23.764  0.00  0.00    +0.000 C 
BRANCH  16  18
ATOM     17  C   UNL     1      -3.932  15.681  24.545  0.00  0.00    +0.000 C 
ATOM     18  C   UNL     1      -4.007  14.415  23.705  0.00  0.00    +0.000 C 
ENDBRANCH  16  18
ENDBRANCH  15  16
ENDBRANCH  11  15
ENDBRANCH  10  12
ENDBRANCH   9  10
ENDBRANCH   3   9
ENDBRANCH   1   6
BRANCH   2  19
ATOM     19  C   UNL     1       2.662   4.668  19.135  0.00  0.00    +0.000 A 
ATOM     20  C   UNL     1       1.836   3.998  18.218  0.00  0.00    +0.000 A 
ATOM     21  C   UNL     1       0.883   3.083  18.667  0.00  0.00    +0.000 A 
ATOM     22  C   UNL     1       0.752   2.828  20.032  0.00  0.00    +0.000 A 
ATOM     23  C   UNL     1       1.556   3.503  20.949  0.00  0.00    +0.000 A 
ATOM     24  C   UNL     1       2.506   4.426  20.504  0.00  0.00    +0.000 A 
ENDBRANCH   2  19
BRANCH   2  25
ATOM     25  C   UNL     1       5.066   4.788  18.318  0.00  0.00    +0.000 C 
ATOM     26  O   UNL     1       5.748   4.287  19.209  0.00  0.00    +0.000 OA
BRANCH  25  27
ATOM     27  C   UNL     1       5.564   4.684  16.915  0.00  0.00    +0.000 A 
ATOM     28  C   UNL     1       4.787   4.170  15.872  0.00  0.00    +0.000 A 
ATOM     29  C   UNL     1       5.328   4.057  14.590  0.00  0.00    +0.000 A 
ATOM     30  C   UNL     1       6.612   4.526  14.315  0.00  0.00    +0.000 A 
ATOM     31  C   UNL     1       7.376   5.081  15.341  0.00  0.00    +0.000 A 
ATOM     32  C   UNL     1       6.853   5.160  16.637  0.00  0.00    +0.000 A 
BRANCH  30  33
ATOM     33  O   UNL     1       7.030   4.354  13.025  0.00  0.00    +0.000 OA
ATOM     34  C   UNL     1       6.264   3.433  12.256  0.00  0.00    +0.000 C 
ENDBRANCH  30  33
ENDBRANCH  25  27
ENDBRANCH   2  25
TORSDOF 11
ENDMDL
MODEL 4
REMARK VINA RESULT:      -8.6      1.019      1.514
REMARK  Name = 
REMARK  13 active torsions:
REMARK  status: ('A' for Active; 'I' for Inactive)
REMARK    1  A    between atoms: C_1  and  C_2
REMARK    2  A    between atoms: C_2  and  C_3
REMARK    3  A    between atoms: C_3  and  C_4
REMARK    4  A    between atoms: C_4  and  N_5
REMARK    5  A    between atoms: C_6  and  C_8
REMARK    6  A    between atoms: C_8  and  O_9
REMARK    7  A    between atoms: O_9  and  C_10
REMARK    8  A    between atoms: C_13  and  C_14
REMARK    9  A    between atoms: C_15  and  C_16
REMARK   10  A    between atoms: C_15  and  C_26
REMARK   11  A    between atoms: C_16  and  C_18
REMARK   12  A    between atoms: C_21  and  O_22
REMARK   13  A    between atoms: O_22  and  C_23
REMARK                            x       y       z     vdW  Elec       q    Type
REMARK                         _______ _______ _______ _____ _____    ______ ____
ROOT
ATOM      1  C   UNL     1       3.850   6.673  18.425  0.00  0.00    +0.000 C 
ATOM      2  C   UNL     1       4.023   5.346  18.591  0.00  0.00    +0.000 C 
ENDROOT
BRANCH   1   6
ATOM      3  C   UNL     1       0.694   9.275  19.644  0.00  0.00    +0.000 A 
ATOM      4  C   UNL     1       1.173   8.296  20.515  0.00  0.00    +0.000 A 
ATOM      5  C   UNL     1       2.177   7.416  20.096  0.00  0.00    +0.000 A 
ATOM      6  C   UNL     1       2.684   7.487  18.794  0.00  0.00    +0.000 A 
ATOM      7  C   UNL     1       2.158   8.421  17.903  0.00  0.00    +0.000 A 
ATOM      8  C   UNL     1       1.167   9.313  18.330  0.00  0.00    +0.000 A 
BRANCH   3   9
ATOM      9  O   UNL     1      -0.221  10.239  19.970  0.00  0.00    +0.000 OA
BRANCH   9  10
ATOM     10  C   UNL     1       0.074  11.553  19.495  0.00  0.00    +0.000 C 
BRANCH  10  12
ATOM     11  N   UNL     1      -2.147  11.288  18.503  0.00  0.00    +0.000 N 
ATOM     12  C   UNL     1      -1.063  12.124  18.645  0.00  0.00    +0.000 C 
ATOM     13  O   UNL     1      -0.994  13.239  18.136  0.00  0.00    +0.000 OA
ATOM     14  H   UNL     1      -2.062  10.356  18.897  0.00  0.00    +0.000 HD
BRANCH  11  15
ATOM     15  C   UNL     1      -3.264  11.604  17.643  0.00  0.00    +0.000 C 
BRANCH  15  16
ATOM     16  C   UNL     1      -2.925  11.445  16.161  0.00  0.00    +0.000 C 
BRANCH  16  18
ATOM     17  C   UNL     1      -2.973   9.835  14.216  0.00  0.00    +0.000 C 
ATOM     18  C   UNL     1      -2.864   9.977  15.727  0.00  0.00    +0.000 C 
ENDBRANCH  16  18
ENDBRANCH  15  16
ENDBRANCH  11  15
ENDBRANCH  10  12
ENDBRANCH   9  10
ENDBRANCH   3   9
ENDBRANCH   1   6
BRANCH   2  19
ATOM     19  C   UNL     1       2.929   4.452  19.017  0.00  0.00    +0.000 A 
ATOM     20  C   UNL     1       2.775   4.137  20.377  0.00  0.00    +0.000 A 
ATOM     21  C   UNL     1       1.658   3.422  20.812  0.00  0.00    +0.000 A 
ATOM     22  C   UNL     1       0.688   3.022  19.894  0.00  0.00    +0.000 A 
ATOM     23  C   UNL     1       0.845   3.314  18.540  0.00  0.00    +0.000 A 
ATOM     24  C   UNL     1       1.965   4.022  18.100  0.00  0.00    +0.000 A 
ENDBRANCH   2  19
BRANCH   2  25
ATOM     25  C   UNL     1       5.342   4.686  18.253  0.00  0.00    +0.000 C 
ATOM     26  O   UNL     1       6.059   4.224  19.138  0.00  0.00    +0.000 OA
BRANCH  25  27
ATOM     27  C   UNL     1       5.824   4.591  16.844  0.00  0.00    +0.000 A 
ATOM     28  C   UNL     1       7.095   5.021  16.447  0.00  0.00    +0.000 A 
ATOM     29  C   UNL     1       7.468   4.948  15.104  0.00  0.00    +0.000 A 
ATOM     30  C   UNL     1       6.617   4.376  14.159  0.00  0.00    +0.000 A 
ATOM     31  C   UNL     1       5.366   3.903  14.555  0.00  0.00    +0.000 A 
ATOM     32  C   UNL     1       4.972   4.011  15.894  0.00  0.00    +0.000 A 
BRANCH  30  33
ATOM     33  O   UNL     1       7.092   4.367  12.877  0.00  0.00    +0.000 OA
ATOM     34  C   UNL     1       6.439   3.461  11.994  0.00  0.00    +0.000 C 
ENDBRANCH  30  33
ENDBRANCH  25  27
ENDBRANCH   2  25
TORSDOF 11
ENDMDL
MODEL 5
REMARK VINA RESULT:      -8.6      0.998      1.616
REMARK  Name = 
REMARK  13 active torsions:
REMARK  status: ('A' for Active; 'I' for Inactive)
REMARK    1  A    between atoms: C_1  and  C_2
REMARK    2  A    between atoms: C_2  and  C_3
REMARK    3  A    between atoms: C_3  and  C_4
REMARK    4  A    between atoms: C_4  and  N_5
REMARK    5  A    between atoms: C_6  and  C_8
REMARK    6  A    between atoms: C_8  and  O_9
REMARK    7  A    between atoms: O_9  and  C_10
REMARK    8  A    between atoms: C_13  and  C_14
REMARK    9  A    between atoms: C_15  and  C_16
REMARK   10  A    between atoms: C_15  and  C_26
REMARK   11  A    between atoms: C_16  and  C_18
REMARK   12  A    between atoms: C_21  and  O_22
REMARK   13  A    between atoms: O_22  and  C_23
REMARK                            x       y       z     vdW  Elec       q    Type
REMARK                         _______ _______ _______ _____ _____    ______ ____
ROOT
ATOM      1  C   UNL     1       3.759   6.645  18.559  0.00  0.00    +0.000 C 
ATOM      2  C   UNL     1       3.918   5.315  18.712  0.00  0.00    +0.000 C 
ENDROOT
BRANCH   1   6
ATOM      3  C   UNL     1       0.677   9.286  19.879  0.00  0.00    +0.000 A 
ATOM      4  C   UNL     1       1.179   8.307  20.738  0.00  0.00    +0.000 A 
ATOM      5  C   UNL     1       2.158   7.415  20.287  0.00  0.00    +0.000 A 
ATOM      6  C   UNL     1       2.616   7.473  18.966  0.00  0.00    +0.000 A 
ATOM      7  C   UNL     1       2.065   8.407  18.090  0.00  0.00    +0.000 A 
ATOM      8  C   UNL     1       1.100   9.311  18.548  0.00  0.00    +0.000 A 
BRANCH   3   9
ATOM      9  O   UNL     1      -0.215  10.261  20.234  0.00  0.00    +0.000 OA
BRANCH   9  10
ATOM     10  C   UNL     1      -0.470  11.254  19.239  0.00  0.00    +0.000 C 
BRANCH  10  12
ATOM     11  N   UNL     1      -2.425  10.318  18.103  0.00  0.00    +0.000 N 
ATOM     12  C   UNL     1      -1.957  11.347  18.889  0.00  0.00    +0.000 C 
ATOM     13  O   UNL     1      -2.658  12.272  19.286  0.00  0.00    +0.000 OA
ATOM     14  H   UNL     1      -1.739   9.651  17.763  0.00  0.00    +0.000 HD
BRANCH  11  15
ATOM     15  C   UNL     1      -3.770  10.296  17.575  0.00  0.00    +0.000 C 
BRANCH  15  16
ATOM     16  C   UNL     1      -3.940  11.212  16.363  0.00  0.00    +0.000 C 
BRANCH  16  18
ATOM     17  C   UNL     1      -2.706   9.919  14.580  0.00  0.00    +0.000 C 
ATOM     18  C   UNL     1      -4.058  10.432  15.050  0.00  0.00    +0.000 C 
ENDBRANCH  16  18
ENDBRANCH  15  16
ENDBRANCH  11  15
ENDBRANCH  10  12
ENDBRANCH   9  10
ENDBRANCH   3   9
ENDBRANCH   1   6
BRANCH   2  19
ATOM     19  C   UNL     1       2.825   4.433  19.165  0.00  0.00    +0.000 A 
ATOM     20  C   UNL     1       2.652   4.184  20.536  0.00  0.00    +0.000 A 
ATOM     21  C   UNL     1       1.534   3.482  20.989  0.00  0.00    +0.000 A 
ATOM     22  C   UNL     1       0.582   3.029  20.077  0.00  0.00    +0.000 A 
ATOM     23  C   UNL     1       0.757   3.256  18.713  0.00  0.00    +0.000 A 
ATOM     24  C   UNL     1       1.878   3.951  18.255  0.00  0.00    +0.000 A 
ENDBRANCH   2  19
BRANCH   2  25
ATOM     25  C   UNL     1       5.218   4.639  18.332  0.00  0.00    +0.000 C 
ATOM     26  O   UNL     1       5.936   4.131  19.189  0.00  0.00    +0.000 OA
BRANCH  25  27
ATOM     27  C   UNL     1       5.678   4.583  16.913  0.00  0.00    +0.000 A 
ATOM     28  C   UNL     1       4.845   4.189  15.861  0.00  0.00    +0.000 A 
ATOM     29  C   UNL     1       5.350   4.114  14.562  0.00  0.00    +0.000 A 
ATOM     30  C   UNL     1       6.659   4.507  14.284  0.00  0.00    +0.000 A 
ATOM     31  C   UNL     1       7.482   4.945  15.321  0.00  0.00    +0.000 A 
ATOM     32  C   UNL     1       6.992   4.983  16.631  0.00  0.00    +0.000 A 
BRANCH  30  33
ATOM     33  O   UNL     1       7.038   4.383  12.976  0.00  0.00    +0.000 OA
ATOM     34  C   UNL     1       6.287   3.445  12.213  0.00  0.00    +0.000 C 
ENDBRANCH  30  33
ENDBRANCH  25  27
ENDBRANCH   2  25
TORSDOF 11
ENDMDL
MODEL 6
REMARK VINA RESULT:      -8.5      2.452      3.716
REMARK  Name = 
REMARK  13 active torsions:
REMARK  status: ('A' for Active; 'I' for Inactive)
REMARK    1  A    between atoms: C_1  and  C_2
REMARK    2  A    between atoms: C_2  and  C_3
REMARK    3  A    between atoms: C_3  and  C_4
REMARK    4  A    between atoms: C_4  and  N_5
REMARK    5  A    between atoms: C_6  and  C_8
REMARK    6  A    between atoms: C_8  and  O_9
REMARK    7  A    between atoms: O_9  and  C_10
REMARK    8  A    between atoms: C_13  and  C_14
REMARK    9  A    between atoms: C_15  and  C_16
REMARK   10  A    between atoms: C_15  and  C_26
REMARK   11  A    between atoms: C_16  and  C_18
REMARK   12  A    between atoms: C_21  and  O_22
REMARK   13  A    between atoms: O_22  and  C_23
REMARK                            x       y       z     vdW  Elec       q    Type
REMARK                         _______ _______ _______ _____ _____    ______ ____
ROOT
ATOM      1  C   UNL     1       3.610   6.765  18.335  0.00  0.00    +0.000 C 
ATOM      2  C   UNL     1       3.737   5.456  18.627  0.00  0.00    +0.000 C 
ENDROOT
BRANCH   1   6
ATOM      3  C   UNL     1       0.600   9.610  19.368  0.00  0.00    +0.000 A 
ATOM      4  C   UNL     1       1.114   8.748  20.338  0.00  0.00    +0.000 A 
ATOM      5  C   UNL     1       2.068   7.787  19.986  0.00  0.00    +0.000 A 
ATOM      6  C   UNL     1       2.489   7.659  18.658  0.00  0.00    +0.000 A 
ATOM      7  C   UNL     1       1.926   8.476  17.678  0.00  0.00    +0.000 A 
ATOM      8  C   UNL     1       0.986   9.449  18.035  0.00  0.00    +0.000 A 
BRANCH   3   9
ATOM      9  O   UNL     1      -0.270  10.639  19.612  0.00  0.00    +0.000 OA
BRANCH   9  10
ATOM     10  C   UNL     1      -0.140  11.771  18.750  0.00  0.00    +0.000 C 
BRANCH  10  12
ATOM     11  N   UNL     1       1.861  13.037  18.132  0.00  0.00    +0.000 N 
ATOM     12  C   UNL     1       1.024  12.674  19.164  0.00  0.00    +0.000 C 
ATOM     13  O   UNL     1       1.184  13.034  20.326  0.00  0.00    +0.000 OA
ATOM     14  H   UNL     1       1.683  12.614  17.227  0.00  0.00    +0.000 HD
BRANCH  11  15
ATOM     15  C   UNL     1       3.077  13.788  18.347  0.00  0.00    +0.000 C 
BRANCH  15  16
ATOM     16  C   UNL     1       2.968  15.233  17.861  0.00  0.00    +0.000 C 
BRANCH  16  18
ATOM     17  C   UNL     1       1.059  16.690  18.641  0.00  0.00    +0.000 C 
ATOM     18  C   UNL     1       2.459  16.181  18.950  0.00  0.00    +0.000 C 
ENDBRANCH  16  18
ENDBRANCH  15  16
ENDBRANCH  11  15
ENDBRANCH  10  12
ENDBRANCH   9  10
ENDBRANCH   3   9
ENDBRANCH   1   6
BRANCH   2  19
ATOM     19  C   UNL     1       2.626   4.653  19.173  0.00  0.00    +0.000 A 
ATOM     20  C   UNL     1       1.793   3.931  18.303  0.00  0.00    +0.000 A 
ATOM     21  C   UNL     1       0.839   3.048  18.811  0.00  0.00    +0.000 A 
ATOM     22  C   UNL     1       0.715   2.877  20.189  0.00  0.00    +0.000 A 
ATOM     23  C   UNL     1       1.526   3.604  21.059  0.00  0.00    +0.000 A 
ATOM     24  C   UNL     1       2.476   4.496  20.555  0.00  0.00    +0.000 A 
ENDBRANCH   2  19
BRANCH   2  25
ATOM     25  C   UNL     1       5.018   4.711  18.316  0.00  0.00    +0.000 C 
ATOM     26  O   UNL     1       5.666   4.173  19.211  0.00  0.00    +0.000 OA
BRANCH  25  27
ATOM     27  C   UNL     1       5.546   4.624  16.922  0.00  0.00    +0.000 A 
ATOM     28  C   UNL     1       4.787   4.137  15.854  0.00  0.00    +0.000 A 
ATOM     29  C   UNL     1       5.355   4.037  14.582  0.00  0.00    +0.000 A 
ATOM     30  C   UNL     1       6.651   4.494  14.345  0.00  0.00    +0.000 A 
ATOM     31  C   UNL     1       7.399   5.023  15.396  0.00  0.00    +0.000 A 
ATOM     32  C   UNL     1       6.848   5.087  16.681  0.00  0.00    +0.000 A 
BRANCH  30  33
ATOM     33  O   UNL     1       7.097   4.338  13.062  0.00  0.00    +0.000 OA
ATOM     34  C   UNL     1       6.332   3.445  12.259  0.00  0.00    +0.000 C 
ENDBRANCH  30  33
ENDBRANCH  25  27
ENDBRANCH   2  25
TORSDOF 11
ENDMDL
MODEL 7
REMARK VINA RESULT:      -8.5      2.527      3.666
REMARK  Name = 
REMARK  13 active torsions:
REMARK  status: ('A' for Active; 'I' for Inactive)
REMARK    1  A    between atoms: C_1  and  C_2
REMARK    2  A    between atoms: C_2  and  C_3
REMARK    3  A    between atoms: C_3  and  C_4
REMARK    4  A    between atoms: C_4  and  N_5
REMARK    5  A    between atoms: C_6  and  C_8
REMARK    6  A    between atoms: C_8  and  O_9
REMARK    7  A    between atoms: O_9  and  C_10
REMARK    8  A    between atoms: C_13  and  C_14
REMARK    9  A    between atoms: C_15  and  C_16
REMARK   10  A    between atoms: C_15  and  C_26
REMARK   11  A    between atoms: C_16  and  C_18
REMARK   12  A    between atoms: C_21  and  O_22
REMARK   13  A    between atoms: O_22  and  C_23
REMARK                            x       y       z     vdW  Elec       q    Type
REMARK                         _______ _______ _______ _____ _____    ______ ____
ROOT
ATOM      1  C   UNL     1       3.612   6.928  18.396  0.00  0.00    +0.000 C 
ATOM      2  C   UNL     1       3.763   5.611  18.639  0.00  0.00    +0.000 C 
ENDROOT
BRANCH   1   6
ATOM      3  C   UNL     1       0.469   9.651  19.361  0.00  0.00    +0.000 A 
ATOM      4  C   UNL     1       1.018   8.833  20.350  0.00  0.00    +0.000 A 
ATOM      5  C   UNL     1       2.017   7.910  20.020  0.00  0.00    +0.000 A 
ATOM      6  C   UNL     1       2.449   7.776  18.696  0.00  0.00    +0.000 A 
ATOM      7  C   UNL     1       1.853   8.546  17.699  0.00  0.00    +0.000 A 
ATOM      8  C   UNL     1       0.868   9.482  18.033  0.00  0.00    +0.000 A 
BRANCH   3   9
ATOM      9  O   UNL     1      -0.448  10.643  19.581  0.00  0.00    +0.000 OA
BRANCH   9  10
ATOM     10  C   UNL     1      -0.348  11.305  20.843  0.00  0.00    +0.000 C 
BRANCH  10  12
ATOM     11  N   UNL     1       0.710  13.022  19.456  0.00  0.00    +0.000 N 
ATOM     12  C   UNL     1       0.442  12.612  20.743  0.00  0.00    +0.000 C 
ATOM     13  O   UNL     1       0.801  13.230  21.741  0.00  0.00    +0.000 OA
ATOM     14  H   UNL     1       0.439  12.391  18.708  0.00  0.00    +0.000 HD
BRANCH  11  15
ATOM     15  C   UNL     1       1.542  14.167  19.163  0.00  0.00    +0.000 C 
BRANCH  15  16
ATOM     16  C   UNL     1       2.810  13.789  18.396  0.00  0.00    +0.000 C 
BRANCH  16  18
ATOM     17  C   UNL     1       5.003  14.935  17.894  0.00  0.00    +0.000 C 
ATOM     18  C   UNL     1       3.490  15.003  17.755  0.00  0.00    +0.000 C 
ENDBRANCH  16  18
ENDBRANCH  15  16
ENDBRANCH  11  15
ENDBRANCH  10  12
ENDBRANCH   9  10
ENDBRANCH   3   9
ENDBRANCH   1   6
BRANCH   2  19
ATOM     19  C   UNL     1       2.650   4.755  19.093  0.00  0.00    +0.000 A 
ATOM     20  C   UNL     1       1.854   4.087  18.148  0.00  0.00    +0.000 A 
ATOM     21  C   UNL     1       0.901   3.156  18.563  0.00  0.00    +0.000 A 
ATOM     22  C   UNL     1       0.741   2.883  19.921  0.00  0.00    +0.000 A 
ATOM     23  C   UNL     1       1.515   3.556  20.865  0.00  0.00    +0.000 A 
ATOM     24  C   UNL     1       2.464   4.495  20.454  0.00  0.00    +0.000 A 
ENDBRANCH   2  19
BRANCH   2  25
ATOM     25  C   UNL     1       5.080   4.917  18.364  0.00  0.00    +0.000 C 
ATOM     26  O   UNL     1       5.768   4.486  19.286  0.00  0.00    +0.000 OA
BRANCH  25  27
ATOM     27  C   UNL     1       5.595   4.752  16.973  0.00  0.00    +0.000 A 
ATOM     28  C   UNL     1       6.959   4.733  16.666  0.00  0.00    +0.000 A 
ATOM     29  C   UNL     1       7.375   4.622  15.338  0.00  0.00    +0.000 A 
ATOM     30  C   UNL     1       6.444   4.447  14.314  0.00  0.00    +0.000 A 
ATOM     31  C   UNL     1       5.083   4.418  14.617  0.00  0.00    +0.000 A 
ATOM     32  C   UNL     1       4.661   4.571  15.943  0.00  0.00    +0.000 A 
BRANCH  30  33
ATOM     33  O   UNL     1       6.973   4.355  13.057  0.00  0.00    +0.000 OA
ATOM     34  C   UNL     1       6.374   3.374  12.217  0.00  0.00    +0.000 C 
ENDBRANCH  30  33
ENDBRANCH  25  27
ENDBRANCH   2  25
TORSDOF 11
ENDMDL
MODEL 8
REMARK VINA RESULT:      -8.5      1.452      2.007
REMARK  Name = 
REMARK  13 active torsions:
REMARK  status: ('A' for Active; 'I' for Inactive)
REMARK    1  A    between atoms: C_1  and  C_2
REMARK    2  A    between atoms: C_2  and  C_3
REMARK    3  A    between atoms: C_3  and  C_4
REMARK    4  A    between atoms: C_4  and  N_5
REMARK    5  A    between atoms: C_6  and  C_8
REMARK    6  A    between atoms: C_8  and  O_9
REMARK    7  A    between atoms: O_9  and  C_10
REMARK    8  A    between atoms: C_13  and  C_14
REMARK    9  A    between atoms: C_15  and  C_16
REMARK   10  A    between atoms: C_15  and  C_26
REMARK   11  A    between atoms: C_16  and  C_18
REMARK   12  A    between atoms: C_21  and  O_22
REMARK   13  A    between atoms: O_22  and  C_23
REMARK                            x       y       z     vdW  Elec       q    Type
REMARK                         _______ _______ _______ _____ _____    ______ ____
ROOT
ATOM      1  C   UNL     1       3.739   6.675  18.262  0.00  0.00    +0.000 C 
ATOM      2  C   UNL     1       3.817   5.368  18.582  0.00  0.00    +0.000 C 
ENDROOT
BRANCH   1   6
ATOM      3  C   UNL     1       0.863   9.646  19.322  0.00  0.00    +0.000 A 
ATOM      4  C   UNL     1       1.239   8.670  20.246  0.00  0.00    +0.000 A 
ATOM      5  C   UNL     1       2.149   7.672  19.881  0.00  0.00    +0.000 A 
ATOM      6  C   UNL     1       2.662   7.622  18.580  0.00  0.00    +0.000 A 
ATOM      7  C   UNL     1       2.235   8.557  17.638  0.00  0.00    +0.000 A 
ATOM      8  C   UNL     1       1.340   9.566  18.011  0.00  0.00    +0.000 A 
BRANCH   3   9
ATOM      9  O   UNL     1       0.051  10.714  19.591  0.00  0.00    +0.000 OA
BRANCH   9  10
ATOM     10  C   UNL     1      -1.351  10.449  19.540  0.00  0.00    +0.000 C 
BRANCH  10  12
ATOM     11  N   UNL     1      -3.259  10.799  18.047  0.00  0.00    +0.000 N 
ATOM     12  C   UNL     1      -2.059  11.308  18.490  0.00  0.00    +0.000 C 
ATOM     13  O   UNL     1      -1.578  12.362  18.084  0.00  0.00    +0.000 OA
ATOM     14  H   UNL     1      -3.520   9.879  18.388  0.00  0.00    +0.000 HD
BRANCH  11  15
ATOM     15  C   UNL     1      -4.013  11.408  16.975  0.00  0.00    +0.000 C 
BRANCH  15  16
ATOM     16  C   UNL     1      -5.510  11.475  17.276  0.00  0.00    +0.000 C 
BRANCH  16  18
ATOM     17  C   UNL     1      -6.105  12.381  19.556  0.00  0.00    +0.000 C 
ATOM     18  C   UNL     1      -5.889  12.717  18.088  0.00  0.00    +0.000 C 
ENDBRANCH  16  18
ENDBRANCH  15  16
ENDBRANCH  11  15
ENDBRANCH  10  12
ENDBRANCH   9  10
ENDBRANCH   3   9
ENDBRANCH   1   6
BRANCH   2  19
ATOM     19  C   UNL     1       2.682   4.625  19.163  0.00  0.00    +0.000 A 
ATOM     20  C   UNL     1       1.793   3.939  18.321  0.00  0.00    +0.000 A 
ATOM     21  C   UNL     1       0.810   3.107  18.861  0.00  0.00    +0.000 A 
ATOM     22  C   UNL     1       0.714   2.953  20.243  0.00  0.00    +0.000 A 
ATOM     23  C   UNL     1       1.581   3.646  21.086  0.00  0.00    +0.000 A 
ATOM     24  C   UNL     1       2.560   4.486  20.550  0.00  0.00    +0.000 A 
ENDBRANCH   2  19
BRANCH   2  25
ATOM     25  C   UNL     1       5.061   4.564  18.269  0.00  0.00    +0.000 C 
ATOM     26  O   UNL     1       5.624   3.912  19.145  0.00  0.00    +0.000 OA
BRANCH  25  27
ATOM     27  C   UNL     1       5.653   4.551  16.899  0.00  0.00    +0.000 A 
ATOM     28  C   UNL     1       6.964   4.960  16.636  0.00  0.00    +0.000 A 
ATOM     29  C   UNL     1       7.443   4.969  15.325  0.00  0.00    +0.000 A 
ATOM     30  C   UNL     1       6.654   4.497  14.276  0.00  0.00    +0.000 A 
ATOM     31  C   UNL     1       5.361   4.044  14.537  0.00  0.00    +0.000 A 
ATOM     32  C   UNL     1       4.862   4.072  15.845  0.00  0.00    +0.000 A 
BRANCH  30  33
ATOM     33  O   UNL     1       7.231   4.560  13.039  0.00  0.00    +0.000 OA
ATOM     34  C   UNL     1       6.713   3.645  12.080  0.00  0.00    +0.000 C 
ENDBRANCH  30  33
ENDBRANCH  25  27
ENDBRANCH   2  25
TORSDOF 11
ENDMDL
MODEL 9
REMARK VINA RESULT:      -8.4      2.558      4.035
REMARK  Name = 
REMARK  13 active torsions:
REMARK  status: ('A' for Active; 'I' for Inactive)
REMARK    1  A    between atoms: C_1  and  C_2
REMARK    2  A    between atoms: C_2  and  C_3
REMARK    3  A    between atoms: C_3  and  C_4
REMARK    4  A    between atoms: C_4  and  N_5
REMARK    5  A    between atoms: C_6  and  C_8
REMARK    6  A    between atoms: C_8  and  O_9
REMARK    7  A    between atoms: O_9  and  C_10
REMARK    8  A    between atoms: C_13  and  C_14
REMARK    9  A    between atoms: C_15  and  C_16
REMARK   10  A    between atoms: C_15  and  C_26
REMARK   11  A    between atoms: C_16  and  C_18
REMARK   12  A    between atoms: C_21  and  O_22
REMARK   13  A    between atoms: O_22  and  C_23
REMARK                            x       y       z     vdW  Elec       q    Type
REMARK                         _______ _______ _______ _____ _____    ______ ____
ROOT
ATOM      1  C   UNL     1       3.353   7.440  18.699  0.00  0.00    +0.000 C 
ATOM      2  C   UNL     1       3.593   6.126  18.881  0.00  0.00    +0.000 C 
ENDROOT
BRANCH   1   6
ATOM      3  C   UNL     1      -0.061   9.858  19.546  0.00  0.00    +0.000 A 
ATOM      4  C   UNL     1       0.524   9.090  20.554  0.00  0.00    +0.000 A 
ATOM      5  C   UNL     1       1.615   8.265  20.262  0.00  0.00    +0.000 A 
ATOM      6  C   UNL     1       2.107   8.176  18.955  0.00  0.00    +0.000 A 
ATOM      7  C   UNL     1       1.481   8.892  17.936  0.00  0.00    +0.000 A 
ATOM      8  C   UNL     1       0.402   9.731  18.234  0.00  0.00    +0.000 A 
BRANCH   3   9
ATOM      9  O   UNL     1      -1.073  10.761  19.731  0.00  0.00    +0.000 OA
BRANCH   9  10
ATOM     10  C   UNL     1      -0.681  12.135  19.721  0.00  0.00    +0.000 C 
BRANCH  10  12
ATOM     11  N   UNL     1      -1.429  13.306  21.735  0.00  0.00    +0.000 N 
ATOM     12  C   UNL     1      -0.379  12.655  21.128  0.00  0.00    +0.000 C 
ATOM     13  O   UNL     1       0.718  12.496  21.655  0.00  0.00    +0.000 OA
ATOM     14  H   UNL     1      -2.263  13.453  21.175  0.00  0.00    +0.000 HD
BRANCH  11  15
ATOM     15  C   UNL     1      -1.298  13.966  23.014  0.00  0.00    +0.000 C 
BRANCH  15  16
ATOM     16  C   UNL     1      -2.568  13.865  23.859  0.00  0.00    +0.000 C 
BRANCH  16  18
ATOM     17  C   UNL     1      -4.488  12.408  24.609  0.00  0.00    +0.000 C 
ATOM     18  C   UNL     1      -3.248  12.498  23.733  0.00  0.00    +0.000 C 
ENDBRANCH  16  18
ENDBRANCH  15  16
ENDBRANCH  11  15
ENDBRANCH  10  12
ENDBRANCH   9  10
ENDBRANCH   3   9
ENDBRANCH   1   6
BRANCH   2  19
ATOM     19  C   UNL     1       2.524   5.161  19.201  0.00  0.00    +0.000 A 
ATOM     20  C   UNL     1       1.903   4.440  18.168  0.00  0.00    +0.000 A 
ATOM     21  C   UNL     1       1.003   3.416  18.466  0.00  0.00    +0.000 A 
ATOM     22  C   UNL     1       0.722   3.103  19.796  0.00  0.00    +0.000 A 
ATOM     23  C   UNL     1       1.321   3.827  20.826  0.00  0.00    +0.000 A 
ATOM     24  C   UNL     1       2.215   4.859  20.531  0.00  0.00    +0.000 A 
ENDBRANCH   2  19
BRANCH   2  25
ATOM     25  C   UNL     1       4.979   5.553  18.670  0.00  0.00    +0.000 C 
ATOM     26  O   UNL     1       5.703   5.293  19.627  0.00  0.00    +0.000 OA
BRANCH  25  27
ATOM     27  C   UNL     1       5.516   5.306  17.299  0.00  0.00    +0.000 A 
ATOM     28  C   UNL     1       4.895   5.790  16.143  0.00  0.00    +0.000 A 
ATOM     29  C   UNL     1       5.423   5.484  14.887  0.00  0.00    +0.000 A 
ATOM     30  C   UNL     1       6.614   4.767  14.772  0.00  0.00    +0.000 A 
ATOM     31  C   UNL     1       7.263   4.320  15.922  0.00  0.00    +0.000 A 
ATOM     32  C   UNL     1       6.715   4.589  17.182  0.00  0.00    +0.000 A 
BRANCH  30  33
ATOM     33  O   UNL     1       7.026   4.527  13.491  0.00  0.00    +0.000 OA
ATOM     34  C   UNL     1       6.235   3.592  12.765  0.00  0.00    +0.000 C 
ENDBRANCH  30  33
ENDBRANCH  25  27
ENDBRANCH   2  25
TORSDOF 11
ENDMDL
