MODEL 1
REMARK VINA RESULT:      -7.3      0.000      0.000
REMARK  Name = 
REMARK  6 active torsions:
REMARK  status: ('A' for Active; 'I' for Inactive)
REMARK    1  A    between atoms: C_1  and  C_2
REMARK    2  A    between atoms: C_2  and  C_3
REMARK    3  A    between atoms: C_3  and  C_4
REMARK    4  A    between atoms: C_4  and  C_5
REMARK    5  A    between atoms: C_5  and  C_7
REMARK    6  A    between atoms: C_10  and  N_11
REMARK                            x       y       z     vdW  Elec       q    Type
REMARK                         _______ _______ _______ _____ _____    ______ ____
ROOT
ATOM      1  C   UNL     1       4.848   5.559  16.989  0.00  0.00    +0.000 C 
ATOM      2  O   UNL     1       4.532   6.618  16.437  0.00  0.00    +0.000 OA
ENDROOT
BRANCH   1   3
ATOM      3  C   UNL     1       3.753   4.789  17.671  0.00  0.00    +0.000 A 
ATOM      4  C   UNL     1       3.249   3.578  17.190  0.00  0.00    +0.000 A 
ATOM      5  C   UNL     1       2.190   2.934  17.838  0.00  0.00    +0.000 A 
ATOM      6  C   UNL     1       1.629   3.464  19.000  0.00  0.00    +0.000 A 
ATOM      7  C   UNL     1       2.125   4.691  19.473  0.00  0.00    +0.000 A 
ATOM      8 CL   UNL     1       1.430   5.434  20.871  0.00  0.00    +0.000 Cl
ATOM      9  C   UNL     1       3.191   5.337  18.834  0.00  0.00    +0.000 A 
BRANCH   6  10
ATOM     10  N   UNL     1       0.454   2.882  19.506  0.00  0.00    +0.000 N 
ATOM     11  H   UNL     1       0.126   2.068  18.996  0.00  0.00    +0.000 HD
ATOM     12  H   UNL     1       0.485   2.735  20.513  0.00  0.00    +0.000 HD
ENDBRANCH   6  10
ENDBRANCH   1   3
BRANCH   1  13
ATOM     13  C   UNL     1       6.312   5.012  16.955  0.00  0.00    +0.000 C 
ATOM     14  C   UNL     1       7.351   6.150  16.886  0.00  0.00    +0.000 C 
ATOM     15  C   UNL     1       7.610   6.567  18.327  0.00  0.00    +0.000 C 
ATOM     16  C   UNL     1       7.037   5.454  19.178  0.00  0.00    +0.000 C 
ATOM     17  N   UNL     1       6.676   4.384  18.250  0.00  0.00    +0.000 NA
ATOM     18  H   UNL     1       5.920   3.846  18.657  0.00  0.00    +0.000 HD
BRANCH  13  19
ATOM     19  C   UNL     1       6.543   4.023  15.785  0.00  0.00    +0.000 C 
BRANCH  19  21
ATOM     20  C   UNL     1       6.084   3.764  13.319  0.00  0.00    +0.000 C 
ATOM     21  C   UNL     1       6.620   4.689  14.403  0.00  0.00    +0.000 C 
ENDBRANCH  19  21
ENDBRANCH  13  19
ENDBRANCH   1  13
TORSDOF 5
ENDMDL
MODEL 2
REMARK VINA RESULT:      -7.2      2.828      5.695
REMARK  Name = 
REMARK  6 active torsions:
REMARK  status: ('A' for Active; 'I' for Inactive)
REMARK    1  A    between atoms: C_1  and  C_2
REMARK    2  A    between atoms: C_2  and  C_3
REMARK    3  A    between atoms: C_3  and  C_4
REMARK    4  A    between atoms: C_4  and  C_5
REMARK    5  A    between atoms: C_5  and  C_7
REMARK    6  A    between atoms: C_10  and  N_11
REMARK                            x       y       z     vdW  Elec       q    Type
REMARK                         _______ _______ _______ _____ _____    ______ ____
ROOT
ATOM      1  C   UNL     1       3.540   3.381  18.879  0.00  0.00    +0.000 C 
ATOM      2  O   UNL     1       3.580   2.166  19.098  0.00  0.00    +0.000 OA
ENDROOT
BRANCH   1   3
ATOM      3  C   UNL     1       4.663   3.970  18.073  0.00  0.00    +0.000 A 
ATOM      4  C   UNL     1       5.715   4.697  18.636  0.00  0.00    +0.000 A 
ATOM      5  C   UNL     1       6.704   5.269  17.829  0.00  0.00    +0.000 A 
ATOM      6  C   UNL     1       6.686   5.104  16.444  0.00  0.00    +0.000 A 
ATOM      7  C   UNL     1       5.617   4.387  15.878  0.00  0.00    +0.000 A 
ATOM      8 CL   UNL     1       5.501   4.201  14.162  0.00  0.00    +0.000 Cl
ATOM      9  C   UNL     1       4.629   3.804  16.681  0.00  0.00    +0.000 A 
BRANCH   6  10
ATOM     10  N   UNL     1       7.589   5.848  15.665  0.00  0.00    +0.000 N 
ATOM     11  H   UNL     1       7.261   6.075  14.732  0.00  0.00    +0.000 HD
ATOM     12  H   UNL     1       7.972   6.652  16.159  0.00  0.00    +0.000 HD
ENDBRANCH   6  10
ENDBRANCH   1   3
BRANCH   1  13
ATOM     13  C   UNL     1       2.357   4.274  19.378  0.00  0.00    +0.000 C 
ATOM     14  C   UNL     1       1.085   3.445  19.649  0.00  0.00    +0.000 C 
ATOM     15  C   UNL     1       1.216   2.932  21.076  0.00  0.00    +0.000 C 
ATOM     16  C   UNL     1       2.320   3.757  21.701  0.00  0.00    +0.000 C 
ATOM     17  N   UNL     1       2.631   4.809  20.736  0.00  0.00    +0.000 NA
ATOM     18  H   UNL     1       3.596   5.090  20.865  0.00  0.00    +0.000 HD
BRANCH  13  19
ATOM     19  C   UNL     1       2.031   5.424  18.394  0.00  0.00    +0.000 C 
BRANCH  19  21
ATOM     20  C   UNL     1       3.336   7.472  17.715  0.00  0.00    +0.000 C 
ATOM     21  C   UNL     1       2.557   6.798  18.836  0.00  0.00    +0.000 C 
ENDBRANCH  19  21
ENDBRANCH  13  19
ENDBRANCH   1  13
TORSDOF 5
ENDMDL
MODEL 3
REMARK VINA RESULT:      -7.1      2.691      5.563
REMARK  Name = 
REMARK  6 active torsions:
REMARK  status: ('A' for Active; 'I' for Inactive)
REMARK    1  A    between atoms: C_1  and  C_2
REMARK    2  A    between atoms: C_2  and  C_3
REMARK    3  A    between atoms: C_3  and  C_4
REMARK    4  A    between atoms: C_4  and  C_5
REMARK    5  A    between atoms: C_5  and  C_7
REMARK    6  A    between atoms: C_10  and  N_11
REMARK                            x       y       z     vdW  Elec       q    Type
REMARK                         _______ _______ _______ _____ _____    ______ ____
ROOT
ATOM      1  C   UNL     1       3.621   3.523  18.959  0.00  0.00    +0.000 C 
ATOM      2  O   UNL     1       3.837   2.360  19.313  0.00  0.00    +0.000 OA
ENDROOT
BRANCH   1   3
ATOM      3  C   UNL     1       4.595   4.139  17.994  0.00  0.00    +0.000 A 
ATOM      4  C   UNL     1       4.569   3.901  16.618  0.00  0.00    +0.000 A 
ATOM      5  C   UNL     1       5.537   4.459  15.776  0.00  0.00    +0.000 A 
ATOM      6  C   UNL     1       6.536   5.292  16.281  0.00  0.00    +0.000 A 
ATOM      7  C   UNL     1       6.571   5.515  17.669  0.00  0.00    +0.000 A 
ATOM      8 CL   UNL     1       7.820   6.487  18.366  0.00  0.00    +0.000 Cl
ATOM      9  C   UNL     1       5.599   4.968  18.516  0.00  0.00    +0.000 A 
BRANCH   6  10
ATOM     10  N   UNL     1       7.587   5.674  15.430  0.00  0.00    +0.000 N 
ATOM     11  H   UNL     1       8.510   5.383  15.735  0.00  0.00    +0.000 HD
ATOM     12  H   UNL     1       7.404   5.461  14.451  0.00  0.00    +0.000 HD
ENDBRANCH   6  10
ENDBRANCH   1   3
BRANCH   1  13
ATOM     13  C   UNL     1       2.370   4.321  19.453  0.00  0.00    +0.000 C 
ATOM     14  C   UNL     1       1.146   3.405  19.656  0.00  0.00    +0.000 C 
ATOM     15  C   UNL     1       1.269   2.848  21.068  0.00  0.00    +0.000 C 
ATOM     16  C   UNL     1       2.301   3.716  21.754  0.00  0.00    +0.000 C 
ATOM     17  N   UNL     1       2.571   4.822  20.837  0.00  0.00    +0.000 NA
ATOM     18  H   UNL     1       3.512   5.157  21.005  0.00  0.00    +0.000 HD
BRANCH  13  19
ATOM     19  C   UNL     1       2.000   5.485  18.501  0.00  0.00    +0.000 C 
BRANCH  19  21
ATOM     20  C   UNL     1       3.069   7.672  17.844  0.00  0.00    +0.000 C 
ATOM     21  C   UNL     1       2.464   6.867  18.986  0.00  0.00    +0.000 C 
ENDBRANCH  19  21
ENDBRANCH  13  19
ENDBRANCH   1  13
TORSDOF 5
ENDMDL
MODEL 4
REMARK VINA RESULT:      -7.1      2.764      5.653
REMARK  Name = 
REMARK  6 active torsions:
REMARK  status: ('A' for Active; 'I' for Inactive)
REMARK    1  A    between atoms: C_1  and  C_2
REMARK    2  A    between atoms: C_2  and  C_3
REMARK    3  A    between atoms: C_3  and  C_4
REMARK    4  A    between atoms: C_4  and  C_5
REMARK    5  A    between atoms: C_5  and  C_7
REMARK    6  A    between atoms: C_10  and  N_11
REMARK                            x       y       z     vdW  Elec       q    Type
REMARK                         _______ _______ _______ _____ _____    ______ ____
ROOT
ATOM      1  C   UNL     1       4.364   3.648  19.105  0.00  0.00    +0.000 C 
ATOM      2  O   UNL     1       4.715   2.687  19.797  0.00  0.00    +0.000 OA
ENDROOT
BRANCH   1   3
ATOM      3  C   UNL     1       5.304   4.093  18.021  0.00  0.00    +0.000 A 
ATOM      4  C   UNL     1       6.494   4.782  18.268  0.00  0.00    +0.000 A 
ATOM      5  C   UNL     1       7.302   5.218  17.213  0.00  0.00    +0.000 A 
ATOM      6  C   UNL     1       6.961   4.952  15.888  0.00  0.00    +0.000 A 
ATOM      7  C   UNL     1       5.753   4.275  15.640  0.00  0.00    +0.000 A 
ATOM      8 CL   UNL     1       5.240   3.970  14.017  0.00  0.00    +0.000 Cl
ATOM      9  C   UNL     1       4.945   3.826  16.692  0.00  0.00    +0.000 A 
BRANCH   6  10
ATOM     10  N   UNL     1       7.701   5.569  14.865  0.00  0.00    +0.000 N 
ATOM     11  H   UNL     1       7.144   6.038  14.158  0.00  0.00    +0.000 HD
ATOM     12  H   UNL     1       8.465   6.143  15.217  0.00  0.00    +0.000 HD
ENDBRANCH   6  10
ENDBRANCH   1   3
BRANCH   1  13
ATOM     13  C   UNL     1       2.985   4.357  19.311  0.00  0.00    +0.000 C 
ATOM     14  C   UNL     1       2.002   4.048  18.164  0.00  0.00    +0.000 C 
ATOM     15  C   UNL     1       1.315   2.743  18.542  0.00  0.00    +0.000 C 
ATOM     16  C   UNL     1       1.618   2.539  20.011  0.00  0.00    +0.000 C 
ATOM     17  N   UNL     1       2.255   3.774  20.465  0.00  0.00    +0.000 NA
ATOM     18  H   UNL     1       2.859   3.555  21.248  0.00  0.00    +0.000 HD
BRANCH  13  19
ATOM     19  C   UNL     1       3.130   5.890  19.476  0.00  0.00    +0.000 C 
BRANCH  19  21
ATOM     20  C   UNL     1       3.757   7.319  17.495  0.00  0.00    +0.000 C 
ATOM     21  C   UNL     1       2.608   6.703  18.282  0.00  0.00    +0.000 C 
ENDBRANCH  19  21
ENDBRANCH  13  19
ENDBRANCH   1  13
TORSDOF 5
ENDMDL
MODEL 5
REMARK VINA RESULT:      -7.1      2.665      5.579
REMARK  Name = 
REMARK  6 active torsions:
REMARK  status: ('A' for Active; 'I' for Inactive)
REMARK    1  A    between atoms: C_1  and  C_2
REMARK    2  A    between atoms: C_2  and  C_3
REMARK    3  A    between atoms: C_3  and  C_4
REMARK    4  A    between atoms: C_4  and  C_5
REMARK    5  A    between atoms: C_5  and  C_7
REMARK    6  A    between atoms: C_10  and  N_11
REMARK                            x       y       z     vdW  Elec       q    Type
REMARK                         _______ _______ _______ _____ _____    ______ ____
ROOT
ATOM      1  C   UNL     1       4.244   3.827  19.091  0.00  0.00    +0.000 C 
ATOM      2  O   UNL     1       4.754   2.960  19.808  0.00  0.00    +0.000 OA
ENDROOT
BRANCH   1   3
ATOM      3  C   UNL     1       5.048   4.303  17.913  0.00  0.00    +0.000 A 
ATOM      4  C   UNL     1       5.025   3.679  16.664  0.00  0.00    +0.000 A 
ATOM      5  C   UNL     1       5.838   4.134  15.620  0.00  0.00    +0.000 A 
ATOM      6  C   UNL     1       6.670   5.241  15.787  0.00  0.00    +0.000 A 
ATOM      7  C   UNL     1       6.705   5.857  17.051  0.00  0.00    +0.000 A 
ATOM      8 CL   UNL     1       7.762   7.194  17.342  0.00  0.00    +0.000 Cl
ATOM      9  C   UNL     1       5.887   5.412  18.097  0.00  0.00    +0.000 A 
BRANCH   6  10
ATOM     10  N   UNL     1       7.598   5.544  14.777  0.00  0.00    +0.000 N 
ATOM     11  H   UNL     1       7.920   4.746  14.240  0.00  0.00    +0.000 HD
ATOM     12  H   UNL     1       7.309   6.327  14.192  0.00  0.00    +0.000 HD
ENDBRANCH   6  10
ENDBRANCH   1   3
BRANCH   1  13
ATOM     13  C   UNL     1       2.809   4.387  19.360  0.00  0.00    +0.000 C 
ATOM     14  C   UNL     1       1.810   3.962  18.264  0.00  0.00    +0.000 C 
ATOM     15  C   UNL     1       1.287   2.595  18.683  0.00  0.00    +0.000 C 
ATOM     16  C   UNL     1       1.680   2.441  20.136  0.00  0.00    +0.000 C 
ATOM     17  N   UNL     1       2.201   3.742  20.551  0.00  0.00    +0.000 NA
ATOM     18  H   UNL     1       2.863   3.597  21.305  0.00  0.00    +0.000 HD
BRANCH  13  19
ATOM     19  C   UNL     1       2.796   5.928  19.508  0.00  0.00    +0.000 C 
BRANCH  19  21
ATOM     20  C   UNL     1       3.128   7.772  17.821  0.00  0.00    +0.000 C 
ATOM     21  C   UNL     1       2.195   6.671  18.306  0.00  0.00    +0.000 C 
ENDBRANCH  19  21
ENDBRANCH  13  19
ENDBRANCH   1  13
TORSDOF 5
ENDMDL
MODEL 6
REMARK VINA RESULT:      -7.1      1.276      1.733
REMARK  Name = 
REMARK  6 active torsions:
REMARK  status: ('A' for Active; 'I' for Inactive)
REMARK    1  A    between atoms: C_1  and  C_2
REMARK    2  A    between atoms: C_2  and  C_3
REMARK    3  A    between atoms: C_3  and  C_4
REMARK    4  A    between atoms: C_4  and  C_5
REMARK    5  A    between atoms: C_5  and  C_7
REMARK    6  A    between atoms: C_10  and  N_11
REMARK                            x       y       z     vdW  Elec       q    Type
REMARK                         _______ _______ _______ _____ _____    ______ ____
ROOT
ATOM      1  C   UNL     1       4.597   5.835  17.506  0.00  0.00    +0.000 C 
ATOM      2  O   UNL     1       4.303   6.904  16.960  0.00  0.00    +0.000 OA
ENDROOT
BRANCH   1   3
ATOM      3  C   UNL     1       3.577   5.236  18.434  0.00  0.00    +0.000 A 
ATOM      4  C   UNL     1       3.296   5.749  19.702  0.00  0.00    +0.000 A 
ATOM      5  C   UNL     1       2.375   5.116  20.543  0.00  0.00    +0.000 A 
ATOM      6  C   UNL     1       1.689   3.974  20.129  0.00  0.00    +0.000 A 
ATOM      7  C   UNL     1       1.986   3.450  18.858  0.00  0.00    +0.000 A 
ATOM      8 CL   UNL     1       1.217   2.001  18.309  0.00  0.00    +0.000 Cl
ATOM      9  C   UNL     1       2.900   4.085  18.007  0.00  0.00    +0.000 A 
BRANCH   6  10
ATOM     10  N   UNL     1       0.918   3.272  21.071  0.00  0.00    +0.000 N 
ATOM     11  H   UNL     1       0.843   2.274  20.902  0.00  0.00    +0.000 HD
ATOM     12  H   UNL     1       1.166   3.496  22.033  0.00  0.00    +0.000 HD
ENDBRANCH   6  10
ENDBRANCH   1   3
BRANCH   1  13
ATOM     13  C   UNL     1       5.950   5.105  17.224  0.00  0.00    +0.000 C 
ATOM     14  C   UNL     1       7.086   6.099  16.907  0.00  0.00    +0.000 C 
ATOM     15  C   UNL     1       7.665   6.515  18.253  0.00  0.00    +0.000 C 
ATOM     16  C   UNL     1       7.137   5.505  19.248  0.00  0.00    +0.000 C 
ATOM     17  N   UNL     1       6.479   4.467  18.457  0.00  0.00    +0.000 NA
ATOM     18  H   UNL     1       5.756   4.040  19.024  0.00  0.00    +0.000 HD
BRANCH  13  19
ATOM     19  C   UNL     1       5.832   4.066  16.081  0.00  0.00    +0.000 C 
BRANCH  19  21
ATOM     20  C   UNL     1       6.258   3.868  13.604  0.00  0.00    +0.000 C 
ATOM     21  C   UNL     1       5.577   4.681  14.696  0.00  0.00    +0.000 C 
ENDBRANCH  19  21
ENDBRANCH  13  19
ENDBRANCH   1  13
TORSDOF 5
ENDMDL
MODEL 7
REMARK VINA RESULT:      -7.0      1.524      1.785
REMARK  Name = 
REMARK  6 active torsions:
REMARK  status: ('A' for Active; 'I' for Inactive)
REMARK    1  A    between atoms: C_1  and  C_2
REMARK    2  A    between atoms: C_2  and  C_3
REMARK    3  A    between atoms: C_3  and  C_4
REMARK    4  A    between atoms: C_4  and  C_5
REMARK    5  A    between atoms: C_5  and  C_7
REMARK    6  A    between atoms: C_10  and  N_11
REMARK                            x       y       z     vdW  Elec       q    Type
REMARK                         _______ _______ _______ _____ _____    ______ ____
ROOT
ATOM      1  C   UNL     1       6.099   4.450  17.804  0.00  0.00    +0.000 C 
ATOM      2  O   UNL     1       7.005   4.250  18.618  0.00  0.00    +0.000 OA
ENDROOT
BRANCH   1   3
ATOM      3  C   UNL     1       4.733   3.934  18.157  0.00  0.00    +0.000 A 
ATOM      4  C   UNL     1       4.059   2.964  17.410  0.00  0.00    +0.000 A 
ATOM      5  C   UNL     1       2.765   2.563  17.758  0.00  0.00    +0.000 A 
ATOM      6  C   UNL     1       2.123   3.095  18.876  0.00  0.00    +0.000 A 
ATOM      7  C   UNL     1       2.795   4.084  19.615  0.00  0.00    +0.000 A 
ATOM      8 CL   UNL     1       2.029   4.830  20.975  0.00  0.00    +0.000 Cl
ATOM      9  C   UNL     1       4.095   4.483  19.279  0.00  0.00    +0.000 A 
BRANCH   6  10
ATOM     10  N   UNL     1       0.763   2.801  19.075  0.00  0.00    +0.000 N 
ATOM     11  H   UNL     1       0.117   3.458  18.649  0.00  0.00    +0.000 HD
ATOM     12  H   UNL     1       0.533   1.829  18.874  0.00  0.00    +0.000 HD
ENDBRANCH   6  10
ENDBRANCH   1   3
BRANCH   1  13
ATOM     13  C   UNL     1       6.339   5.240  16.475  0.00  0.00    +0.000 C 
ATOM     14  C   UNL     1       5.130   6.124  16.106  0.00  0.00    +0.000 C 
ATOM     15  C   UNL     1       5.332   7.438  16.848  0.00  0.00    +0.000 C 
ATOM     16  C   UNL     1       6.776   7.429  17.298  0.00  0.00    +0.000 C 
ATOM     17  N   UNL     1       7.392   6.272  16.653  0.00  0.00    +0.000 NA
ATOM     18  H   UNL     1       8.164   5.956  17.227  0.00  0.00    +0.000 HD
BRANCH  13  19
ATOM     19  C   UNL     1       6.684   4.306  15.289  0.00  0.00    +0.000 C 
BRANCH  19  21
ATOM     20  C   UNL     1       6.129   3.621  12.927  0.00  0.00    +0.000 C 
ATOM     21  C   UNL     1       5.586   4.215  14.219  0.00  0.00    +0.000 C 
ENDBRANCH  19  21
ENDBRANCH  13  19
ENDBRANCH   1  13
TORSDOF 5
ENDMDL
MODEL 8
REMARK VINA RESULT:      -6.9      1.630      3.394
REMARK  Name = 
REMARK  6 active torsions:
REMARK  status: ('A' for Active; 'I' for Inactive)
REMARK    1  A    between atoms: C_1  and  C_2
REMARK    2  A    between atoms: C_2  and  C_3
REMARK    3  A    between atoms: C_3  and  C_4
REMARK    4  A    between atoms: C_4  and  C_5
REMARK    5  A    between atoms: C_5  and  C_7
REMARK    6  A    between atoms: C_10  and  N_11
REMARK                            x       y       z     vdW  Elec       q    Type
REMARK                         _______ _______ _______ _____ _____    ______ ____
ROOT
ATOM      1  C   UNL     1       5.331   5.863  16.117  0.00  0.00    +0.000 C 
ATOM      2  O   UNL     1       5.180   6.855  15.397  0.00  0.00    +0.000 OA
ENDROOT
BRANCH   1   3
ATOM      3  C   UNL     1       4.250   5.573  17.120  0.00  0.00    +0.000 A 
ATOM      4  C   UNL     1       3.832   6.490  18.088  0.00  0.00    +0.000 A 
ATOM      5  C   UNL     1       2.859   6.143  19.031  0.00  0.00    +0.000 A 
ATOM      6  C   UNL     1       2.256   4.886  19.013  0.00  0.00    +0.000 A 
ATOM      7  C   UNL     1       2.691   3.958  18.050  0.00  0.00    +0.000 A 
ATOM      8 CL   UNL     1       2.029   2.361  18.014  0.00  0.00    +0.000 Cl
ATOM      9  C   UNL     1       3.658   4.302  17.096  0.00  0.00    +0.000 A 
BRANCH   6  10
ATOM     10  N   UNL     1       1.426   4.522  20.086  0.00  0.00    +0.000 N 
ATOM     11  H   UNL     1       0.695   5.191  20.307  0.00  0.00    +0.000 HD
ATOM     12  H   UNL     1       1.082   3.566  20.017  0.00  0.00    +0.000 HD
ENDBRANCH   6  10
ENDBRANCH   1   3
BRANCH   1  13
ATOM     13  C   UNL     1       6.568   4.917  15.976  0.00  0.00    +0.000 C 
ATOM     14  C   UNL     1       6.185   3.556  15.358  0.00  0.00    +0.000 C 
ATOM     15  C   UNL     1       6.243   3.752  13.849  0.00  0.00    +0.000 C 
ATOM     16  C   UNL     1       6.999   5.046  13.639  0.00  0.00    +0.000 C 
ATOM     17  N   UNL     1       7.515   5.428  14.952  0.00  0.00    +0.000 NA
ATOM     18  H   UNL     1       7.620   6.435  14.976  0.00  0.00    +0.000 HD
BRANCH  13  19
ATOM     19  C   UNL     1       7.294   4.691  17.325  0.00  0.00    +0.000 C 
BRANCH  19  21
ATOM     20  C   UNL     1       7.643   5.726  19.598  0.00  0.00    +0.000 C 
ATOM     21  C   UNL     1       7.603   5.982  18.098  0.00  0.00    +0.000 C 
ENDBRANCH  19  21
ENDBRANCH  13  19
ENDBRANCH   1  13
TORSDOF 5
ENDMDL
MODEL 9
REMARK VINA RESULT:      -6.8      2.919      5.785
REMARK  Name = 
REMARK  6 active torsions:
REMARK  status: ('A' for Active; 'I' for Inactive)
REMARK    1  A    between atoms: C_1  and  C_2
REMARK    2  A    between atoms: C_2  and  C_3
REMARK    3  A    between atoms: C_3  and  C_4
REMARK    4  A    between atoms: C_4  and  C_5
REMARK    5  A    between atoms: C_5  and  C_7
REMARK    6  A    between atoms: C_10  and  N_11
REMARK                            x       y       z     vdW  Elec       q    Type
REMARK                         _______ _______ _______ _____ _____    ______ ____
ROOT
ATOM      1  C   UNL     1       4.163   4.279  18.842  0.00  0.00    +0.000 C 
ATOM      2  O   UNL     1       4.363   3.297  19.565  0.00  0.00    +0.000 OA
ENDROOT
BRANCH   1   3
ATOM      3  C   UNL     1       5.166   4.547  17.757  0.00  0.00    +0.000 A 
ATOM      4  C   UNL     1       6.367   5.229  17.971  0.00  0.00    +0.000 A 
ATOM      5  C   UNL     1       7.237   5.498  16.909  0.00  0.00    +0.000 A 
ATOM      6  C   UNL     1       6.947   5.068  15.615  0.00  0.00    +0.000 A 
ATOM      7  C   UNL     1       5.730   4.398  15.398  0.00  0.00    +0.000 A 
ATOM      8 CL   UNL     1       5.281   3.894  13.806  0.00  0.00    +0.000 Cl
ATOM      9  C   UNL     1       4.859   4.116  16.458  0.00  0.00    +0.000 A 
BRANCH   6  10
ATOM     10  N   UNL     1       7.755   5.520  14.558  0.00  0.00    +0.000 N 
ATOM     11  H   UNL     1       8.751   5.384  14.693  0.00  0.00    +0.000 HD
ATOM     12  H   UNL     1       7.430   5.205  13.645  0.00  0.00    +0.000 HD
ENDBRANCH   6  10
ENDBRANCH   1   3
BRANCH   1  13
ATOM     13  C   UNL     1       2.902   5.188  19.012  0.00  0.00    +0.000 C 
ATOM     14  C   UNL     1       1.604   4.450  18.624  0.00  0.00    +0.000 C 
ATOM     15  C   UNL     1       1.156   3.706  19.875  0.00  0.00    +0.000 C 
ATOM     16  C   UNL     1       1.951   4.313  21.010  0.00  0.00    +0.000 C 
ATOM     17  N   UNL     1       2.639   5.472  20.445  0.00  0.00    +0.000 NA
ATOM     18  H   UNL     1       3.485   5.636  20.979  0.00  0.00    +0.000 HD
BRANCH  13  19
ATOM     19  C   UNL     1       3.014   6.506  18.206  0.00  0.00    +0.000 C 
BRANCH  19  21
ATOM     20  C   UNL     1       2.019   8.794  17.842  0.00  0.00    +0.000 C 
ATOM     21  C   UNL     1       2.317   7.707  18.865  0.00  0.00    +0.000 C 
ENDBRANCH  19  21
ENDBRANCH  13  19
ENDBRANCH   1  13
TORSDOF 5
ENDMDL
