MODEL 1
REMARK VINA RESULT:      -7.2      0.000      0.000
REMARK  Name = 
REMARK  7 active torsions:
REMARK  status: ('A' for Active; 'I' for Inactive)
REMARK    1  A    between atoms: C_1  and  O_2
REMARK    2  A    between atoms: O_2  and  C_3
REMARK    3  A    between atoms: C_5  and  O_6
REMARK    4  A    between atoms: C_7  and  C_8
REMARK    5  A    between atoms: C_13  and  O_14
REMARK    6  A    between atoms: C_21  and  O_22
REMARK    7  A    between atoms: O_22  and  C_23
REMARK                            x       y       z     vdW  Elec       q    Type
REMARK                         _______ _______ _______ _____ _____    ______ ____
ROOT
ATOM      1  C   UNL     1       3.343   6.554  18.812  0.00  0.00    +0.000 A 
ATOM      2  C   UNL     1       2.829   7.551  18.128  0.00  0.00    +0.000 A 
ATOM      3  O   UNL     1       1.517   7.776  18.227  0.00  0.00    +0.000 OA
ATOM      4  C   UNL     1       1.423   8.655  19.263  0.00  0.00    +0.000 A 
ATOM      5  C   UNL     1       1.312   9.918  18.510  0.00  0.00    +0.000 A 
ATOM      6  C   UNL     1       1.030  11.101  19.021  0.00  0.00    +0.000 A 
ATOM      7  C   UNL     1       0.841  10.948  20.342  0.00  0.00    +0.000 A 
ATOM      8  C   UNL     1       1.075   9.510  21.022  0.00  0.00    +0.000 A 
ATOM      9  C   UNL     1       1.524   8.174  20.578  0.00  0.00    +0.000 A 
ATOM     10  C   UNL     1       2.091   6.529  19.988  0.00  0.00    +0.000 A 
ATOM     11  O   UNL     1       1.582   5.436  20.358  0.00  0.00    +0.000 OA
ENDROOT
BRANCH   1  15
ATOM     12  C   UNL     1       6.698   5.183  16.052  0.00  0.00    +0.000 A 
ATOM     13  C   UNL     1       5.544   4.366  16.218  0.00  0.00    +0.000 A 
ATOM     14  C   UNL     1       4.424   4.709  17.042  0.00  0.00    +0.000 A 
ATOM     15  C   UNL     1       4.418   5.890  17.816  0.00  0.00    +0.000 A 
ATOM     16  C   UNL     1       5.656   6.703  17.554  0.00  0.00    +0.000 A 
ATOM     17  C   UNL     1       6.812   6.408  16.745  0.00  0.00    +0.000 A 
BRANCH  12  19
ATOM     18  C   UNL     1       6.890   4.537  13.936  0.00  0.00    +0.000 C 
ATOM     19  O   UNL     1       7.558   4.566  15.143  0.00  0.00    +0.000 OA
ENDBRANCH  12  19
BRANCH  14  20
ATOM     20  O   UNL     1       3.368   3.830  16.998  0.00  0.00    +0.000 OA
ATOM     21  H   UNL     1       3.426   3.281  16.186  0.00  0.00    +0.000 HD
ENDBRANCH  14  20
BRANCH  17  22
ATOM     22  O   UNL     1       7.791   7.424  16.816  0.00  0.00    +0.000 OA
ATOM     23  C   UNL     1       8.028   8.551  17.739  0.00  0.00    +0.000 C 
ENDBRANCH  17  22
ENDBRANCH   1  15
BRANCH   6  24
ATOM     24  O   UNL     1       0.917  12.187  18.227  0.00  0.00    +0.000 OA
ATOM     25  H   UNL     1       1.504  12.066  17.447  0.00  0.00    +0.000 HD
ENDBRANCH   6  24
TORSDOF 5
ENDMDL
MODEL 2
REMARK VINA RESULT:      -7.1      2.373      7.505
REMARK  Name = 
REMARK  7 active torsions:
REMARK  status: ('A' for Active; 'I' for Inactive)
REMARK    1  A    between atoms: C_1  and  O_2
REMARK    2  A    between atoms: O_2  and  C_3
REMARK    3  A    between atoms: C_5  and  O_6
REMARK    4  A    between atoms: C_7  and  C_8
REMARK    5  A    between atoms: C_13  and  O_14
REMARK    6  A    between atoms: C_21  and  O_22
REMARK    7  A    between atoms: O_22  and  C_23
REMARK                            x       y       z     vdW  Elec       q    Type
REMARK                         _______ _______ _______ _____ _____    ______ ____
ROOT
ATOM      1  C   UNL     1       5.471   4.714  17.166  0.00  0.00    +0.000 A 
ATOM      2  C   UNL     1       4.763   4.434  16.095  0.00  0.00    +0.000 A 
ATOM      3  O   UNL     1       4.858   5.249  15.042  0.00  0.00    +0.000 OA
ATOM      4  C   UNL     1       5.871   4.706  14.312  0.00  0.00    +0.000 A 
ATOM      5  C   UNL     1       5.086   3.950  13.318  0.00  0.00    +0.000 A 
ATOM      6  C   UNL     1       5.567   3.350  12.246  0.00  0.00    +0.000 A 
ATOM      7  C   UNL     1       6.891   3.569  12.208  0.00  0.00    +0.000 A 
ATOM      8  C   UNL     1       7.608   4.354  13.415  0.00  0.00    +0.000 A 
ATOM      9  C   UNL     1       7.198   4.932  14.711  0.00  0.00    +0.000 A 
ATOM     10  C   UNL     1       6.650   5.633  16.318  0.00  0.00    +0.000 A 
ATOM     11  O   UNL     1       7.048   6.740  16.775  0.00  0.00    +0.000 OA
ENDROOT
BRANCH   1  15
ATOM     12  C   UNL     1       2.518   4.360  20.616  0.00  0.00    +0.000 A 
ATOM     13  C   UNL     1       3.371   3.264  20.303  0.00  0.00    +0.000 A 
ATOM     14  C   UNL     1       4.348   3.275  19.256  0.00  0.00    +0.000 A 
ATOM     15  C   UNL     1       4.491   4.388  18.399  0.00  0.00    +0.000 A 
ATOM     16  C   UNL     1       3.576   5.505  18.821  0.00  0.00    +0.000 A 
ATOM     17  C   UNL     1       2.574   5.549  19.857  0.00  0.00    +0.000 A 
BRANCH  12  19
ATOM     18  C   UNL     1       1.500   2.663  21.623  0.00  0.00    +0.000 C 
ATOM     19  O   UNL     1       1.735   4.019  21.719  0.00  0.00    +0.000 OA
ENDBRANCH  12  19
BRANCH  14  20
ATOM     20  O   UNL     1       5.136   2.152  19.173  0.00  0.00    +0.000 OA
ATOM     21  H   UNL     1       5.206   1.862  18.238  0.00  0.00    +0.000 HD
ENDBRANCH  14  20
BRANCH  17  22
ATOM     22  O   UNL     1       1.888   6.783  19.887  0.00  0.00    +0.000 OA
ATOM     23  C   UNL     1       1.556   7.742  20.958  0.00  0.00    +0.000 C 
ENDBRANCH  17  22
ENDBRANCH   1  15
BRANCH   6  24
ATOM     24  O   UNL     1       4.744   2.716  11.383  0.00  0.00    +0.000 OA
ATOM     25  H   UNL     1       3.819   2.984  11.579  0.00  0.00    +0.000 HD
ENDBRANCH   6  24
TORSDOF 5
ENDMDL
MODEL 3
REMARK VINA RESULT:      -7.0      1.693      7.391
REMARK  Name = 
REMARK  7 active torsions:
REMARK  status: ('A' for Active; 'I' for Inactive)
REMARK    1  A    between atoms: C_1  and  O_2
REMARK    2  A    between atoms: O_2  and  C_3
REMARK    3  A    between atoms: C_5  and  O_6
REMARK    4  A    between atoms: C_7  and  C_8
REMARK    5  A    between atoms: C_13  and  O_14
REMARK    6  A    between atoms: C_21  and  O_22
REMARK    7  A    between atoms: O_22  and  C_23
REMARK                            x       y       z     vdW  Elec       q    Type
REMARK                         _______ _______ _______ _____ _____    ______ ____
ROOT
ATOM      1  C   UNL     1       2.500   6.661  18.549  0.00  0.00    +0.000 A 
ATOM      2  C   UNL     1       3.760   6.880  18.250  0.00  0.00    +0.000 A 
ATOM      3  O   UNL     1       4.662   5.958  18.595  0.00  0.00    +0.000 OA
ATOM      4  C   UNL     1       4.716   5.145  17.506  0.00  0.00    +0.000 A 
ATOM      5  C   UNL     1       5.919   5.688  16.848  0.00  0.00    +0.000 A 
ATOM      6  C   UNL     1       6.539   5.159  15.809  0.00  0.00    +0.000 A 
ATOM      7  C   UNL     1       5.895   4.030  15.473  0.00  0.00    +0.000 A 
ATOM      8  C   UNL     1       4.548   3.615  16.249  0.00  0.00    +0.000 A 
ATOM      9  C   UNL     1       3.700   4.196  17.310  0.00  0.00    +0.000 A 
ATOM     10  C   UNL     1       2.668   4.954  18.628  0.00  0.00    +0.000 A 
ATOM     11  O   UNL     1       2.148   4.302  19.575  0.00  0.00    +0.000 OA
ENDROOT
BRANCH   1  15
ATOM     12  C   UNL     1       0.777  10.442  20.417  0.00  0.00    +0.000 A 
ATOM     13  C   UNL     1       1.194  10.456  19.056  0.00  0.00    +0.000 A 
ATOM     14  C   UNL     1       1.729   9.321  18.364  0.00  0.00    +0.000 A 
ATOM     15  C   UNL     1       1.940   8.092  19.025  0.00  0.00    +0.000 A 
ATOM     16  C   UNL     1       1.443   8.160  20.444  0.00  0.00    +0.000 A 
ATOM     17  C   UNL     1       0.904   9.269  21.191  0.00  0.00    +0.000 A 
BRANCH  12  19
ATOM     18  C   UNL     1      -1.106  11.606  20.596  0.00  0.00    +0.000 C 
ATOM     19  O   UNL     1       0.264  11.698  20.741  0.00  0.00    +0.000 OA
ENDBRANCH  12  19
BRANCH  14  20
ATOM     20  O   UNL     1       1.988   9.514  17.028  0.00  0.00    +0.000 OA
ATOM     21  H   UNL     1       1.477   8.867  16.493  0.00  0.00    +0.000 HD
ENDBRANCH  14  20
BRANCH  17  22
ATOM     22  O   UNL     1       0.609   8.922  22.528  0.00  0.00    +0.000 OA
ATOM     23  C   UNL     1      -0.133   9.587  23.617  0.00  0.00    +0.000 C 
ENDBRANCH  17  22
ENDBRANCH   1  15
BRANCH   6  24
ATOM     24  O   UNL     1       7.658   5.727  15.312  0.00  0.00    +0.000 OA
ATOM     25  H   UNL     1       7.403   6.330  14.578  0.00  0.00    +0.000 HD
ENDBRANCH   6  24
TORSDOF 5
ENDMDL
MODEL 4
REMARK VINA RESULT:      -6.9      3.659      7.650
REMARK  Name = 
REMARK  7 active torsions:
REMARK  status: ('A' for Active; 'I' for Inactive)
REMARK    1  A    between atoms: C_1  and  O_2
REMARK    2  A    between atoms: O_2  and  C_3
REMARK    3  A    between atoms: C_5  and  O_6
REMARK    4  A    between atoms: C_7  and  C_8
REMARK    5  A    between atoms: C_13  and  O_14
REMARK    6  A    between atoms: C_21  and  O_22
REMARK    7  A    between atoms: O_22  and  C_23
REMARK                            x       y       z     vdW  Elec       q    Type
REMARK                         _______ _______ _______ _____ _____    ______ ____
ROOT
ATOM      1  C   UNL     1       5.486   4.697  17.251  0.00  0.00    +0.000 A 
ATOM      2  C   UNL     1       4.825   4.273  16.198  0.00  0.00    +0.000 A 
ATOM      3  O   UNL     1       4.748   5.075  15.134  0.00  0.00    +0.000 OA
ATOM      4  C   UNL     1       5.832   4.721  14.391  0.00  0.00    +0.000 A 
ATOM      5  C   UNL     1       5.186   3.816  13.421  0.00  0.00    +0.000 A 
ATOM      6  C   UNL     1       5.752   3.302  12.347  0.00  0.00    +0.000 A 
ATOM      7  C   UNL     1       7.011   3.764  12.280  0.00  0.00    +0.000 A 
ATOM      8  C   UNL     1       7.589   4.687  13.464  0.00  0.00    +0.000 A 
ATOM      9  C   UNL     1       7.100   5.197  14.761  0.00  0.00    +0.000 A 
ATOM     10  C   UNL     1       6.457   5.808  16.370  0.00  0.00    +0.000 A 
ATOM     11  O   UNL     1       6.649   6.976  16.806  0.00  0.00    +0.000 OA
ENDROOT
BRANCH   1  15
ATOM     12  C   UNL     1       3.354   2.841  20.823  0.00  0.00    +0.000 A 
ATOM     13  C   UNL     1       2.836   4.027  20.232  0.00  0.00    +0.000 A 
ATOM     14  C   UNL     1       3.413   4.682  19.096  0.00  0.00    +0.000 A 
ATOM     15  C   UNL     1       4.607   4.211  18.507  0.00  0.00    +0.000 A 
ATOM     16  C   UNL     1       5.062   2.941  19.173  0.00  0.00    +0.000 A 
ATOM     17  C   UNL     1       4.529   2.244  20.316  0.00  0.00    +0.000 A 
BRANCH  12  19
ATOM     18  C   UNL     1       1.235   2.797  21.485  0.00  0.00    +0.000 C 
ATOM     19  O   UNL     1       2.516   2.458  21.870  0.00  0.00    +0.000 OA
ENDBRANCH  12  19
BRANCH  14  20
ATOM     20  O   UNL     1       2.711   5.764  18.620  0.00  0.00    +0.000 OA
ATOM     21  H   UNL     1       3.154   6.121  17.820  0.00  0.00    +0.000 HD
ENDBRANCH  14  20
BRANCH  17  22
ATOM     22  O   UNL     1       5.296   1.108  20.658  0.00  0.00    +0.000 OA
ATOM     23  C   UNL     1       5.818   0.573  21.930  0.00  0.00    +0.000 C 
ENDBRANCH  17  22
ENDBRANCH   1  15
BRANCH   6  24
ATOM     24  O   UNL     1       5.049   2.512  11.507  0.00  0.00    +0.000 OA
ATOM     25  H   UNL     1       4.207   2.967  11.282  0.00  0.00    +0.000 HD
ENDBRANCH   6  24
TORSDOF 5
ENDMDL
MODEL 5
REMARK VINA RESULT:      -6.8      1.869      3.233
REMARK  Name = 
REMARK  7 active torsions:
REMARK  status: ('A' for Active; 'I' for Inactive)
REMARK    1  A    between atoms: C_1  and  O_2
REMARK    2  A    between atoms: O_2  and  C_3
REMARK    3  A    between atoms: C_5  and  O_6
REMARK    4  A    between atoms: C_7  and  C_8
REMARK    5  A    between atoms: C_13  and  O_14
REMARK    6  A    between atoms: C_21  and  O_22
REMARK    7  A    between atoms: O_22  and  C_23
REMARK                            x       y       z     vdW  Elec       q    Type
REMARK                         _______ _______ _______ _____ _____    ______ ____
ROOT
ATOM      1  C   UNL     1       1.760   7.798  20.099  0.00  0.00    +0.000 A 
ATOM      2  C   UNL     1       1.804   8.608  19.065  0.00  0.00    +0.000 A 
ATOM      3  O   UNL     1       0.763   9.413  18.847  0.00  0.00    +0.000 OA
ATOM      4  C   UNL     1       1.085  10.542  19.535  0.00  0.00    +0.000 A 
ATOM      5  C   UNL     1       1.612  11.366  18.431  0.00  0.00    +0.000 A 
ATOM      6  C   UNL     1       1.927  12.645  18.502  0.00  0.00    +0.000 A 
ATOM      7  C   UNL     1       1.663  13.068  19.749  0.00  0.00    +0.000 A 
ATOM      8  C   UNL     1       1.160  12.020  20.860  0.00  0.00    +0.000 A 
ATOM      9  C   UNL     1       0.916  10.565  20.929  0.00  0.00    +0.000 A 
ATOM     10  C   UNL     1       0.630   8.750  20.975  0.00  0.00    +0.000 A 
ATOM     11  O   UNL     1      -0.351   8.208  21.554  0.00  0.00    +0.000 OA
ENDROOT
BRANCH   1  15
ATOM     12  C   UNL     1       3.781   4.222  18.129  0.00  0.00    +0.000 A 
ATOM     13  C   UNL     1       2.977   4.027  19.287  0.00  0.00    +0.000 A 
ATOM     14  C   UNL     1       2.280   5.075  19.973  0.00  0.00    +0.000 A 
ATOM     15  C   UNL     1       2.399   6.422  19.566  0.00  0.00    +0.000 A 
ATOM     16  C   UNL     1       3.238   6.528  18.322  0.00  0.00    +0.000 A 
ATOM     17  C   UNL     1       3.964   5.516  17.596  0.00  0.00    +0.000 A 
BRANCH  12  19
ATOM     18  C   UNL     1       3.281   2.061  18.014  0.00  0.00    +0.000 C 
ATOM     19  O   UNL     1       4.259   2.983  17.702  0.00  0.00    +0.000 OA
ENDBRANCH  12  19
BRANCH  14  20
ATOM     20  O   UNL     1       1.482   4.669  21.016  0.00  0.00    +0.000 OA
ATOM     21  H   UNL     1       1.149   5.452  21.504  0.00  0.00    +0.000 HD
ENDBRANCH  14  20
BRANCH  17  22
ATOM     22  O   UNL     1       4.681   6.050  16.503  0.00  0.00    +0.000 OA
ATOM     23  C   UNL     1       5.518   5.457  15.442  0.00  0.00    +0.000 C 
ENDBRANCH  17  22
ENDBRANCH   1  15
BRANCH   6  24
ATOM     24  O   UNL     1       2.367  13.309  17.412  0.00  0.00    +0.000 OA
ATOM     25  H   UNL     1       3.107  12.799  17.013  0.00  0.00    +0.000 HD
ENDBRANCH   6  24
TORSDOF 5
ENDMDL
MODEL 6
REMARK VINA RESULT:      -6.8      4.016      5.518
REMARK  Name = 
REMARK  7 active torsions:
REMARK  status: ('A' for Active; 'I' for Inactive)
REMARK    1  A    between atoms: C_1  and  O_2
REMARK    2  A    between atoms: O_2  and  C_3
REMARK    3  A    between atoms: C_5  and  O_6
REMARK    4  A    between atoms: C_7  and  C_8
REMARK    5  A    between atoms: C_13  and  O_14
REMARK    6  A    between atoms: C_21  and  O_22
REMARK    7  A    between atoms: O_22  and  C_23
REMARK                            x       y       z     vdW  Elec       q    Type
REMARK                         _______ _______ _______ _____ _____    ______ ____
ROOT
ATOM      1  C   UNL     1       5.183   4.843  17.350  0.00  0.00    +0.000 A 
ATOM      2  C   UNL     1       4.397   3.796  17.238  0.00  0.00    +0.000 A 
ATOM      3  O   UNL     1       4.275   2.982  18.287  0.00  0.00    +0.000 OA
ATOM      4  C   UNL     1       3.215   3.498  18.967  0.00  0.00    +0.000 A 
ATOM      5  C   UNL     1       2.147   2.601  18.486  0.00  0.00    +0.000 A 
ATOM      6  C   UNL     1       0.915   2.546  18.953  0.00  0.00    +0.000 A 
ATOM      7  C   UNL     1       0.811   3.432  19.956  0.00  0.00    +0.000 A 
ATOM      8  C   UNL     1       2.052   4.391  20.309  0.00  0.00    +0.000 A 
ATOM      9  C   UNL     1       3.405   4.636  19.768  0.00  0.00    +0.000 A 
ATOM     10  C   UNL     1       5.079   4.915  19.063  0.00  0.00    +0.000 A 
ATOM     11  O   UNL     1       6.114   5.095  19.761  0.00  0.00    +0.000 OA
ENDROOT
BRANCH   1  15
ATOM     12  C   UNL     1       6.943   4.687  13.150  0.00  0.00    +0.000 A 
ATOM     13  C   UNL     1       7.555   5.505  14.141  0.00  0.00    +0.000 A 
ATOM     14  C   UNL     1       7.100   5.613  15.495  0.00  0.00    +0.000 A 
ATOM     15  C   UNL     1       5.939   4.938  15.933  0.00  0.00    +0.000 A 
ATOM     16  C   UNL     1       5.378   4.077  14.833  0.00  0.00    +0.000 A 
ATOM     17  C   UNL     1       5.789   3.934  13.459  0.00  0.00    +0.000 A 
BRANCH  12  19
ATOM     18  C   UNL     1       8.195   6.065  11.941  0.00  0.00    +0.000 C 
ATOM     19  O   UNL     1       7.678   4.786  11.969  0.00  0.00    +0.000 OA
ENDBRANCH  12  19
BRANCH  14  20
ATOM     20  O   UNL     1       7.881   6.384  16.321  0.00  0.00    +0.000 OA
ATOM     21  H   UNL     1       8.410   7.015  15.786  0.00  0.00    +0.000 HD
ENDBRANCH  14  20
BRANCH  17  22
ATOM     22  O   UNL     1       4.950   3.057  12.737  0.00  0.00    +0.000 OA
ATOM     23  C   UNL     1       4.269   3.138  11.431  0.00  0.00    +0.000 C 
ENDBRANCH  17  22
ENDBRANCH   1  15
BRANCH   6  24
ATOM     24  O   UNL     1       0.029   1.655  18.457  0.00  0.00    +0.000 OA
ATOM     25  H   UNL     1       0.165   0.794  18.911  0.00  0.00    +0.000 HD
ENDBRANCH   6  24
TORSDOF 5
ENDMDL
MODEL 7
REMARK VINA RESULT:      -6.7      2.392      7.601
REMARK  Name = 
REMARK  7 active torsions:
REMARK  status: ('A' for Active; 'I' for Inactive)
REMARK    1  A    between atoms: C_1  and  O_2
REMARK    2  A    between atoms: O_2  and  C_3
REMARK    3  A    between atoms: C_5  and  O_6
REMARK    4  A    between atoms: C_7  and  C_8
REMARK    5  A    between atoms: C_13  and  O_14
REMARK    6  A    between atoms: C_21  and  O_22
REMARK    7  A    between atoms: O_22  and  C_23
REMARK                            x       y       z     vdW  Elec       q    Type
REMARK                         _______ _______ _______ _____ _____    ______ ____
ROOT
ATOM      1  C   UNL     1       2.880   7.204  18.677  0.00  0.00    +0.000 A 
ATOM      2  C   UNL     1       2.011   6.242  18.461  0.00  0.00    +0.000 A 
ATOM      3  O   UNL     1       2.235   5.404  17.447  0.00  0.00    +0.000 OA
ATOM      4  C   UNL     1       2.954   4.400  18.019  0.00  0.00    +0.000 A 
ATOM      5  C   UNL     1       1.876   3.417  18.243  0.00  0.00    +0.000 A 
ATOM      6  C   UNL     1       2.038   2.168  18.636  0.00  0.00    +0.000 A 
ATOM      7  C   UNL     1       3.355   1.943  18.773  0.00  0.00    +0.000 A 
ATOM      8  C   UNL     1       4.399   3.148  18.562  0.00  0.00    +0.000 A 
ATOM      9  C   UNL     1       4.322   4.594  18.269  0.00  0.00    +0.000 A 
ATOM     10  C   UNL     1       4.184   6.391  17.909  0.00  0.00    +0.000 A 
ATOM     11  O   UNL     1       4.943   7.009  17.113  0.00  0.00    +0.000 OA
ENDROOT
BRANCH   1  15
ATOM     12  C   UNL     1       0.167  10.519  20.227  0.00  0.00    +0.000 A 
ATOM     13  C   UNL     1       0.812  10.668  18.967  0.00  0.00    +0.000 A 
ATOM     14  C   UNL     1       1.667   9.682  18.376  0.00  0.00    +0.000 A 
ATOM     15  C   UNL     1       1.984   8.485  19.055  0.00  0.00    +0.000 A 
ATOM     16  C   UNL     1       1.236   8.400  20.357  0.00  0.00    +0.000 A 
ATOM     17  C   UNL     1       0.372   9.357  21.002  0.00  0.00    +0.000 A 
BRANCH  12  19
ATOM     18  C   UNL     1       0.119  12.478  21.273  0.00  0.00    +0.000 C 
ATOM     19  O   UNL     1      -0.624  11.644  20.462  0.00  0.00    +0.000 OA
ENDBRANCH  12  19
BRANCH  14  20
ATOM     20  O   UNL     1       2.120   9.976  17.112  0.00  0.00    +0.000 OA
ATOM     21  H   UNL     1       2.541  10.863  17.107  0.00  0.00    +0.000 HD
ENDBRANCH  14  20
BRANCH  17  22
ATOM     22  O   UNL     1      -0.087   8.904  22.258  0.00  0.00    +0.000 OA
ATOM     23  C   UNL     1      -0.192   9.526  23.593  0.00  0.00    +0.000 C 
ENDBRANCH  17  22
ENDBRANCH   1  15
BRANCH   6  24
ATOM     24  O   UNL     1       0.976   1.345  18.772  0.00  0.00    +0.000 OA
ATOM     25  H   UNL     1       0.558   1.225  17.890  0.00  0.00    +0.000 HD
ENDBRANCH   6  24
TORSDOF 5
ENDMDL
MODEL 8
REMARK VINA RESULT:      -6.6      2.594      3.593
REMARK  Name = 
REMARK  7 active torsions:
REMARK  status: ('A' for Active; 'I' for Inactive)
REMARK    1  A    between atoms: C_1  and  O_2
REMARK    2  A    between atoms: O_2  and  C_3
REMARK    3  A    between atoms: C_5  and  O_6
REMARK    4  A    between atoms: C_7  and  C_8
REMARK    5  A    between atoms: C_13  and  O_14
REMARK    6  A    between atoms: C_21  and  O_22
REMARK    7  A    between atoms: O_22  and  C_23
REMARK                            x       y       z     vdW  Elec       q    Type
REMARK                         _______ _______ _______ _____ _____    ______ ____
ROOT
ATOM      1  C   UNL     1       1.865   7.175  18.606  0.00  0.00    +0.000 A 
ATOM      2  C   UNL     1       1.938   7.345  19.906  0.00  0.00    +0.000 A 
ATOM      3  O   UNL     1       2.324   8.537  20.368  0.00  0.00    +0.000 OA
ATOM      4  C   UNL     1       1.153   9.215  20.510  0.00  0.00    +0.000 A 
ATOM      5  C   UNL     1       0.929   9.027  21.956  0.00  0.00    +0.000 A 
ATOM      6  C   UNL     1       0.001   9.623  22.680  0.00  0.00    +0.000 A 
ATOM      7  C   UNL     1      -0.688  10.447  21.874  0.00  0.00    +0.000 A 
ATOM      8  C   UNL     1      -0.365  10.480  20.299  0.00  0.00    +0.000 A 
ATOM      9  C   UNL     1       0.537   9.763  19.374  0.00  0.00    +0.000 A 
ATOM     10  C   UNL     1       1.669   8.845  18.255  0.00  0.00    +0.000 A 
ATOM     11  O   UNL     1       2.319   9.383  17.317  0.00  0.00    +0.000 OA
ENDROOT
BRANCH   1  15
ATOM     12  C   UNL     1       4.017   3.190  18.109  0.00  0.00    +0.000 A 
ATOM     13  C   UNL     1       2.680   3.332  17.641  0.00  0.00    +0.000 A 
ATOM     14  C   UNL     1       1.919   4.543  17.726  0.00  0.00    +0.000 A 
ATOM     15  C   UNL     1       2.441   5.694  18.356  0.00  0.00    +0.000 A 
ATOM     16  C   UNL     1       3.863   5.463  18.790  0.00  0.00    +0.000 A 
ATOM     17  C   UNL     1       4.673   4.272  18.735  0.00  0.00    +0.000 A 
BRANCH  12  19
ATOM     18  C   UNL     1       3.759   1.052  18.650  0.00  0.00    +0.000 C 
ATOM     19  O   UNL     1       4.460   1.900  17.817  0.00  0.00    +0.000 OA
ENDBRANCH  12  19
BRANCH  14  20
ATOM     20  O   UNL     1       0.679   4.503  17.134  0.00  0.00    +0.000 OA
ATOM     21  H   UNL     1       0.749   4.784  16.196  0.00  0.00    +0.000 HD
ENDBRANCH  14  20
BRANCH  17  22
ATOM     22  O   UNL     1       5.950   4.465  19.307  0.00  0.00    +0.000 OA
ATOM     23  C   UNL     1       6.947   5.552  19.238  0.00  0.00    +0.000 C 
ENDBRANCH  17  22
ENDBRANCH   1  15
BRANCH   6  24
ATOM     24  O   UNL     1      -0.087   9.400  24.009  0.00  0.00    +0.000 OA
ATOM     25  H   UNL     1       0.762   9.011  24.317  0.00  0.00    +0.000 HD
ENDBRANCH   6  24
TORSDOF 5
ENDMDL
MODEL 9
REMARK VINA RESULT:      -6.6      2.617      4.568
REMARK  Name = 
REMARK  7 active torsions:
REMARK  status: ('A' for Active; 'I' for Inactive)
REMARK    1  A    between atoms: C_1  and  O_2
REMARK    2  A    between atoms: O_2  and  C_3
REMARK    3  A    between atoms: C_5  and  O_6
REMARK    4  A    between atoms: C_7  and  C_8
REMARK    5  A    between atoms: C_13  and  O_14
REMARK    6  A    between atoms: C_21  and  O_22
REMARK    7  A    between atoms: O_22  and  C_23
REMARK                            x       y       z     vdW  Elec       q    Type
REMARK                         _______ _______ _______ _____ _____    ______ ____
ROOT
ATOM      1  C   UNL     1       1.849   7.442  18.605  0.00  0.00    +0.000 A 
ATOM      2  C   UNL     1       1.872   7.633  19.905  0.00  0.00    +0.000 A 
ATOM      3  O   UNL     1       2.215   8.839  20.362  0.00  0.00    +0.000 OA
ATOM      4  C   UNL     1       1.026   9.494  20.453  0.00  0.00    +0.000 A 
ATOM      5  C   UNL     1       0.754   9.321  21.892  0.00  0.00    +0.000 A 
ATOM      6  C   UNL     1      -0.211   9.908  22.573  0.00  0.00    +0.000 A 
ATOM      7  C   UNL     1      -0.888  10.705  21.731  0.00  0.00    +0.000 A 
ATOM      8  C   UNL     1      -0.510  10.722  20.168  0.00  0.00    +0.000 A 
ATOM      9  C   UNL     1       0.440  10.012  19.286  0.00  0.00    +0.000 A 
ATOM     10  C   UNL     1       1.631   9.102  18.223  0.00  0.00    +0.000 A 
ATOM     11  O   UNL     1       2.302   9.641  17.301  0.00  0.00    +0.000 OA
ENDROOT
BRANCH   1  15
ATOM     12  C   UNL     1       3.232   3.103  18.472  0.00  0.00    +0.000 A 
ATOM     13  C   UNL     1       3.863   4.070  17.640  0.00  0.00    +0.000 A 
ATOM     14  C   UNL     1       3.524   5.461  17.617  0.00  0.00    +0.000 A 
ATOM     15  C   UNL     1       2.464   5.970  18.399  0.00  0.00    +0.000 A 
ATOM     16  C   UNL     1       1.878   4.889  19.266  0.00  0.00    +0.000 A 
ATOM     17  C   UNL     1       2.174   3.479  19.328  0.00  0.00    +0.000 A 
BRANCH  12  19
ATOM     18  C   UNL     1       4.480   1.553  19.457  0.00  0.00    +0.000 C 
ATOM     19  O   UNL     1       3.847   1.867  18.272  0.00  0.00    +0.000 OA
ENDBRANCH  12  19
BRANCH  14  20
ATOM     20  O   UNL     1       4.313   6.248  16.812  0.00  0.00    +0.000 OA
ATOM     21  H   UNL     1       5.099   6.554  17.313  0.00  0.00    +0.000 HD
ENDBRANCH  14  20
BRANCH  17  22
ATOM     22  O   UNL     1       1.346   2.797  20.247  0.00  0.00    +0.000 OA
ATOM     23  C   UNL     1       1.435   2.524  21.694  0.00  0.00    +0.000 C 
ENDBRANCH  17  22
ENDBRANCH   1  15
BRANCH   6  24
ATOM     24  O   UNL     1      -0.342   9.702  23.901  0.00  0.00    +0.000 OA
ATOM     25  H   UNL     1      -1.021   9.006  24.044  0.00  0.00    +0.000 HD
ENDBRANCH   6  24
TORSDOF 5
ENDMDL
