MODEL 1
REMARK VINA RESULT:      -6.9      0.000      0.000
REMARK  Name = 
REMARK  6 active torsions:
REMARK  status: ('A' for Active; 'I' for Inactive)
REMARK    1  A    between atoms: C_1  and  C_2
REMARK    2  A    between atoms: C_2  and  C_4
REMARK    3  A    between atoms: C_4  and  C_15
REMARK    4  A    between atoms: C_5  and  C_6
REMARK    5  A    between atoms: C_7  and  C_8
REMARK    6  A    between atoms: C_15  and  C_16
REMARK                            x       y       z     vdW  Elec       q    Type
REMARK                         _______ _______ _______ _____ _____    ______ ____
ROOT
ATOM      1  C   UNL     1       3.711   6.649  17.811  0.00  0.00    +0.000 C 
ATOM      2  C   UNL     1       3.035   7.801  17.681  0.00  0.00    +0.000 C 
ENDROOT
BRANCH   2   3
ATOM      3  C   UNL     1       2.143   8.192  18.779  0.00  0.00    +0.000 A 
ATOM      4  C   UNL     1       1.431   9.397  18.708  0.00  0.00    +0.000 A 
ATOM      5  C   UNL     1       0.675   9.835  19.800  0.00  0.00    +0.000 A 
ATOM      6  C   UNL     1       0.632   9.068  20.962  0.00  0.00    +0.000 A 
ATOM      7 BR   UNL     1      -0.381   9.666  22.443  0.00  0.00    +0.000 Br
ATOM      8  C   UNL     1       1.337   7.870  21.046  0.00  0.00    +0.000 A 
ATOM      9  C   UNL     1       2.095   7.432  19.955  0.00  0.00    +0.000 A 
ENDBRANCH   2   3
BRANCH   1  11
ATOM     10  C   UNL     1       5.849   5.489  17.051  0.00  0.00    +0.000 C 
ATOM     11  C   UNL     1       4.652   6.104  16.859  0.00  0.00    +0.000 C 
BRANCH  10  13
ATOM     12  C   UNL     1       7.722   6.014  18.831  0.00  0.00    +0.000 C 
ATOM     13  C   UNL     1       6.531   5.209  18.359  0.00  0.00    +0.000 C 
ATOM     14  O   UNL     1       6.160   4.278  19.075  0.00  0.00    +0.000 OA
ENDBRANCH  10  13
BRANCH  10  15
ATOM     15  C   UNL     1       6.538   5.118  15.748  0.00  0.00    +0.000 C 
ATOM     16  C   UNL     1       6.064   3.960  14.900  0.00  0.00    +0.000 C 
ATOM     17  O   UNL     1       7.499   5.783  15.339  0.00  0.00    +0.000 OA
ENDBRANCH  10  15
ENDBRANCH   1  11
TORSDOF 4
ENDMDL
MODEL 2
REMARK VINA RESULT:      -6.8      1.233      1.575
REMARK  Name = 
REMARK  6 active torsions:
REMARK  status: ('A' for Active; 'I' for Inactive)
REMARK    1  A    between atoms: C_1  and  C_2
REMARK    2  A    between atoms: C_2  and  C_4
REMARK    3  A    between atoms: C_4  and  C_15
REMARK    4  A    between atoms: C_5  and  C_6
REMARK    5  A    between atoms: C_7  and  C_8
REMARK    6  A    between atoms: C_15  and  C_16
REMARK                            x       y       z     vdW  Elec       q    Type
REMARK                         _______ _______ _______ _____ _____    ______ ____
ROOT
ATOM      1  C   UNL     1       4.238   7.036  17.509  0.00  0.00    +0.000 C 
ATOM      2  C   UNL     1       2.975   6.714  17.826  0.00  0.00    +0.000 C 
ENDROOT
BRANCH   2   3
ATOM      3  C   UNL     1       2.179   7.717  18.545  0.00  0.00    +0.000 A 
ATOM      4  C   UNL     1       1.742   8.872  17.881  0.00  0.00    +0.000 A 
ATOM      5  C   UNL     1       1.090   9.887  18.588  0.00  0.00    +0.000 A 
ATOM      6  C   UNL     1       0.874   9.747  19.957  0.00  0.00    +0.000 A 
ATOM      7 BR   UNL     1       0.002  11.125  20.914  0.00  0.00    +0.000 Br
ATOM      8  C   UNL     1       1.306   8.606  20.629  0.00  0.00    +0.000 A 
ATOM      9  C   UNL     1       1.960   7.590  19.923  0.00  0.00    +0.000 A 
ENDBRANCH   2   3
BRANCH   1  11
ATOM     10  C   UNL     1       5.592   4.932  17.026  0.00  0.00    +0.000 C 
ATOM     11  C   UNL     1       5.172   6.202  16.787  0.00  0.00    +0.000 C 
BRANCH  10  13
ATOM     12  C   UNL     1       3.981   3.110  18.044  0.00  0.00    +0.000 C 
ATOM     13  C   UNL     1       5.177   4.030  18.153  0.00  0.00    +0.000 C 
ATOM     14  O   UNL     1       5.783   4.045  19.225  0.00  0.00    +0.000 OA
ENDBRANCH  10  13
BRANCH  10  15
ATOM     15  C   UNL     1       6.636   4.458  16.027  0.00  0.00    +0.000 C 
ATOM     16  C   UNL     1       6.253   3.964  14.651  0.00  0.00    +0.000 C 
ATOM     17  O   UNL     1       7.840   4.493  16.320  0.00  0.00    +0.000 OA
ENDBRANCH  10  15
ENDBRANCH   1  11
TORSDOF 4
ENDMDL
MODEL 3
REMARK VINA RESULT:      -6.7      4.668      6.186
REMARK  Name = 
REMARK  6 active torsions:
REMARK  status: ('A' for Active; 'I' for Inactive)
REMARK    1  A    between atoms: C_1  and  C_2
REMARK    2  A    between atoms: C_2  and  C_4
REMARK    3  A    between atoms: C_4  and  C_15
REMARK    4  A    between atoms: C_5  and  C_6
REMARK    5  A    between atoms: C_7  and  C_8
REMARK    6  A    between atoms: C_15  and  C_16
REMARK                            x       y       z     vdW  Elec       q    Type
REMARK                         _______ _______ _______ _____ _____    ______ ____
ROOT
ATOM      1  C   UNL     1       8.043   8.360  18.002  0.00  0.00    +0.000 C 
ATOM      2  C   UNL     1       8.557   9.494  17.501  0.00  0.00    +0.000 C 
ENDROOT
BRANCH   2   3
ATOM      3  C   UNL     1       8.938  10.545  18.453  0.00  0.00    +0.000 A 
ATOM      4  C   UNL     1       9.250  10.211  19.778  0.00  0.00    +0.000 A 
ATOM      5  C   UNL     1       9.494  11.215  20.720  0.00  0.00    +0.000 A 
ATOM      6  C   UNL     1       9.426  12.553  20.336  0.00  0.00    +0.000 A 
ATOM      7 BR   UNL     1       9.746  13.911  21.613  0.00  0.00    +0.000 Br
ATOM      8  C   UNL     1       9.114  12.898  19.024  0.00  0.00    +0.000 A 
ATOM      9  C   UNL     1       8.868  11.894  18.081  0.00  0.00    +0.000 A 
ENDBRANCH   2   3
BRANCH   1  11
ATOM     10  C   UNL     1       7.046   6.043  17.637  0.00  0.00    +0.000 C 
ATOM     11  C   UNL     1       7.632   7.204  17.239  0.00  0.00    +0.000 C 
BRANCH  10  13
ATOM     12  C   UNL     1       5.230   5.355  19.420  0.00  0.00    +0.000 C 
ATOM     13  C   UNL     1       6.663   5.647  19.034  0.00  0.00    +0.000 C 
ATOM     14  O   UNL     1       7.512   5.588  19.925  0.00  0.00    +0.000 OA
ENDBRANCH  10  13
BRANCH  10  15
ATOM     15  C   UNL     1       6.834   5.066  16.493  0.00  0.00    +0.000 C 
ATOM     16  C   UNL     1       5.544   5.034  15.705  0.00  0.00    +0.000 C 
ATOM     17  O   UNL     1       7.737   4.284  16.164  0.00  0.00    +0.000 OA
ENDBRANCH  10  15
ENDBRANCH   1  11
TORSDOF 4
ENDMDL
MODEL 4
REMARK VINA RESULT:      -6.4      1.422      1.855
REMARK  Name = 
REMARK  6 active torsions:
REMARK  status: ('A' for Active; 'I' for Inactive)
REMARK    1  A    between atoms: C_1  and  C_2
REMARK    2  A    between atoms: C_2  and  C_4
REMARK    3  A    between atoms: C_4  and  C_15
REMARK    4  A    between atoms: C_5  and  C_6
REMARK    5  A    between atoms: C_7  and  C_8
REMARK    6  A    between atoms: C_15  and  C_16
REMARK                            x       y       z     vdW  Elec       q    Type
REMARK                         _______ _______ _______ _____ _____    ______ ____
ROOT
ATOM      1  C   UNL     1       4.228   7.148  17.513  0.00  0.00    +0.000 C 
ATOM      2  C   UNL     1       2.916   6.949  17.713  0.00  0.00    +0.000 C 
ENDROOT
BRANCH   2   3
ATOM      3  C   UNL     1       2.207   7.908  18.570  0.00  0.00    +0.000 A 
ATOM      4  C   UNL     1       2.001   7.618  19.925  0.00  0.00    +0.000 A 
ATOM      5  C   UNL     1       1.223   8.468  20.718  0.00  0.00    +0.000 A 
ATOM      6  C   UNL     1       0.651   9.606  20.155  0.00  0.00    +0.000 A 
ATOM      7 BR   UNL     1      -0.410  10.749  21.224  0.00  0.00    +0.000 Br
ATOM      8  C   UNL     1       0.845   9.904  18.808  0.00  0.00    +0.000 A 
ATOM      9  C   UNL     1       1.622   9.053  18.014  0.00  0.00    +0.000 A 
ENDBRANCH   2   3
BRANCH   1  11
ATOM     10  C   UNL     1       5.334   4.998  16.707  0.00  0.00    +0.000 C 
ATOM     11  C   UNL     1       5.094   6.336  16.689  0.00  0.00    +0.000 C 
BRANCH  10  13
ATOM     12  C   UNL     1       5.066   3.939  19.106  0.00  0.00    +0.000 C 
ATOM     13  C   UNL     1       4.735   3.976  17.630  0.00  0.00    +0.000 C 
ATOM     14  O   UNL     1       3.979   3.105  17.198  0.00  0.00    +0.000 OA
ENDBRANCH  10  13
BRANCH  10  15
ATOM     15  C   UNL     1       6.373   4.570  15.683  0.00  0.00    +0.000 C 
ATOM     16  C   UNL     1       5.978   3.993  14.344  0.00  0.00    +0.000 C 
ATOM     17  O   UNL     1       7.580   4.713  15.923  0.00  0.00    +0.000 OA
ENDBRANCH  10  15
ENDBRANCH   1  11
TORSDOF 4
ENDMDL
MODEL 5
REMARK VINA RESULT:      -6.4      3.614      4.097
REMARK  Name = 
REMARK  6 active torsions:
REMARK  status: ('A' for Active; 'I' for Inactive)
REMARK    1  A    between atoms: C_1  and  C_2
REMARK    2  A    between atoms: C_2  and  C_4
REMARK    3  A    between atoms: C_4  and  C_15
REMARK    4  A    between atoms: C_5  and  C_6
REMARK    5  A    between atoms: C_7  and  C_8
REMARK    6  A    between atoms: C_15  and  C_16
REMARK                            x       y       z     vdW  Elec       q    Type
REMARK                         _______ _______ _______ _____ _____    ______ ____
ROOT
ATOM      1  C   UNL     1       4.446   3.722  16.847  0.00  0.00    +0.000 C 
ATOM      2  C   UNL     1       3.405   4.445  17.288  0.00  0.00    +0.000 C 
ENDROOT
BRANCH   2   3
ATOM      3  C   UNL     1       2.736   3.993  18.514  0.00  0.00    +0.000 A 
ATOM      4  C   UNL     1       3.011   4.622  19.736  0.00  0.00    +0.000 A 
ATOM      5  C   UNL     1       2.473   4.121  20.925  0.00  0.00    +0.000 A 
ATOM      6  C   UNL     1       1.659   2.989  20.892  0.00  0.00    +0.000 A 
ATOM      7 BR   UNL     1       0.941   2.305  22.501  0.00  0.00    +0.000 Br
ATOM      8  C   UNL     1       1.381   2.353  19.684  0.00  0.00    +0.000 A 
ATOM      9  C   UNL     1       1.921   2.853  18.495  0.00  0.00    +0.000 A 
ENDBRANCH   2   3
BRANCH   1  11
ATOM     10  C   UNL     1       6.489   4.558  15.573  0.00  0.00    +0.000 C 
ATOM     11  C   UNL     1       5.248   4.012  15.680  0.00  0.00    +0.000 C 
BRANCH  10  13
ATOM     12  C   UNL     1       7.345   6.442  17.207  0.00  0.00    +0.000 C 
ATOM     13  C   UNL     1       7.381   5.021  16.689  0.00  0.00    +0.000 C 
ATOM     14  O   UNL     1       8.206   4.257  17.192  0.00  0.00    +0.000 OA
ENDBRANCH  10  13
BRANCH  10  15
ATOM     15  C   UNL     1       6.934   4.734  14.130  0.00  0.00    +0.000 C 
ATOM     16  C   UNL     1       6.340   3.912  13.010  0.00  0.00    +0.000 C 
ATOM     17  O   UNL     1       7.786   5.585  13.839  0.00  0.00    +0.000 OA
ENDBRANCH  10  15
ENDBRANCH   1  11
TORSDOF 4
ENDMDL
MODEL 6
REMARK VINA RESULT:      -6.4      2.321      3.326
REMARK  Name = 
REMARK  6 active torsions:
REMARK  status: ('A' for Active; 'I' for Inactive)
REMARK    1  A    between atoms: C_1  and  C_2
REMARK    2  A    between atoms: C_2  and  C_4
REMARK    3  A    between atoms: C_4  and  C_15
REMARK    4  A    between atoms: C_5  and  C_6
REMARK    5  A    between atoms: C_7  and  C_8
REMARK    6  A    between atoms: C_15  and  C_16
REMARK                            x       y       z     vdW  Elec       q    Type
REMARK                         _______ _______ _______ _____ _____    ______ ____
ROOT
ATOM      1  C   UNL     1       2.578   5.768  19.793  0.00  0.00    +0.000 C 
ATOM      2  C   UNL     1       2.593   6.610  18.748  0.00  0.00    +0.000 C 
ENDROOT
BRANCH   2   3
ATOM      3  C   UNL     1       2.082   7.969  18.964  0.00  0.00    +0.000 A 
ATOM      4  C   UNL     1       1.487   8.308  20.186  0.00  0.00    +0.000 A 
ATOM      5  C   UNL     1       0.890   9.561  20.356  0.00  0.00    +0.000 A 
ATOM      6  C   UNL     1       0.888  10.474  19.304  0.00  0.00    +0.000 A 
ATOM      7 BR   UNL     1       0.070  12.164  19.531  0.00  0.00    +0.000 Br
ATOM      8  C   UNL     1       1.473  10.148  18.083  0.00  0.00    +0.000 A 
ATOM      9  C   UNL     1       2.070   8.894  17.911  0.00  0.00    +0.000 A 
ENDBRANCH   2   3
BRANCH   1  11
ATOM     10  C   UNL     1       4.265   3.890  19.442  0.00  0.00    +0.000 C 
ATOM     11  C   UNL     1       3.056   4.404  19.793  0.00  0.00    +0.000 C 
BRANCH  10  13
ATOM     12  C   UNL     1       5.710   4.867  17.465  0.00  0.00    +0.000 C 
ATOM     13  C   UNL     1       5.465   4.641  18.941  0.00  0.00    +0.000 C 
ATOM     14  O   UNL     1       6.314   5.065  19.726  0.00  0.00    +0.000 OA
ENDBRANCH  10  13
BRANCH  10  15
ATOM     15  C   UNL     1       4.315   2.375  19.547  0.00  0.00    +0.000 C 
ATOM     16  C   UNL     1       3.563   1.486  18.583  0.00  0.00    +0.000 C 
ATOM     17  O   UNL     1       5.004   1.832  20.422  0.00  0.00    +0.000 OA
ENDBRANCH  10  15
ENDBRANCH   1  11
TORSDOF 4
ENDMDL
MODEL 7
REMARK VINA RESULT:      -6.4      1.430      1.762
REMARK  Name = 
REMARK  6 active torsions:
REMARK  status: ('A' for Active; 'I' for Inactive)
REMARK    1  A    between atoms: C_1  and  C_2
REMARK    2  A    between atoms: C_2  and  C_4
REMARK    3  A    between atoms: C_4  and  C_15
REMARK    4  A    between atoms: C_5  and  C_6
REMARK    5  A    between atoms: C_7  and  C_8
REMARK    6  A    between atoms: C_15  and  C_16
REMARK                            x       y       z     vdW  Elec       q    Type
REMARK                         _______ _______ _______ _____ _____    ______ ____
ROOT
ATOM      1  C   UNL     1       3.410   6.716  18.157  0.00  0.00    +0.000 C 
ATOM      2  C   UNL     1       2.677   7.813  17.913  0.00  0.00    +0.000 C 
ENDROOT
BRANCH   2   3
ATOM      3  C   UNL     1       1.850   8.335  19.009  0.00  0.00    +0.000 A 
ATOM      4  C   UNL     1       1.160   9.545  18.852  0.00  0.00    +0.000 A 
ATOM      5  C   UNL     1       0.471  10.109  19.929  0.00  0.00    +0.000 A 
ATOM      6  C   UNL     1       0.472   9.463  21.164  0.00  0.00    +0.000 A 
ATOM      7 BR   UNL     1      -0.451  10.231  22.624  0.00  0.00    +0.000 Br
ATOM      8  C   UNL     1       1.156   8.262  21.334  0.00  0.00    +0.000 A 
ATOM      9  C   UNL     1       1.847   7.698  20.256  0.00  0.00    +0.000 A 
ENDBRANCH   2   3
BRANCH   1  11
ATOM     10  C   UNL     1       4.807   4.803  17.218  0.00  0.00    +0.000 C 
ATOM     11  C   UNL     1       4.302   6.065  17.225  0.00  0.00    +0.000 C 
BRANCH  10  13
ATOM     12  C   UNL     1       3.436   2.711  18.054  0.00  0.00    +0.000 C 
ATOM     13  C   UNL     1       4.556   3.715  18.222  0.00  0.00    +0.000 C 
ATOM     14  O   UNL     1       5.240   3.633  19.243  0.00  0.00    +0.000 OA
ENDBRANCH  10  13
BRANCH  10  15
ATOM     15  C   UNL     1       5.762   4.556  16.061  0.00  0.00    +0.000 C 
ATOM     16  C   UNL     1       7.261   4.581  16.250  0.00  0.00    +0.000 C 
ATOM     17  O   UNL     1       5.322   4.300  14.932  0.00  0.00    +0.000 OA
ENDBRANCH  10  15
ENDBRANCH   1  11
TORSDOF 4
ENDMDL
MODEL 8
REMARK VINA RESULT:      -6.3      1.057      1.588
REMARK  Name = 
REMARK  6 active torsions:
REMARK  status: ('A' for Active; 'I' for Inactive)
REMARK    1  A    between atoms: C_1  and  C_2
REMARK    2  A    between atoms: C_2  and  C_4
REMARK    3  A    between atoms: C_4  and  C_15
REMARK    4  A    between atoms: C_5  and  C_6
REMARK    5  A    between atoms: C_7  and  C_8
REMARK    6  A    between atoms: C_15  and  C_16
REMARK                            x       y       z     vdW  Elec       q    Type
REMARK                         _______ _______ _______ _____ _____    ______ ____
ROOT
ATOM      1  C   UNL     1       3.935   6.977  17.403  0.00  0.00    +0.000 C 
ATOM      2  C   UNL     1       2.872   6.693  18.170  0.00  0.00    +0.000 C 
ENDROOT
BRANCH   2   3
ATOM      3  C   UNL     1       2.226   7.807  18.875  0.00  0.00    +0.000 A 
ATOM      4  C   UNL     1       1.876   7.673  20.226  0.00  0.00    +0.000 A 
ATOM      5  C   UNL     1       1.152   8.681  20.870  0.00  0.00    +0.000 A 
ATOM      6  C   UNL     1       0.778   9.822  20.164  0.00  0.00    +0.000 A 
ATOM      7 BR   UNL     1      -0.210  11.180  21.032  0.00  0.00    +0.000 Br
ATOM      8  C   UNL     1       1.116   9.966  18.820  0.00  0.00    +0.000 A 
ATOM      9  C   UNL     1       1.839   8.957  18.174  0.00  0.00    +0.000 A 
ENDBRANCH   2   3
BRANCH   1  11
ATOM     10  C   UNL     1       5.744   5.240  16.950  0.00  0.00    +0.000 C 
ATOM     11  C   UNL     1       4.691   6.032  16.614  0.00  0.00    +0.000 C 
BRANCH  10  13
ATOM     12  C   UNL     1       7.624   5.990  18.640  0.00  0.00    +0.000 C 
ATOM     13  C   UNL     1       6.421   5.143  18.287  0.00  0.00    +0.000 C 
ATOM     14  O   UNL     1       6.035   4.331  19.129  0.00  0.00    +0.000 OA
ENDBRANCH  10  13
BRANCH  10  15
ATOM     15  C   UNL     1       6.272   4.429  15.777  0.00  0.00    +0.000 C 
ATOM     16  C   UNL     1       7.220   5.025  14.763  0.00  0.00    +0.000 C 
ATOM     17  O   UNL     1       5.949   3.241  15.645  0.00  0.00    +0.000 OA
ENDBRANCH  10  15
ENDBRANCH   1  11
TORSDOF 4
ENDMDL
MODEL 9
REMARK VINA RESULT:      -6.3      1.171      1.809
REMARK  Name = 
REMARK  6 active torsions:
REMARK  status: ('A' for Active; 'I' for Inactive)
REMARK    1  A    between atoms: C_1  and  C_2
REMARK    2  A    between atoms: C_2  and  C_4
REMARK    3  A    between atoms: C_4  and  C_15
REMARK    4  A    between atoms: C_5  and  C_6
REMARK    5  A    between atoms: C_7  and  C_8
REMARK    6  A    between atoms: C_15  and  C_16
REMARK                            x       y       z     vdW  Elec       q    Type
REMARK                         _______ _______ _______ _____ _____    ______ ____
ROOT
ATOM      1  C   UNL     1       3.586   6.350  17.874  0.00  0.00    +0.000 C 
ATOM      2  C   UNL     1       3.050   7.545  17.585  0.00  0.00    +0.000 C 
ENDROOT
BRANCH   2   3
ATOM      3  C   UNL     1       2.288   8.221  18.642  0.00  0.00    +0.000 A 
ATOM      4  C   UNL     1       2.140   7.613  19.897  0.00  0.00    +0.000 A 
ATOM      5  C   UNL     1       1.316   8.191  20.868  0.00  0.00    +0.000 A 
ATOM      6  C   UNL     1       0.641   9.377  20.584  0.00  0.00    +0.000 A 
ATOM      7 BR   UNL     1      -0.482  10.152  21.893  0.00  0.00    +0.000 Br
ATOM      8  C   UNL     1       0.777   9.989  19.340  0.00  0.00    +0.000 A 
ATOM      9  C   UNL     1       1.600   9.410  18.368  0.00  0.00    +0.000 A 
ENDBRANCH   2   3
BRANCH   1  11
ATOM     10  C   UNL     1       5.724   5.550  16.740  0.00  0.00    +0.000 C 
ATOM     11  C   UNL     1       4.386   5.540  16.984  0.00  0.00    +0.000 C 
BRANCH  10  13
ATOM     12  C   UNL     1       7.541   6.037  18.587  0.00  0.00    +0.000 C 
ATOM     13  C   UNL     1       6.757   6.446  17.360  0.00  0.00    +0.000 C 
ATOM     14  O   UNL     1       6.968   7.570  16.903  0.00  0.00    +0.000 OA
ENDBRANCH  10  13
BRANCH  10  15
ATOM     15  C   UNL     1       6.137   4.549  15.673  0.00  0.00    +0.000 C 
ATOM     16  C   UNL     1       7.012   4.947  14.507  0.00  0.00    +0.000 C 
ATOM     17  O   UNL     1       5.780   3.366  15.756  0.00  0.00    +0.000 OA
ENDBRANCH  10  15
ENDBRANCH   1  11
TORSDOF 4
ENDMDL
