MODEL 1
REMARK VINA RESULT:      -8.7      0.000      0.000
REMARK  Name = 
REMARK  3 active torsions:
REMARK  status: ('A' for Active; 'I' for Inactive)
REMARK    1  A    between atoms: C_2  and  C_19
REMARK    2  A    between atoms: N_3  and  C_4
REMARK    3  A    between atoms: C_9  and  C_10
REMARK                            x       y       z     vdW  Elec       q    Type
REMARK                         _______ _______ _______ _____ _____    ______ ____
ROOT
ATOM      1  C   UNL     1       1.144   9.244  19.204  0.00  0.00    +0.000 A 
ATOM      2  C   UNL     1       0.196   9.813  18.336  0.00  0.00    +0.000 A 
ATOM      3  C   UNL     1      -0.788  10.704  18.773  0.00  0.00    +0.000 A 
ATOM      4  C   UNL     1      -0.771  10.987  20.125  0.00  0.00    +0.000 A 
ATOM      5  O   UNL     1      -1.596  11.840  20.785  0.00  0.00    +0.000 OA
ATOM      6  C   UNL     1      -1.166  11.781  22.085  0.00  0.00    +0.000 A 
ATOM      7  N   UNL     1      -0.156  10.949  22.290  0.00  0.00    +0.000 NA
ATOM      8  C   UNL     1       0.111  10.439  21.039  0.00  0.00    +0.000 A 
ATOM      9  C   UNL     1       1.084   9.526  20.583  0.00  0.00    +0.000 A 
ENDROOT
BRANCH   6  10
ATOM     10  C   UNL     1      -1.875  12.644  23.025  0.00  0.00    +0.000 A 
ATOM     11  C   UNL     1      -1.323  13.849  23.478  0.00  0.00    +0.000 A 
ATOM     12  C   UNL     1      -2.049  14.624  24.366  0.00  0.00    +0.000 A 
ATOM     13  N   UNL     1      -3.268  14.284  24.831  0.00  0.00    +0.000 NA
ATOM     14  C   UNL     1      -3.784  13.117  24.388  0.00  0.00    +0.000 A 
ATOM     15  C   UNL     1      -3.136  12.276  23.500  0.00  0.00    +0.000 A 
ENDBRANCH   6  10
BRANCH   1  18
ATOM     16  O   UNL     1       1.877   6.623  20.224  0.00  0.00    +0.000 OA
ATOM     17  C   UNL     1       2.486   7.154  19.298  0.00  0.00    +0.000 C 
ATOM     18  N   UNL     1       2.176   8.384  18.733  0.00  0.00    +0.000 N 
ATOM     19  H   UNL     1       2.592   8.612  17.842  0.00  0.00    +0.000 HD
BRANCH  17  20
ATOM     20  C   UNL     1       3.619   6.382  18.723  0.00  0.00    +0.000 A 
ATOM     21  C   UNL     1       4.212   5.292  19.368  0.00  0.00    +0.000 A 
ATOM     22  C   UNL     1       5.187   4.538  18.700  0.00  0.00    +0.000 A 
ATOM     23  C   UNL     1       5.567   4.872  17.397  0.00  0.00    +0.000 A 
ATOM     24  C   UNL     1       4.973   5.956  16.753  0.00  0.00    +0.000 A 
ATOM     25  C   UNL     1       4.014   6.714  17.416  0.00  0.00    +0.000 A 
ATOM     26  O   UNL     1       5.268   6.329  15.468  0.00  0.00    +0.000 OA
ATOM     27  C   UNL     1       5.938   5.282  14.760  0.00  0.00    +0.000 C 
ATOM     28  C   UNL     1       7.040   4.677  15.614  0.00  0.00    +0.000 C 
ATOM     29  O   UNL     1       6.509   4.072  16.801  0.00  0.00    +0.000 OA
ENDBRANCH  17  20
ENDBRANCH   1  18
TORSDOF 3
ENDMDL
MODEL 2
REMARK VINA RESULT:      -8.6      2.970      3.582
REMARK  Name = 
REMARK  3 active torsions:
REMARK  status: ('A' for Active; 'I' for Inactive)
REMARK    1  A    between atoms: C_2  and  C_19
REMARK    2  A    between atoms: N_3  and  C_4
REMARK    3  A    between atoms: C_9  and  C_10
REMARK                            x       y       z     vdW  Elec       q    Type
REMARK                         _______ _______ _______ _____ _____    ______ ____
ROOT
ATOM      1  C   UNL     1       0.811   9.688  18.170  0.00  0.00    +0.000 A 
ATOM      2  C   UNL     1       1.060  10.891  18.854  0.00  0.00    +0.000 A 
ATOM      3  C   UNL     1       0.053  11.816  19.143  0.00  0.00    +0.000 A 
ATOM      4  C   UNL     1      -1.211  11.471  18.705  0.00  0.00    +0.000 A 
ATOM      5  O   UNL     1      -2.354  12.180  18.887  0.00  0.00    +0.000 OA
ATOM      6  C   UNL     1      -3.321  11.415  18.288  0.00  0.00    +0.000 A 
ATOM      7  N   UNL     1      -2.870  10.300  17.732  0.00  0.00    +0.000 NA
ATOM      8  C   UNL     1      -1.519  10.321  17.999  0.00  0.00    +0.000 A 
ATOM      9  C   UNL     1      -0.487   9.409  17.699  0.00  0.00    +0.000 A 
ENDROOT
BRANCH   6  10
ATOM     10  C   UNL     1      -4.681  11.940  18.367  0.00  0.00    +0.000 A 
ATOM     11  C   UNL     1      -5.479  12.088  17.226  0.00  0.00    +0.000 A 
ATOM     12  C   UNL     1      -6.762  12.589  17.368  0.00  0.00    +0.000 A 
ATOM     13  N   UNL     1      -7.295  12.951  18.553  0.00  0.00    +0.000 NA
ATOM     14  C   UNL     1      -6.510  12.806  19.643  0.00  0.00    +0.000 A 
ATOM     15  C   UNL     1      -5.217  12.314  19.601  0.00  0.00    +0.000 A 
ENDBRANCH   6  10
BRANCH   1  18
ATOM     16  O   UNL     1       1.808   7.665  20.005  0.00  0.00    +0.000 OA
ATOM     17  C   UNL     1       2.280   7.812  18.880  0.00  0.00    +0.000 C 
ATOM     18  N   UNL     1       1.837   8.729  17.935  0.00  0.00    +0.000 N 
ATOM     19  H   UNL     1       2.141   8.606  16.980  0.00  0.00    +0.000 HD
BRANCH  17  20
ATOM     20  C   UNL     1       3.390   6.897  18.504  0.00  0.00    +0.000 A 
ATOM     21  C   UNL     1       3.791   5.811  19.290  0.00  0.00    +0.000 A 
ATOM     22  C   UNL     1       4.756   4.921  18.801  0.00  0.00    +0.000 A 
ATOM     23  C   UNL     1       5.318   5.114  17.536  0.00  0.00    +0.000 A 
ATOM     24  C   UNL     1       4.915   6.193  16.751  0.00  0.00    +0.000 A 
ATOM     25  C   UNL     1       3.966   7.086  17.236  0.00  0.00    +0.000 A 
ATOM     26  O   UNL     1       5.394   6.435  15.490  0.00  0.00    +0.000 OA
ATOM     27  C   UNL     1       6.034   5.277  14.944  0.00  0.00    +0.000 C 
ATOM     28  C   UNL     1       6.963   4.644  15.967  0.00  0.00    +0.000 C 
ATOM     29  O   UNL     1       6.238   4.187  17.117  0.00  0.00    +0.000 OA
ENDBRANCH  17  20
ENDBRANCH   1  18
TORSDOF 3
ENDMDL
MODEL 3
REMARK VINA RESULT:      -8.4      1.237      1.288
REMARK  Name = 
REMARK  3 active torsions:
REMARK  status: ('A' for Active; 'I' for Inactive)
REMARK    1  A    between atoms: C_2  and  C_19
REMARK    2  A    between atoms: N_3  and  C_4
REMARK    3  A    between atoms: C_9  and  C_10
REMARK                            x       y       z     vdW  Elec       q    Type
REMARK                         _______ _______ _______ _____ _____    ______ ____
ROOT
ATOM      1  C   UNL     1       0.589   9.410  19.860  0.00  0.00    +0.000 A 
ATOM      2  C   UNL     1      -0.187  10.129  18.934  0.00  0.00    +0.000 A 
ATOM      3  C   UNL     1      -0.987  11.214  19.301  0.00  0.00    +0.000 A 
ATOM      4  C   UNL     1      -0.970  11.533  20.645  0.00  0.00    +0.000 A 
ATOM      5  O   UNL     1      -1.631  12.556  21.245  0.00  0.00    +0.000 OA
ATOM      6  C   UNL     1      -1.277  12.455  22.565  0.00  0.00    +0.000 A 
ATOM      7  N   UNL     1      -0.467  11.443  22.838  0.00  0.00    +0.000 NA
ATOM      8  C   UNL     1      -0.256  10.848  21.614  0.00  0.00    +0.000 A 
ATOM      9  C   UNL     1       0.529   9.744  21.227  0.00  0.00    +0.000 A 
ENDROOT
BRANCH   6  10
ATOM     10  C   UNL     1      -1.835  13.474  23.449  0.00  0.00    +0.000 A 
ATOM     11  C   UNL     1      -1.067  14.553  23.904  0.00  0.00    +0.000 A 
ATOM     12  C   UNL     1      -1.657  15.489  24.737  0.00  0.00    +0.000 A 
ATOM     13  N   UNL     1      -2.941  15.421  25.145  0.00  0.00    +0.000 NA
ATOM     14  C   UNL     1      -3.666  14.372  24.700  0.00  0.00    +0.000 A 
ATOM     15  C   UNL     1      -3.165  13.388  23.865  0.00  0.00    +0.000 A 
ENDBRANCH   6  10
BRANCH   1  18
ATOM     16  O   UNL     1       2.194   9.229  17.443  0.00  0.00    +0.000 OA
ATOM     17  C   UNL     1       2.156   8.320  18.267  0.00  0.00    +0.000 C 
ATOM     18  N   UNL     1       1.444   8.344  19.460  0.00  0.00    +0.000 N 
ATOM     19  H   UNL     1       1.667   7.648  20.157  0.00  0.00    +0.000 HD
BRANCH  17  20
ATOM     20  C   UNL     1       2.979   7.118  17.966  0.00  0.00    +0.000 A 
ATOM     21  C   UNL     1       2.607   5.821  18.334  0.00  0.00    +0.000 A 
ATOM     22  C   UNL     1       3.372   4.731  17.896  0.00  0.00    +0.000 A 
ATOM     23  C   UNL     1       4.501   4.936  17.097  0.00  0.00    +0.000 A 
ATOM     24  C   UNL     1       4.868   6.229  16.728  0.00  0.00    +0.000 A 
ATOM     25  C   UNL     1       4.120   7.314  17.169  0.00  0.00    +0.000 A 
ATOM     26  O   UNL     1       5.942   6.512  15.924  0.00  0.00    +0.000 OA
ATOM     27  C   UNL     1       6.386   5.350  15.218  0.00  0.00    +0.000 C 
ATOM     28  C   UNL     1       6.471   4.153  16.151  0.00  0.00    +0.000 C 
ATOM     29  O   UNL     1       5.184   3.819  16.689  0.00  0.00    +0.000 OA
ENDBRANCH  17  20
ENDBRANCH   1  18
TORSDOF 3
ENDMDL
MODEL 4
REMARK VINA RESULT:      -8.4      7.090     10.220
REMARK  Name = 
REMARK  3 active torsions:
REMARK  status: ('A' for Active; 'I' for Inactive)
REMARK    1  A    between atoms: C_2  and  C_19
REMARK    2  A    between atoms: N_3  and  C_4
REMARK    3  A    between atoms: C_9  and  C_10
REMARK                            x       y       z     vdW  Elec       q    Type
REMARK                         _______ _______ _______ _____ _____    ______ ____
ROOT
ATOM      1  C   UNL     1       7.903   8.365  18.049  0.00  0.00    +0.000 A 
ATOM      2  C   UNL     1       8.528   7.303  18.726  0.00  0.00    +0.000 A 
ATOM      3  C   UNL     1       7.891   6.083  18.968  0.00  0.00    +0.000 A 
ATOM      4  C   UNL     1       6.595   5.990  18.499  0.00  0.00    +0.000 A 
ATOM      5  O   UNL     1       5.780   4.907  18.579  0.00  0.00    +0.000 OA
ATOM      6  C   UNL     1       4.625   5.312  17.962  0.00  0.00    +0.000 A 
ATOM      7  N   UNL     1       4.648   6.562  17.523  0.00  0.00    +0.000 NA
ATOM      8  C   UNL     1       5.910   7.005  17.855  0.00  0.00    +0.000 A 
ATOM      9  C   UNL     1       6.561   8.236  17.638  0.00  0.00    +0.000 A 
ENDROOT
BRANCH   6  10
ATOM     10  C   UNL     1       3.567   4.309  17.879  0.00  0.00    +0.000 A 
ATOM     11  C   UNL     1       3.857   2.945  17.748  0.00  0.00    +0.000 A 
ATOM     12  C   UNL     1       2.809   2.043  17.679  0.00  0.00    +0.000 A 
ATOM     13  N   UNL     1       1.510   2.403  17.726  0.00  0.00    +0.000 NA
ATOM     14  C   UNL     1       1.248   3.722  17.847  0.00  0.00    +0.000 A 
ATOM     15  C   UNL     1       2.227   4.697  17.926  0.00  0.00    +0.000 A 
ENDBRANCH   6  10
BRANCH   1  18
ATOM     16  O   UNL     1       9.187  10.174  19.928  0.00  0.00    +0.000 OA
ATOM     17  C   UNL     1       9.148  10.409  18.723  0.00  0.00    +0.000 C 
ATOM     18  N   UNL     1       8.585   9.580  17.760  0.00  0.00    +0.000 N 
ATOM     19  H   UNL     1       8.812   9.760  16.792  0.00  0.00    +0.000 HD
BRANCH  17  20
ATOM     20  C   UNL     1       9.795  11.669  18.273  0.00  0.00    +0.000 A 
ATOM     21  C   UNL     1      10.938  11.700  17.465  0.00  0.00    +0.000 A 
ATOM     22  C   UNL     1      11.408  12.927  16.977  0.00  0.00    +0.000 A 
ATOM     23  C   UNL     1      10.742  14.115  17.294  0.00  0.00    +0.000 A 
ATOM     24  C   UNL     1       9.602  14.083  18.095  0.00  0.00    +0.000 A 
ATOM     25  C   UNL     1       9.138  12.869  18.592  0.00  0.00    +0.000 A 
ATOM     26  O   UNL     1       8.877  15.197  18.427  0.00  0.00    +0.000 OA
ATOM     27  C   UNL     1       9.187  16.297  17.567  0.00  0.00    +0.000 C 
ATOM     28  C   UNL     1      10.690  16.433  17.389  0.00  0.00    +0.000 C 
ATOM     29  O   UNL     1      11.249  15.271  16.760  0.00  0.00    +0.000 OA
ENDBRANCH  17  20
ENDBRANCH   1  18
TORSDOF 3
ENDMDL
MODEL 5
REMARK VINA RESULT:      -8.4      2.297     10.779
REMARK  Name = 
REMARK  3 active torsions:
REMARK  status: ('A' for Active; 'I' for Inactive)
REMARK    1  A    between atoms: C_2  and  C_19
REMARK    2  A    between atoms: N_3  and  C_4
REMARK    3  A    between atoms: C_9  and  C_10
REMARK                            x       y       z     vdW  Elec       q    Type
REMARK                         _______ _______ _______ _____ _____    ______ ____
ROOT
ATOM      1  C   UNL     1       0.906   8.780  20.059  0.00  0.00    +0.000 A 
ATOM      2  C   UNL     1       1.031   7.636  20.866  0.00  0.00    +0.000 A 
ATOM      3  C   UNL     1       1.927   6.603  20.577  0.00  0.00    +0.000 A 
ATOM      4  C   UNL     1       2.684   6.779  19.435  0.00  0.00    +0.000 A 
ATOM      5  O   UNL     1       3.641   5.942  18.959  0.00  0.00    +0.000 OA
ATOM      6  C   UNL     1       4.101   6.567  17.829  0.00  0.00    +0.000 A 
ATOM      7  N   UNL     1       3.495   7.712  17.553  0.00  0.00    +0.000 NA
ATOM      8  C   UNL     1       2.590   7.863  18.580  0.00  0.00    +0.000 A 
ATOM      9  C   UNL     1       1.666   8.885  18.877  0.00  0.00    +0.000 A 
ENDROOT
BRANCH   6  10
ATOM     10  C   UNL     1       5.179   5.882  17.123  0.00  0.00    +0.000 A 
ATOM     11  C   UNL     1       5.207   5.799  15.725  0.00  0.00    +0.000 A 
ATOM     12  C   UNL     1       6.260   5.138  15.115  0.00  0.00    +0.000 A 
ATOM     13  N   UNL     1       7.271   4.560  15.794  0.00  0.00    +0.000 NA
ATOM     14  C   UNL     1       7.227   4.645  17.141  0.00  0.00    +0.000 A 
ATOM     15  C   UNL     1       6.218   5.285  17.840  0.00  0.00    +0.000 A 
ENDBRANCH   6  10
BRANCH   1  18
ATOM     16  O   UNL     1       0.809  10.275  22.550  0.00  0.00    +0.000 OA
ATOM     17  C   UNL     1       0.027  10.495  21.629  0.00  0.00    +0.000 C 
ATOM     18  N   UNL     1       0.031   9.850  20.399  0.00  0.00    +0.000 N 
ATOM     19  H   UNL     1      -0.500  10.265  19.647  0.00  0.00    +0.000 HD
BRANCH  17  20
ATOM     20  C   UNL     1      -0.975  11.570  21.855  0.00  0.00    +0.000 A 
ATOM     21  C   UNL     1      -1.158  12.645  20.978  0.00  0.00    +0.000 A 
ATOM     22  C   UNL     1      -2.212  13.543  21.195  0.00  0.00    +0.000 A 
ATOM     23  C   UNL     1      -3.075  13.370  22.280  0.00  0.00    +0.000 A 
ATOM     24  C   UNL     1      -2.894  12.297  23.151  0.00  0.00    +0.000 A 
ATOM     25  C   UNL     1      -1.843  11.410  22.948  0.00  0.00    +0.000 A 
ATOM     26  O   UNL     1      -3.713  12.041  24.220  0.00  0.00    +0.000 OA
ATOM     27  C   UNL     1      -4.953  12.746  24.108  0.00  0.00    +0.000 C 
ATOM     28  C   UNL     1      -4.715  14.191  23.703  0.00  0.00    +0.000 C 
ATOM     29  O   UNL     1      -4.096  14.276  22.412  0.00  0.00    +0.000 OA
ENDBRANCH  17  20
ENDBRANCH   1  18
TORSDOF 3
ENDMDL
MODEL 6
REMARK VINA RESULT:      -8.1      3.229      3.651
REMARK  Name = 
REMARK  3 active torsions:
REMARK  status: ('A' for Active; 'I' for Inactive)
REMARK    1  A    between atoms: C_2  and  C_19
REMARK    2  A    between atoms: N_3  and  C_4
REMARK    3  A    between atoms: C_9  and  C_10
REMARK                            x       y       z     vdW  Elec       q    Type
REMARK                         _______ _______ _______ _____ _____    ______ ____
ROOT
ATOM      1  C   UNL     1       1.138  10.042  18.179  0.00  0.00    +0.000 A 
ATOM      2  C   UNL     1      -0.244  10.038  18.433  0.00  0.00    +0.000 A 
ATOM      3  C   UNL     1      -0.960  11.200  18.735  0.00  0.00    +0.000 A 
ATOM      4  C   UNL     1      -0.213  12.361  18.771  0.00  0.00    +0.000 A 
ATOM      5  O   UNL     1      -0.675  13.616  19.007  0.00  0.00    +0.000 OA
ATOM      6  C   UNL     1       0.442  14.406  18.919  0.00  0.00    +0.000 A 
ATOM      7  N   UNL     1       1.561  13.744  18.667  0.00  0.00    +0.000 NA
ATOM      8  C   UNL     1       1.153  12.432  18.563  0.00  0.00    +0.000 A 
ATOM      9  C   UNL     1       1.862  11.247  18.281  0.00  0.00    +0.000 A 
ENDROOT
BRANCH   6  10
ATOM     10  C   UNL     1       0.219  15.837  19.105  0.00  0.00    +0.000 A 
ATOM     11  C   UNL     1      -0.988  16.334  19.611  0.00  0.00    +0.000 A 
ATOM     12  C   UNL     1      -1.135  17.702  19.767  0.00  0.00    +0.000 A 
ATOM     13  N   UNL     1      -0.176  18.596  19.454  0.00  0.00    +0.000 NA
ATOM     14  C   UNL     1       0.981  18.100  18.962  0.00  0.00    +0.000 A 
ATOM     15  C   UNL     1       1.221  16.750  18.772  0.00  0.00    +0.000 A 
ENDBRANCH   6  10
BRANCH   1  18
ATOM     16  O   UNL     1       2.011   7.887  19.924  0.00  0.00    +0.000 OA
ATOM     17  C   UNL     1       2.252   7.887  18.719  0.00  0.00    +0.000 C 
ATOM     18  N   UNL     1       1.841   8.859  17.816  0.00  0.00    +0.000 N 
ATOM     19  H   UNL     1       1.897   8.642  16.832  0.00  0.00    +0.000 HD
BRANCH  17  20
ATOM     20  C   UNL     1       3.015   6.722  18.198  0.00  0.00    +0.000 A 
ATOM     21  C   UNL     1       2.631   5.394  18.414  0.00  0.00    +0.000 A 
ATOM     22  C   UNL     1       3.330   4.359  17.778  0.00  0.00    +0.000 A 
ATOM     23  C   UNL     1       4.406   4.648  16.933  0.00  0.00    +0.000 A 
ATOM     24  C   UNL     1       4.784   5.972  16.715  0.00  0.00    +0.000 A 
ATOM     25  C   UNL     1       4.102   7.001  17.353  0.00  0.00    +0.000 A 
ATOM     26  O   UNL     1       5.806   6.340  15.880  0.00  0.00    +0.000 OA
ATOM     27  C   UNL     1       6.165   5.277  14.992  0.00  0.00    +0.000 C 
ATOM     28  C   UNL     1       6.279   3.962  15.746  0.00  0.00    +0.000 C 
ATOM     29  O   UNL     1       5.023   3.584  16.328  0.00  0.00    +0.000 OA
ENDBRANCH  17  20
ENDBRANCH   1  18
TORSDOF 3
ENDMDL
MODEL 7
REMARK VINA RESULT:      -8.1      2.229     10.803
REMARK  Name = 
REMARK  3 active torsions:
REMARK  status: ('A' for Active; 'I' for Inactive)
REMARK    1  A    between atoms: C_2  and  C_19
REMARK    2  A    between atoms: N_3  and  C_4
REMARK    3  A    between atoms: C_9  and  C_10
REMARK                            x       y       z     vdW  Elec       q    Type
REMARK                         _______ _______ _______ _____ _____    ______ ____
ROOT
ATOM      1  C   UNL     1       0.718   9.231  20.530  0.00  0.00    +0.000 A 
ATOM      2  C   UNL     1       0.855   8.090  21.340  0.00  0.00    +0.000 A 
ATOM      3  C   UNL     1       1.608   6.977  20.955  0.00  0.00    +0.000 A 
ATOM      4  C   UNL     1       2.208   7.070  19.715  0.00  0.00    +0.000 A 
ATOM      5  O   UNL     1       3.011   6.144  19.131  0.00  0.00    +0.000 OA
ATOM      6  C   UNL     1       3.358   6.711  17.932  0.00  0.00    +0.000 A 
ATOM      7  N   UNL     1       2.822   7.902  17.715  0.00  0.00    +0.000 NA
ATOM      8  C   UNL     1       2.088   8.147  18.854  0.00  0.00    +0.000 A 
ATOM      9  C   UNL     1       1.308   9.252  19.251  0.00  0.00    +0.000 A 
ENDROOT
BRANCH   6  10
ATOM     10  C   UNL     1       4.262   5.923  17.099  0.00  0.00    +0.000 A 
ATOM     11  C   UNL     1       4.307   4.525  17.181  0.00  0.00    +0.000 A 
ATOM     12  C   UNL     1       5.184   3.836  16.361  0.00  0.00    +0.000 A 
ATOM     13  N   UNL     1       6.010   4.435  15.480  0.00  0.00    +0.000 NA
ATOM     14  C   UNL     1       5.958   5.783  15.418  0.00  0.00    +0.000 A 
ATOM     15  C   UNL     1       5.115   6.558  16.195  0.00  0.00    +0.000 A 
ENDBRANCH   6  10
BRANCH   1  18
ATOM     16  O   UNL     1       0.294  10.142  23.258  0.00  0.00    +0.000 OA
ATOM     17  C   UNL     1      -0.188  10.731  22.293  0.00  0.00    +0.000 C 
ATOM     18  N   UNL     1      -0.004  10.379  20.962  0.00  0.00    +0.000 N 
ATOM     19  H   UNL     1      -0.252  11.057  20.257  0.00  0.00    +0.000 HD
BRANCH  17  20
ATOM     20  C   UNL     1      -1.001  11.938  22.594  0.00  0.00    +0.000 A 
ATOM     21  C   UNL     1      -0.570  13.242  22.324  0.00  0.00    +0.000 A 
ATOM     22  C   UNL     1      -1.449  14.316  22.517  0.00  0.00    +0.000 A 
ATOM     23  C   UNL     1      -2.750  14.090  22.976  0.00  0.00    +0.000 A 
ATOM     24  C   UNL     1      -3.181  12.791  23.240  0.00  0.00    +0.000 A 
ATOM     25  C   UNL     1      -2.308  11.723  23.063  0.00  0.00    +0.000 A 
ATOM     26  O   UNL     1      -4.447  12.484  23.664  0.00  0.00    +0.000 OA
ATOM     27  C   UNL     1      -5.353  13.566  23.432  0.00  0.00    +0.000 C 
ATOM     28  C   UNL     1      -4.738  14.885  23.872  0.00  0.00    +0.000 C 
ATOM     29  O   UNL     1      -3.558  15.189  23.115  0.00  0.00    +0.000 OA
ENDBRANCH  17  20
ENDBRANCH   1  18
TORSDOF 3
ENDMDL
MODEL 8
REMARK VINA RESULT:      -8.0      2.239      2.598
REMARK  Name = 
REMARK  3 active torsions:
REMARK  status: ('A' for Active; 'I' for Inactive)
REMARK    1  A    between atoms: C_2  and  C_19
REMARK    2  A    between atoms: N_3  and  C_4
REMARK    3  A    between atoms: C_9  and  C_10
REMARK                            x       y       z     vdW  Elec       q    Type
REMARK                         _______ _______ _______ _____ _____    ______ ____
ROOT
ATOM      1  C   UNL     1       1.310   9.736  18.080  0.00  0.00    +0.000 A 
ATOM      2  C   UNL     1       1.911  10.981  18.336  0.00  0.00    +0.000 A 
ATOM      3  C   UNL     1       1.187  12.089  18.786  0.00  0.00    +0.000 A 
ATOM      4  C   UNL     1      -0.167  11.880  18.960  0.00  0.00    +0.000 A 
ATOM      5  O   UNL     1      -1.075  12.781  19.416  0.00  0.00    +0.000 OA
ATOM      6  C   UNL     1      -2.258  12.089  19.422  0.00  0.00    +0.000 A 
ATOM      7  N   UNL     1      -2.164  10.841  18.989  0.00  0.00    +0.000 NA
ATOM      8  C   UNL     1      -0.826  10.692  18.697  0.00  0.00    +0.000 A 
ATOM      9  C   UNL     1      -0.084   9.592  18.223  0.00  0.00    +0.000 A 
ENDROOT
BRANCH   6  10
ATOM     10  C   UNL     1      -3.419  12.828  19.908  0.00  0.00    +0.000 A 
ATOM     11  C   UNL     1      -4.723  12.478  19.536  0.00  0.00    +0.000 A 
ATOM     12  C   UNL     1      -5.782  13.217  20.035  0.00  0.00    +0.000 A 
ATOM     13  N   UNL     1      -5.633  14.269  20.865  0.00  0.00    +0.000 NA
ATOM     14  C   UNL     1      -4.369  14.597  21.209  0.00  0.00    +0.000 A 
ATOM     15  C   UNL     1      -3.248  13.918  20.763  0.00  0.00    +0.000 A 
ENDBRANCH   6  10
BRANCH   1  18
ATOM     16  O   UNL     1       2.191   7.509  19.729  0.00  0.00    +0.000 OA
ATOM     17  C   UNL     1       2.480   7.591  18.538  0.00  0.00    +0.000 C 
ATOM     18  N   UNL     1       2.071   8.602  17.677  0.00  0.00    +0.000 N 
ATOM     19  H   UNL     1       2.174   8.447  16.685  0.00  0.00    +0.000 HD
BRANCH  17  20
ATOM     20  C   UNL     1       3.306   6.487  17.981  0.00  0.00    +0.000 A 
ATOM     21  C   UNL     1       3.033   5.133  18.209  0.00  0.00    +0.000 A 
ATOM     22  C   UNL     1       3.781   4.154  17.541  0.00  0.00    +0.000 A 
ATOM     23  C   UNL     1       4.794   4.524  16.651  0.00  0.00    +0.000 A 
ATOM     24  C   UNL     1       5.061   5.872  16.420  0.00  0.00    +0.000 A 
ATOM     25  C   UNL     1       4.331   6.848  17.090  0.00  0.00    +0.000 A 
ATOM     26  O   UNL     1       6.016   6.317  15.543  0.00  0.00    +0.000 OA
ATOM     27  C   UNL     1       6.415   5.283  14.638  0.00  0.00    +0.000 C 
ATOM     28  C   UNL     1       6.661   3.981  15.383  0.00  0.00    +0.000 C 
ATOM     29  O   UNL     1       5.464   3.509  16.017  0.00  0.00    +0.000 OA
ENDBRANCH  17  20
ENDBRANCH   1  18
TORSDOF 3
ENDMDL
MODEL 9
REMARK VINA RESULT:      -8.0      1.577      1.952
REMARK  Name = 
REMARK  3 active torsions:
REMARK  status: ('A' for Active; 'I' for Inactive)
REMARK    1  A    between atoms: C_2  and  C_19
REMARK    2  A    between atoms: N_3  and  C_4
REMARK    3  A    between atoms: C_9  and  C_10
REMARK                            x       y       z     vdW  Elec       q    Type
REMARK                         _______ _______ _______ _____ _____    ______ ____
ROOT
ATOM      1  C   UNL     1       1.299   8.699  20.566  0.00  0.00    +0.000 A 
ATOM      2  C   UNL     1       1.305   8.644  21.970  0.00  0.00    +0.000 A 
ATOM      3  C   UNL     1       0.503   9.472  22.761  0.00  0.00    +0.000 A 
ATOM      4  C   UNL     1      -0.298  10.358  22.067  0.00  0.00    +0.000 A 
ATOM      5  O   UNL     1      -1.183  11.239  22.599  0.00  0.00    +0.000 OA
ATOM      6  C   UNL     1      -1.730  11.864  21.508  0.00  0.00    +0.000 A 
ATOM      7  N   UNL     1      -1.244  11.458  20.345  0.00  0.00    +0.000 NA
ATOM      8  C   UNL     1      -0.329  10.487  20.690  0.00  0.00    +0.000 A 
ATOM      9  C   UNL     1       0.501   9.658  19.909  0.00  0.00    +0.000 A 
ENDROOT
BRANCH   6  10
ATOM     10  C   UNL     1      -2.758  12.859  21.800  0.00  0.00    +0.000 A 
ATOM     11  C   UNL     1      -3.096  13.858  20.879  0.00  0.00    +0.000 A 
ATOM     12  C   UNL     1      -4.082  14.770  21.214  0.00  0.00    +0.000 A 
ATOM     13  N   UNL     1      -4.742  14.757  22.389  0.00  0.00    +0.000 NA
ATOM     14  C   UNL     1      -4.400  13.790  23.268  0.00  0.00    +0.000 A 
ATOM     15  C   UNL     1      -3.430  12.834  23.023  0.00  0.00    +0.000 A 
ENDBRANCH   6  10
BRANCH   1  18
ATOM     16  O   UNL     1       1.437   5.802  20.762  0.00  0.00    +0.000 OA
ATOM     17  C   UNL     1       2.113   6.432  19.952  0.00  0.00    +0.000 C 
ATOM     18  N   UNL     1       2.078   7.809  19.774  0.00  0.00    +0.000 N 
ATOM     19  H   UNL     1       2.497   8.187  18.937  0.00  0.00    +0.000 HD
BRANCH  17  20
ATOM     20  C   UNL     1       3.007   5.633  19.073  0.00  0.00    +0.000 A 
ATOM     21  C   UNL     1       3.051   4.235  19.090  0.00  0.00    +0.000 A 
ATOM     22  C   UNL     1       3.824   3.555  18.139  0.00  0.00    +0.000 A 
ATOM     23  C   UNL     1       4.548   4.266  17.178  0.00  0.00    +0.000 A 
ATOM     24  C   UNL     1       4.499   5.659  17.158  0.00  0.00    +0.000 A 
ATOM     25  C   UNL     1       3.744   6.339  18.108  0.00  0.00    +0.000 A 
ATOM     26  O   UNL     1       5.155   6.428  16.233  0.00  0.00    +0.000 OA
ATOM     27  C   UNL     1       5.556   5.652  15.099  0.00  0.00    +0.000 C 
ATOM     28  C   UNL     1       6.192   4.344  15.541  0.00  0.00    +0.000 C 
ATOM     29  O   UNL     1       5.260   3.530  16.266  0.00  0.00    +0.000 OA
ENDBRANCH  17  20
ENDBRANCH   1  18
TORSDOF 3
ENDMDL
