MODEL 1
REMARK VINA RESULT:      -8.2      0.000      0.000
REMARK  Name = 
REMARK  3 active torsions:
REMARK  status: ('A' for Active; 'I' for Inactive)
REMARK    1  A    between atoms: C_1  and  C_2
REMARK    2  A    between atoms: C_6  and  C_7
REMARK    3  A    between atoms: C_15  and  C_16
REMARK                            x       y       z     vdW  Elec       q    Type
REMARK                         _______ _______ _______ _____ _____    ______ ____
ROOT
ATOM      1  C   UNL     1       1.362   2.562  18.507  0.00  0.00    +0.000 C 
ATOM      2  C   UNL     1       2.814   2.912  18.724  0.00  0.00    +0.000 C 
ATOM      3  O   UNL     1       3.689   2.046  18.708  0.00  0.00    +0.000 OA
ATOM      4  N   UNL     1       3.072   4.257  18.921  0.00  0.00    +0.000 N 
ATOM      5  N   UNL     1       2.068   5.169  19.112  0.00  0.00    +0.000 NA
ATOM      6  C   UNL     1       2.631   6.288  19.452  0.00  0.00    +0.000 C 
ATOM      7  C   UNL     1       4.136   6.262  19.517  0.00  0.00    +0.000 C 
ATOM      8  C   UNL     1       4.407   4.804  19.150  0.00  0.00    +0.000 C 
ENDROOT
BRANCH   8   9
ATOM      9  C   UNL     1       5.313   4.664  17.941  0.00  0.00    +0.000 A 
ATOM     10  C   UNL     1       6.724   4.698  18.073  0.00  0.00    +0.000 A 
ATOM     11  C   UNL     1       7.558   4.607  16.955  0.00  0.00    +0.000 A 
ATOM     12  C   UNL     1       6.962   4.491  15.720  0.00  0.00    +0.000 A 
ATOM     13  C   UNL     1       5.596   4.452  15.575  0.00  0.00    +0.000 A 
ATOM     14  C   UNL     1       4.747   4.530  16.660  0.00  0.00    +0.000 A 
ATOM     15  O   UNL     1       5.214   4.344  14.274  0.00  0.00    +0.000 OA
ATOM     16  C   UNL     1       6.495   4.393  13.614  0.00  0.00    +0.000 C 
ATOM     17  O   UNL     1       7.611   4.415  14.527  0.00  0.00    +0.000 OA
ENDBRANCH   8   9
BRANCH   6  18
ATOM     18  C   UNL     1       1.854   7.509  19.769  0.00  0.00    +0.000 A 
ATOM     19  C   UNL     1       1.743   8.513  18.796  0.00  0.00    +0.000 A 
ATOM     20  C   UNL     1       1.013   9.674  19.059  0.00  0.00    +0.000 A 
ATOM     21  C   UNL     1       0.393   9.831  20.296  0.00  0.00    +0.000 A 
ATOM     22 BR   UNL     1      -0.596  11.400  20.657  0.00  0.00    +0.000 Br
ATOM     23  C   UNL     1       0.496   8.838  21.270  0.00  0.00    +0.000 A 
ATOM     24  C   UNL     1       1.226   7.676  21.007  0.00  0.00    +0.000 A 
ENDBRANCH   6  18
TORSDOF 2
ENDMDL
MODEL 2
REMARK VINA RESULT:      -7.8      1.009      1.550
REMARK  Name = 
REMARK  3 active torsions:
REMARK  status: ('A' for Active; 'I' for Inactive)
REMARK    1  A    between atoms: C_1  and  C_2
REMARK    2  A    between atoms: C_6  and  C_7
REMARK    3  A    between atoms: C_15  and  C_16
REMARK                            x       y       z     vdW  Elec       q    Type
REMARK                         _______ _______ _______ _____ _____    ______ ____
ROOT
ATOM      1  C   UNL     1       1.904   2.549  18.139  0.00  0.00    +0.000 C 
ATOM      2  C   UNL     1       3.342   3.000  18.053  0.00  0.00    +0.000 C 
ATOM      3  O   UNL     1       4.263   2.187  17.969  0.00  0.00    +0.000 OA
ATOM      4  N   UNL     1       3.530   4.371  18.061  0.00  0.00    +0.000 N 
ATOM      5  N   UNL     1       2.509   5.242  18.335  0.00  0.00    +0.000 NA
ATOM      6  C   UNL     1       3.039   6.422  18.450  0.00  0.00    +0.000 C 
ATOM      7  C   UNL     1       4.530   6.486  18.244  0.00  0.00    +0.000 C 
ATOM      8  C   UNL     1       4.840   5.012  17.987  0.00  0.00    +0.000 C 
ENDROOT
BRANCH   8   9
ATOM      9  C   UNL     1       5.530   4.784  16.655  0.00  0.00    +0.000 A 
ATOM     10  C   UNL     1       6.909   5.067  16.484  0.00  0.00    +0.000 A 
ATOM     11  C   UNL     1       7.536   4.893  15.247  0.00  0.00    +0.000 A 
ATOM     12  C   UNL     1       6.767   4.444  14.197  0.00  0.00    +0.000 A 
ATOM     13  C   UNL     1       5.431   4.161  14.348  0.00  0.00    +0.000 A 
ATOM     14  C   UNL     1       4.786   4.313  15.558  0.00  0.00    +0.000 A 
ATOM     15  O   UNL     1       4.855   3.741  13.189  0.00  0.00    +0.000 OA
ATOM     16  C   UNL     1       5.966   3.862  12.278  0.00  0.00    +0.000 C 
ATOM     17  O   UNL     1       7.200   4.240  12.924  0.00  0.00    +0.000 OA
ENDBRANCH   8   9
BRANCH   6  18
ATOM     18  C   UNL     1       2.240   7.627  18.775  0.00  0.00    +0.000 A 
ATOM     19  C   UNL     1       1.809   7.817  20.096  0.00  0.00    +0.000 A 
ATOM     20  C   UNL     1       1.060   8.945  20.439  0.00  0.00    +0.000 A 
ATOM     21  C   UNL     1       0.742   9.883  19.459  0.00  0.00    +0.000 A 
ATOM     22 BR   UNL     1      -0.272  11.410  19.918  0.00  0.00    +0.000 Br
ATOM     23  C   UNL     1       1.167   9.704  18.144  0.00  0.00    +0.000 A 
ATOM     24  C   UNL     1       1.917   8.575  17.800  0.00  0.00    +0.000 A 
ENDBRANCH   6  18
TORSDOF 2
ENDMDL
MODEL 3
REMARK VINA RESULT:      -7.7      5.253      8.358
REMARK  Name = 
REMARK  3 active torsions:
REMARK  status: ('A' for Active; 'I' for Inactive)
REMARK    1  A    between atoms: C_1  and  C_2
REMARK    2  A    between atoms: C_6  and  C_7
REMARK    3  A    between atoms: C_15  and  C_16
REMARK                            x       y       z     vdW  Elec       q    Type
REMARK                         _______ _______ _______ _____ _____    ______ ____
ROOT
ATOM      1  C   UNL     1       0.755   9.191  22.587  0.00  0.00    +0.000 C 
ATOM      2  C   UNL     1       0.171   9.927  21.406  0.00  0.00    +0.000 C 
ATOM      3  O   UNL     1      -0.722  10.762  21.553  0.00  0.00    +0.000 OA
ATOM      4  N   UNL     1       0.722   9.603  20.179  0.00  0.00    +0.000 N 
ATOM      5  N   UNL     1       1.582   8.548  20.026  0.00  0.00    +0.000 NA
ATOM      6  C   UNL     1       1.768   8.393  18.750  0.00  0.00    +0.000 C 
ATOM      7  C   UNL     1       1.039   9.371  17.865  0.00  0.00    +0.000 C 
ATOM      8  C   UNL     1       0.299  10.199  18.915  0.00  0.00    +0.000 C 
ENDROOT
BRANCH   8   9
ATOM      9  C   UNL     1       0.623  11.679  18.827  0.00  0.00    +0.000 A 
ATOM     10  C   UNL     1      -0.406  12.654  18.791  0.00  0.00    +0.000 A 
ATOM     11  C   UNL     1      -0.108  14.015  18.672  0.00  0.00    +0.000 A 
ATOM     12  C   UNL     1       1.217  14.375  18.582  0.00  0.00    +0.000 A 
ATOM     13  C   UNL     1       2.225  13.442  18.620  0.00  0.00    +0.000 A 
ATOM     14  C   UNL     1       1.965  12.093  18.747  0.00  0.00    +0.000 A 
ATOM     15  O   UNL     1       3.459  14.005  18.508  0.00  0.00    +0.000 OA
ATOM     16  C   UNL     1       3.105  15.390  18.322  0.00  0.00    +0.000 C 
ATOM     17  O   UNL     1       1.690  15.643  18.438  0.00  0.00    +0.000 OA
ENDBRANCH   8   9
BRANCH   6  18
ATOM     18  C   UNL     1       2.626   7.322  18.192  0.00  0.00    +0.000 A 
ATOM     19  C   UNL     1       3.779   7.680  17.479  0.00  0.00    +0.000 A 
ATOM     20  C   UNL     1       4.614   6.696  16.945  0.00  0.00    +0.000 A 
ATOM     21  C   UNL     1       4.295   5.352  17.125  0.00  0.00    +0.000 A 
ATOM     22 BR   UNL     1       5.421   4.017  16.405  0.00  0.00    +0.000 Br
ATOM     23  C   UNL     1       3.152   4.985  17.834  0.00  0.00    +0.000 A 
ATOM     24  C   UNL     1       2.316   5.970  18.369  0.00  0.00    +0.000 A 
ENDBRANCH   6  18
TORSDOF 2
ENDMDL
MODEL 4
REMARK VINA RESULT:      -7.6      1.375      1.812
REMARK  Name = 
REMARK  3 active torsions:
REMARK  status: ('A' for Active; 'I' for Inactive)
REMARK    1  A    between atoms: C_1  and  C_2
REMARK    2  A    between atoms: C_6  and  C_7
REMARK    3  A    between atoms: C_15  and  C_16
REMARK                            x       y       z     vdW  Elec       q    Type
REMARK                         _______ _______ _______ _____ _____    ______ ____
ROOT
ATOM      1  C   UNL     1       3.297   3.186  20.142  0.00  0.00    +0.000 C 
ATOM      2  C   UNL     1       4.413   3.847  19.370  0.00  0.00    +0.000 C 
ATOM      3  O   UNL     1       5.489   3.277  19.189  0.00  0.00    +0.000 OA
ATOM      4  N   UNL     1       4.125   5.110  18.884  0.00  0.00    +0.000 N 
ATOM      5  N   UNL     1       2.993   5.789  19.251  0.00  0.00    +0.000 NA
ATOM      6  C   UNL     1       3.106   6.995  18.784  0.00  0.00    +0.000 C 
ATOM      7  C   UNL     1       4.366   7.273  18.006  0.00  0.00    +0.000 C 
ATOM      8  C   UNL     1       5.066   5.920  18.114  0.00  0.00    +0.000 C 
ENDROOT
BRANCH   8   9
ATOM      9  C   UNL     1       5.385   5.317  16.758  0.00  0.00    +0.000 A 
ATOM     10  C   UNL     1       4.627   4.237  16.238  0.00  0.00    +0.000 A 
ATOM     11  C   UNL     1       4.945   3.657  15.006  0.00  0.00    +0.000 A 
ATOM     12  C   UNL     1       6.024   4.165  14.319  0.00  0.00    +0.000 A 
ATOM     13  C   UNL     1       6.765   5.214  14.807  0.00  0.00    +0.000 A 
ATOM     14  C   UNL     1       6.471   5.814  16.015  0.00  0.00    +0.000 A 
ATOM     15  O   UNL     1       7.790   5.556  13.981  0.00  0.00    +0.000 OA
ATOM     16  C   UNL     1       7.650   4.554  12.953  0.00  0.00    +0.000 C 
ATOM     17  O   UNL     1       6.491   3.713  13.124  0.00  0.00    +0.000 OA
ENDBRANCH   8   9
BRANCH   6  18
ATOM     18  C   UNL     1       2.077   8.037  19.007  0.00  0.00    +0.000 A 
ATOM     19  C   UNL     1       1.631   8.793  17.913  0.00  0.00    +0.000 A 
ATOM     20  C   UNL     1       0.657   9.779  18.086  0.00  0.00    +0.000 A 
ATOM     21  C   UNL     1       0.129  10.009  19.354  0.00  0.00    +0.000 A 
ATOM     22 BR   UNL     1      -1.188  11.343  19.594  0.00  0.00    +0.000 Br
ATOM     23  C   UNL     1       0.565   9.262  20.448  0.00  0.00    +0.000 A 
ATOM     24  C   UNL     1       1.539   8.275  20.275  0.00  0.00    +0.000 A 
ENDBRANCH   6  18
TORSDOF 2
ENDMDL
MODEL 5
REMARK VINA RESULT:      -7.6      5.319      8.485
REMARK  Name = 
REMARK  3 active torsions:
REMARK  status: ('A' for Active; 'I' for Inactive)
REMARK    1  A    between atoms: C_1  and  C_2
REMARK    2  A    between atoms: C_6  and  C_7
REMARK    3  A    between atoms: C_15  and  C_16
REMARK                            x       y       z     vdW  Elec       q    Type
REMARK                         _______ _______ _______ _____ _____    ______ ____
ROOT
ATOM      1  C   UNL     1       0.537   9.237  22.596  0.00  0.00    +0.000 C 
ATOM      2  C   UNL     1       0.006  10.002  21.409  0.00  0.00    +0.000 C 
ATOM      3  O   UNL     1      -0.886  10.841  21.537  0.00  0.00    +0.000 OA
ATOM      4  N   UNL     1       0.603   9.698  20.198  0.00  0.00    +0.000 N 
ATOM      5  N   UNL     1       1.460   8.639  20.057  0.00  0.00    +0.000 NA
ATOM      6  C   UNL     1       1.695   8.509  18.786  0.00  0.00    +0.000 C 
ATOM      7  C   UNL     1       1.010   9.511  17.894  0.00  0.00    +0.000 C 
ATOM      8  C   UNL     1       0.235  10.323  18.930  0.00  0.00    +0.000 C 
ENDROOT
BRANCH   8   9
ATOM      9  C   UNL     1       0.574  11.802  18.886  0.00  0.00    +0.000 A 
ATOM     10  C   UNL     1      -0.441  12.784  18.764  0.00  0.00    +0.000 A 
ATOM     11  C   UNL     1      -0.127  14.144  18.685  0.00  0.00    +0.000 A 
ATOM     12  C   UNL     1       1.204  14.496  18.722  0.00  0.00    +0.000 A 
ATOM     13  C   UNL     1       2.198  13.557  18.844  0.00  0.00    +0.000 A 
ATOM     14  C   UNL     1       1.920  12.208  18.934  0.00  0.00    +0.000 A 
ATOM     15  O   UNL     1       3.440  14.112  18.851  0.00  0.00    +0.000 OA
ATOM     16  C   UNL     1       3.113  15.501  18.646  0.00  0.00    +0.000 C 
ATOM     17  O   UNL     1       1.694  15.762  18.633  0.00  0.00    +0.000 OA
ENDBRANCH   8   9
BRANCH   6  18
ATOM     18  C   UNL     1       2.566   7.441  18.242  0.00  0.00    +0.000 A 
ATOM     19  C   UNL     1       2.228   6.102  18.485  0.00  0.00    +0.000 A 
ATOM     20  C   UNL     1       3.023   5.070  17.982  0.00  0.00    +0.000 A 
ATOM     21  C   UNL     1       4.157   5.378  17.233  0.00  0.00    +0.000 A 
ATOM     22 BR   UNL     1       5.236   3.985  16.550  0.00  0.00    +0.000 Br
ATOM     23  C   UNL     1       4.501   6.706  16.984  0.00  0.00    +0.000 A 
ATOM     24  C   UNL     1       3.705   7.739  17.488  0.00  0.00    +0.000 A 
ENDBRANCH   6  18
TORSDOF 2
ENDMDL
MODEL 6
REMARK VINA RESULT:      -7.6      5.493      8.532
REMARK  Name = 
REMARK  3 active torsions:
REMARK  status: ('A' for Active; 'I' for Inactive)
REMARK    1  A    between atoms: C_1  and  C_2
REMARK    2  A    between atoms: C_6  and  C_7
REMARK    3  A    between atoms: C_15  and  C_16
REMARK                            x       y       z     vdW  Elec       q    Type
REMARK                         _______ _______ _______ _____ _____    ______ ____
ROOT
ATOM      1  C   UNL     1       0.930   9.189  22.488  0.00  0.00    +0.000 C 
ATOM      2  C   UNL     1       0.371   9.944  21.306  0.00  0.00    +0.000 C 
ATOM      3  O   UNL     1      -0.490  10.811  21.452  0.00  0.00    +0.000 OA
ATOM      4  N   UNL     1       0.910   9.598  20.079  0.00  0.00    +0.000 N 
ATOM      5  N   UNL     1       1.731   8.513  19.927  0.00  0.00    +0.000 NA
ATOM      6  C   UNL     1       1.910   8.349  18.651  0.00  0.00    +0.000 C 
ATOM      7  C   UNL     1       1.216   9.352  17.765  0.00  0.00    +0.000 C 
ATOM      8  C   UNL     1       0.507  10.207  18.814  0.00  0.00    +0.000 C 
ENDROOT
BRANCH   8   9
ATOM      9  C   UNL     1       0.885  11.675  18.724  0.00  0.00    +0.000 A 
ATOM     10  C   UNL     1       2.235  12.076  18.559  0.00  0.00    +0.000 A 
ATOM     11  C   UNL     1       2.587  13.428  18.513  0.00  0.00    +0.000 A 
ATOM     12  C   UNL     1       1.579  14.357  18.643  0.00  0.00    +0.000 A 
ATOM     13  C   UNL     1       0.267  13.984  18.799  0.00  0.00    +0.000 A 
ATOM     14  C   UNL     1      -0.114  12.658  18.838  0.00  0.00    +0.000 A 
ATOM     15  O   UNL     1      -0.567  15.052  18.918  0.00  0.00    +0.000 OA
ATOM     16  C   UNL     1       0.382  16.137  18.891  0.00  0.00    +0.000 C 
ATOM     17  O   UNL     1       1.738  15.708  18.646  0.00  0.00    +0.000 OA
ENDBRANCH   8   9
BRANCH   6  18
ATOM     18  C   UNL     1       2.727   7.246  18.095  0.00  0.00    +0.000 A 
ATOM     19  C   UNL     1       3.902   7.561  17.395  0.00  0.00    +0.000 A 
ATOM     20  C   UNL     1       4.700   6.546  16.863  0.00  0.00    +0.000 A 
ATOM     21  C   UNL     1       4.323   5.215  17.031  0.00  0.00    +0.000 A 
ATOM     22 BR   UNL     1       5.400   3.838  16.312  0.00  0.00    +0.000 Br
ATOM     23  C   UNL     1       3.159   4.892  17.725  0.00  0.00    +0.000 A 
ATOM     24  C   UNL     1       2.359   5.908  18.259  0.00  0.00    +0.000 A 
ENDBRANCH   6  18
TORSDOF 2
ENDMDL
MODEL 7
REMARK VINA RESULT:      -7.5      1.339      2.002
REMARK  Name = 
REMARK  3 active torsions:
REMARK  status: ('A' for Active; 'I' for Inactive)
REMARK    1  A    between atoms: C_1  and  C_2
REMARK    2  A    between atoms: C_6  and  C_7
REMARK    3  A    between atoms: C_15  and  C_16
REMARK                            x       y       z     vdW  Elec       q    Type
REMARK                         _______ _______ _______ _____ _____    ______ ____
ROOT
ATOM      1  C   UNL     1       3.046   3.245  20.198  0.00  0.00    +0.000 C 
ATOM      2  C   UNL     1       4.196   3.882  19.457  0.00  0.00    +0.000 C 
ATOM      3  O   UNL     1       5.266   3.289  19.308  0.00  0.00    +0.000 OA
ATOM      4  N   UNL     1       3.947   5.148  18.959  0.00  0.00    +0.000 N 
ATOM      5  N   UNL     1       2.819   5.850  19.292  0.00  0.00    +0.000 NA
ATOM      6  C   UNL     1       2.969   7.052  18.825  0.00  0.00    +0.000 C 
ATOM      7  C   UNL     1       4.256   7.303  18.083  0.00  0.00    +0.000 C 
ATOM      8  C   UNL     1       4.925   5.937  18.215  0.00  0.00    +0.000 C 
ENDROOT
BRANCH   8   9
ATOM      9  C   UNL     1       5.271   5.323  16.870  0.00  0.00    +0.000 A 
ATOM     10  C   UNL     1       4.531   4.232  16.349  0.00  0.00    +0.000 A 
ATOM     11  C   UNL     1       4.874   3.643  15.128  0.00  0.00    +0.000 A 
ATOM     12  C   UNL     1       5.959   4.154  14.453  0.00  0.00    +0.000 A 
ATOM     13  C   UNL     1       6.684   5.213  14.943  0.00  0.00    +0.000 A 
ATOM     14  C   UNL     1       6.365   5.823  16.140  0.00  0.00    +0.000 A 
ATOM     15  O   UNL     1       7.719   5.556  14.130  0.00  0.00    +0.000 OA
ATOM     16  C   UNL     1       7.605   4.543  13.110  0.00  0.00    +0.000 C 
ATOM     17  O   UNL     1       6.449   3.694  13.270  0.00  0.00    +0.000 OA
ENDBRANCH   8   9
BRANCH   6  18
ATOM     18  C   UNL     1       1.954   8.115  19.016  0.00  0.00    +0.000 A 
ATOM     19  C   UNL     1       1.437   8.334  20.301  0.00  0.00    +0.000 A 
ATOM     20  C   UNL     1       0.484   9.331  20.519  0.00  0.00    +0.000 A 
ATOM     21  C   UNL     1       0.048  10.110  19.449  0.00  0.00    +0.000 A 
ATOM     22 BR   UNL     1      -1.242  11.461  19.738  0.00  0.00    +0.000 Br
ATOM     23  C   UNL     1       0.556   9.901  18.168  0.00  0.00    +0.000 A 
ATOM     24  C   UNL     1       1.510   8.903  17.950  0.00  0.00    +0.000 A 
ENDBRANCH   6  18
TORSDOF 2
ENDMDL
MODEL 8
REMARK VINA RESULT:      -7.4      1.161      1.769
REMARK  Name = 
REMARK  3 active torsions:
REMARK  status: ('A' for Active; 'I' for Inactive)
REMARK    1  A    between atoms: C_1  and  C_2
REMARK    2  A    between atoms: C_6  and  C_7
REMARK    3  A    between atoms: C_15  and  C_16
REMARK                            x       y       z     vdW  Elec       q    Type
REMARK                         _______ _______ _______ _____ _____    ______ ____
ROOT
ATOM      1  C   UNL     1       1.921   2.518  18.218  0.00  0.00    +0.000 C 
ATOM      2  C   UNL     1       3.329   3.001  17.969  0.00  0.00    +0.000 C 
ATOM      3  O   UNL     1       4.251   2.207  17.774  0.00  0.00    +0.000 OA
ATOM      4  N   UNL     1       3.488   4.375  17.962  0.00  0.00    +0.000 N 
ATOM      5  N   UNL     1       2.488   5.223  18.356  0.00  0.00    +0.000 NA
ATOM      6  C   UNL     1       3.003   6.414  18.416  0.00  0.00    +0.000 C 
ATOM      7  C   UNL     1       4.458   6.511  18.039  0.00  0.00    +0.000 C 
ATOM      8  C   UNL     1       4.767   5.045  17.741  0.00  0.00    +0.000 C 
ENDROOT
BRANCH   8   9
ATOM      9  C   UNL     1       5.304   4.835  16.336  0.00  0.00    +0.000 A 
ATOM     10  C   UNL     1       4.620   4.013  15.405  0.00  0.00    +0.000 A 
ATOM     11  C   UNL     1       5.134   3.790  14.124  0.00  0.00    +0.000 A 
ATOM     12  C   UNL     1       6.330   4.389  13.801  0.00  0.00    +0.000 A 
ATOM     13  C   UNL     1       7.002   5.191  14.691  0.00  0.00    +0.000 A 
ATOM     14  C   UNL     1       6.517   5.439  15.959  0.00  0.00    +0.000 A 
ATOM     15  O   UNL     1       8.166   5.676  14.179  0.00  0.00    +0.000 OA
ATOM     16  C   UNL     1       8.182   5.026  12.891  0.00  0.00    +0.000 C 
ATOM     17  O   UNL     1       6.988   4.265  12.616  0.00  0.00    +0.000 OA
ENDBRANCH   8   9
BRANCH   6  18
ATOM     18  C   UNL     1       2.222   7.601  18.837  0.00  0.00    +0.000 A 
ATOM     19  C   UNL     1       1.888   8.567  17.877  0.00  0.00    +0.000 A 
ATOM     20  C   UNL     1       1.147   9.695  18.238  0.00  0.00    +0.000 A 
ATOM     21  C   UNL     1       0.741   9.856  19.560  0.00  0.00    +0.000 A 
ATOM     22 BR   UNL     1      -0.261  11.381  20.053  0.00  0.00    +0.000 Br
ATOM     23  C   UNL     1       1.066   8.901  20.522  0.00  0.00    +0.000 A 
ATOM     24  C   UNL     1       1.807   7.772  20.161  0.00  0.00    +0.000 A 
ENDBRANCH   6  18
TORSDOF 2
ENDMDL
MODEL 9
REMARK VINA RESULT:      -7.4      5.937      9.440
REMARK  Name = 
REMARK  3 active torsions:
REMARK  status: ('A' for Active; 'I' for Inactive)
REMARK    1  A    between atoms: C_1  and  C_2
REMARK    2  A    between atoms: C_6  and  C_7
REMARK    3  A    between atoms: C_15  and  C_16
REMARK                            x       y       z     vdW  Elec       q    Type
REMARK                         _______ _______ _______ _____ _____    ______ ____
ROOT
ATOM      1  C   UNL     1       2.211  13.135  17.921  0.00  0.00    +0.000 C 
ATOM      2  C   UNL     1       0.952  12.730  18.648  0.00  0.00    +0.000 C 
ATOM      3  O   UNL     1       0.145  13.572  19.043  0.00  0.00    +0.000 OA
ATOM      4  N   UNL     1       0.780  11.368  18.812  0.00  0.00    +0.000 N 
ATOM      5  N   UNL     1       1.773  10.470  18.523  0.00  0.00    +0.000 NA
ATOM      6  C   UNL     1       1.376   9.312  18.956  0.00  0.00    +0.000 C 
ATOM      7  C   UNL     1       0.011   9.293  19.595  0.00  0.00    +0.000 C 
ATOM      8  C   UNL     1      -0.368  10.769  19.488  0.00  0.00    +0.000 C 
ENDROOT
BRANCH   8   9
ATOM      9  C   UNL     1      -1.669  10.984  18.736  0.00  0.00    +0.000 A 
ATOM     10  C   UNL     1      -1.829  10.530  17.402  0.00  0.00    +0.000 A 
ATOM     11  C   UNL     1      -3.014  10.762  16.697  0.00  0.00    +0.000 A 
ATOM     12  C   UNL     1      -4.017  11.453  17.339  0.00  0.00    +0.000 A 
ATOM     13  C   UNL     1      -3.877  11.896  18.632  0.00  0.00    +0.000 A 
ATOM     14  C   UNL     1      -2.725  11.674  19.358  0.00  0.00    +0.000 A 
ATOM     15  O   UNL     1      -4.977  12.563  19.074  0.00  0.00    +0.000 OA
ATOM     16  C   UNL     1      -5.793  12.552  17.885  0.00  0.00    +0.000 C 
ATOM     17  O   UNL     1      -5.221  11.789  16.803  0.00  0.00    +0.000 OA
ENDBRANCH   8   9
BRANCH   6  18
ATOM     18  C   UNL     1       2.206   8.090  18.844  0.00  0.00    +0.000 A 
ATOM     19  C   UNL     1       3.041   7.939  17.727  0.00  0.00    +0.000 A 
ATOM     20  C   UNL     1       3.841   6.803  17.592  0.00  0.00    +0.000 A 
ATOM     21  C   UNL     1       3.808   5.817  18.576  0.00  0.00    +0.000 A 
ATOM     22 BR   UNL     1       4.889   4.278  18.398  0.00  0.00    +0.000 Br
ATOM     23  C   UNL     1       2.983   5.958  19.691  0.00  0.00    +0.000 A 
ATOM     24  C   UNL     1       2.181   7.096  19.826  0.00  0.00    +0.000 A 
ENDBRANCH   6  18
TORSDOF 2
ENDMDL
