MODEL 1
REMARK VINA RESULT:      -8.6      0.000      0.000
REMARK  Name = 
REMARK  4 active torsions:
REMARK  status: ('A' for Active; 'I' for Inactive)
REMARK    1  A    between atoms: C_1  and  N_2
REMARK    2  A    between atoms: C_15  and  N_16
REMARK    3  A    between atoms: N_16  and  C_17
REMARK    4  A    between atoms: C_20  and  O_21
REMARK                            x       y       z     vdW  Elec       q    Type
REMARK                         _______ _______ _______ _____ _____    ______ ____
ROOT
ATOM      1  C   UNL     1       5.479   6.570  16.552  0.00  0.00    +0.000 C 
ATOM      2  N   UNL     1       4.678   6.106  17.673  0.00  0.00    +0.000 N 
ATOM      3  C   UNL     1       5.147   4.961  18.312  0.00  0.00    +0.000 C 
ATOM      4  O   UNL     1       6.331   4.642  18.380  0.00  0.00    +0.000 OA
ATOM      5  C   UNL     1       4.135   3.946  18.627  0.00  0.00    +0.000 A 
ATOM      6  C   UNL     1       4.307   2.679  18.051  0.00  0.00    +0.000 A 
ATOM      7  C   UNL     1       3.308   1.721  18.179  0.00  0.00    +0.000 A 
ATOM      8  C   UNL     1       2.152   2.027  18.894  0.00  0.00    +0.000 A 
ATOM      9  C   UNL     1       2.007   3.282  19.501  0.00  0.00    +0.000 A 
ATOM     10 CL   UNL     1       0.564   3.599  20.389  0.00  0.00    +0.000 Cl
ATOM     11  C   UNL     1       3.000   4.255  19.357  0.00  0.00    +0.000 A 
ATOM     12  O   UNL     1       2.911   5.447  20.025  0.00  0.00    +0.000 OA
ATOM     13  C   UNL     1       2.797   6.576  19.250  0.00  0.00    +0.000 A 
ATOM     14  C   UNL     1       1.876   7.508  19.745  0.00  0.00    +0.000 A 
ATOM     15  C   UNL     1       1.641   8.698  19.067  0.00  0.00    +0.000 A 
ATOM     16  N   UNL     1       2.272   8.975  17.919  0.00  0.00    +0.000 NA
ATOM     17  C   UNL     1       3.205   8.080  17.485  0.00  0.00    +0.000 A 
ATOM     18  C   UNL     1       3.550   6.879  18.112  0.00  0.00    +0.000 A 
ENDROOT
BRANCH  15  19
ATOM     19  N   UNL     1       0.795   9.628  19.677  0.00  0.00    +0.000 N 
ATOM     20  H   UNL     1       1.362  10.123  20.363  0.00  0.00    +0.000 HD
BRANCH  19  21
ATOM     21  C   UNL     1       0.024  10.554  18.840  0.00  0.00    +0.000 C 
ATOM     22  C   UNL     1      -0.905   9.753  17.909  0.00  0.00    +0.000 C 
ATOM     23  C   UNL     1      -1.985  10.608  17.251  0.00  0.00    +0.000 C 
ATOM     24  C   UNL     1      -2.790  11.377  18.292  0.00  0.00    +0.000 C 
ATOM     25  C   UNL     1      -1.875  12.262  19.129  0.00  0.00    +0.000 C 
ATOM     26  C   UNL     1      -0.791  11.440  19.810  0.00  0.00    +0.000 C 
BRANCH  24  27
ATOM     27  O   UNL     1      -3.779  12.174  17.651  0.00  0.00    +0.000 OA
ATOM     28  H   UNL     1      -3.610  13.105  17.866  0.00  0.00    +0.000 HD
ENDBRANCH  24  27
ENDBRANCH  19  21
ENDBRANCH  15  19
TORSDOF 3
ENDMDL
MODEL 2
REMARK VINA RESULT:      -8.5      0.419      1.070
REMARK  Name = 
REMARK  4 active torsions:
REMARK  status: ('A' for Active; 'I' for Inactive)
REMARK    1  A    between atoms: C_1  and  N_2
REMARK    2  A    between atoms: C_15  and  N_16
REMARK    3  A    between atoms: N_16  and  C_17
REMARK    4  A    between atoms: C_20  and  O_21
REMARK                            x       y       z     vdW  Elec       q    Type
REMARK                         _______ _______ _______ _____ _____    ______ ____
ROOT
ATOM      1  C   UNL     1       5.189   6.452  16.065  0.00  0.00    +0.000 C 
ATOM      2  N   UNL     1       4.508   6.051  17.286  0.00  0.00    +0.000 N 
ATOM      3  C   UNL     1       4.991   4.893  17.890  0.00  0.00    +0.000 C 
ATOM      4  O   UNL     1       6.156   4.512  17.822  0.00  0.00    +0.000 OA
ATOM      5  C   UNL     1       3.974   3.940  18.348  0.00  0.00    +0.000 A 
ATOM      6  C   UNL     1       4.008   2.656  17.785  0.00  0.00    +0.000 A 
ATOM      7  C   UNL     1       2.985   1.756  18.055  0.00  0.00    +0.000 A 
ATOM      8  C   UNL     1       1.941   2.136  18.898  0.00  0.00    +0.000 A 
ATOM      9  C   UNL     1       1.937   3.407  19.488  0.00  0.00    +0.000 A 
ATOM     10 CL   UNL     1       0.631   3.817  20.537  0.00  0.00    +0.000 Cl
ATOM     11  C   UNL     1       2.953   4.323  19.202  0.00  0.00    +0.000 A 
ATOM     12  O   UNL     1       3.008   5.529  19.848  0.00  0.00    +0.000 OA
ATOM     13  C   UNL     1       2.859   6.649  19.067  0.00  0.00    +0.000 A 
ATOM     14  C   UNL     1       2.055   7.637  19.647  0.00  0.00    +0.000 A 
ATOM     15  C   UNL     1       1.801   8.827  18.975  0.00  0.00    +0.000 A 
ATOM     16  N   UNL     1       2.301   9.051  17.754  0.00  0.00    +0.000 NA
ATOM     17  C   UNL     1       3.127   8.099  17.231  0.00  0.00    +0.000 A 
ATOM     18  C   UNL     1       3.483   6.892  17.840  0.00  0.00    +0.000 A 
ENDROOT
BRANCH  15  19
ATOM     19  N   UNL     1       1.085   9.812  19.661  0.00  0.00    +0.000 N 
ATOM     20  H   UNL     1       1.598  10.682  19.529  0.00  0.00    +0.000 HD
BRANCH  19  21
ATOM     21  C   UNL     1      -0.347   9.979  19.390  0.00  0.00    +0.000 C 
ATOM     22  C   UNL     1      -0.785  11.398  19.797  0.00  0.00    +0.000 C 
ATOM     23  C   UNL     1      -2.154  11.789  19.246  0.00  0.00    +0.000 C 
ATOM     24  C   UNL     1      -2.211  11.615  17.733  0.00  0.00    +0.000 C 
ATOM     25  C   UNL     1      -1.896  10.175  17.348  0.00  0.00    +0.000 C 
ATOM     26  C   UNL     1      -0.530   9.754  17.871  0.00  0.00    +0.000 C 
BRANCH  24  27
ATOM     27  O   UNL     1      -3.499  11.974  17.250  0.00  0.00    +0.000 OA
ATOM     28  H   UNL     1      -3.467  12.893  16.940  0.00  0.00    +0.000 HD
ENDBRANCH  24  27
ENDBRANCH  19  21
ENDBRANCH  15  19
TORSDOF 3
ENDMDL
MODEL 3
REMARK VINA RESULT:      -8.5      0.875      1.016
REMARK  Name = 
REMARK  4 active torsions:
REMARK  status: ('A' for Active; 'I' for Inactive)
REMARK    1  A    between atoms: C_1  and  N_2
REMARK    2  A    between atoms: C_15  and  N_16
REMARK    3  A    between atoms: N_16  and  C_17
REMARK    4  A    between atoms: C_20  and  O_21
REMARK                            x       y       z     vdW  Elec       q    Type
REMARK                         _______ _______ _______ _____ _____    ______ ____
ROOT
ATOM      1  C   UNL     1       4.881   6.789  16.283  0.00  0.00    +0.000 C 
ATOM      2  N   UNL     1       4.331   6.225  17.505  0.00  0.00    +0.000 N 
ATOM      3  C   UNL     1       4.953   5.068  17.965  0.00  0.00    +0.000 C 
ATOM      4  O   UNL     1       6.138   4.800  17.782  0.00  0.00    +0.000 OA
ATOM      5  C   UNL     1       4.058   3.992  18.403  0.00  0.00    +0.000 A 
ATOM      6  C   UNL     1       4.155   2.769  17.723  0.00  0.00    +0.000 A 
ATOM      7  C   UNL     1       3.233   1.761  17.978  0.00  0.00    +0.000 A 
ATOM      8  C   UNL     1       2.229   1.972  18.922  0.00  0.00    +0.000 A 
ATOM      9  C   UNL     1       2.165   3.183  19.625  0.00  0.00    +0.000 A 
ATOM     10 CL   UNL     1       0.913   3.382  20.795  0.00  0.00    +0.000 Cl
ATOM     11  C   UNL     1       3.077   4.207  19.356  0.00  0.00    +0.000 A 
ATOM     12  O   UNL     1       3.081   5.353  20.105  0.00  0.00    +0.000 OA
ATOM     13  C   UNL     1       2.779   6.518  19.443  0.00  0.00    +0.000 A 
ATOM     14  C   UNL     1       1.942   7.377  20.165  0.00  0.00    +0.000 A 
ATOM     15  C   UNL     1       1.540   8.592  19.625  0.00  0.00    +0.000 A 
ATOM     16  N   UNL     1       1.925   8.964  18.397  0.00  0.00    +0.000 NA
ATOM     17  C   UNL     1       2.785   8.138  17.733  0.00  0.00    +0.000 A 
ATOM     18  C   UNL     1       3.285   6.920  18.203  0.00  0.00    +0.000 A 
ENDROOT
BRANCH  15  19
ATOM     19  N   UNL     1       0.799   9.447  20.446  0.00  0.00    +0.000 N 
ATOM     20  H   UNL     1       1.390   9.656  21.248  0.00  0.00    +0.000 HD
BRANCH  19  21
ATOM     21  C   UNL     1       0.211  10.661  19.873  0.00  0.00    +0.000 C 
ATOM     22  C   UNL     1      -1.100  10.305  19.146  0.00  0.00    +0.000 C 
ATOM     23  C   UNL     1      -1.959  11.523  18.816  0.00  0.00    +0.000 C 
ATOM     24  C   UNL     1      -2.237  12.356  20.061  0.00  0.00    +0.000 C 
ATOM     25  C   UNL     1      -0.932  12.809  20.704  0.00  0.00    +0.000 C 
ATOM     26  C   UNL     1      -0.053  11.617  21.058  0.00  0.00    +0.000 C 
BRANCH  24  27
ATOM     27  O   UNL     1      -3.026  13.489  19.722  0.00  0.00    +0.000 OA
ATOM     28  H   UNL     1      -3.301  13.930  20.542  0.00  0.00    +0.000 HD
ENDBRANCH  24  27
ENDBRANCH  19  21
ENDBRANCH  15  19
TORSDOF 3
ENDMDL
MODEL 4
REMARK VINA RESULT:      -8.4      1.184      1.423
REMARK  Name = 
REMARK  4 active torsions:
REMARK  status: ('A' for Active; 'I' for Inactive)
REMARK    1  A    between atoms: C_1  and  N_2
REMARK    2  A    between atoms: C_15  and  N_16
REMARK    3  A    between atoms: N_16  and  C_17
REMARK    4  A    between atoms: C_20  and  O_21
REMARK                            x       y       z     vdW  Elec       q    Type
REMARK                         _______ _______ _______ _____ _____    ______ ____
ROOT
ATOM      1  C   UNL     1       5.667   6.246  16.642  0.00  0.00    +0.000 C 
ATOM      2  N   UNL     1       4.833   5.850  17.765  0.00  0.00    +0.000 N 
ATOM      3  C   UNL     1       5.260   4.723  18.462  0.00  0.00    +0.000 C 
ATOM      4  O   UNL     1       6.434   4.379  18.569  0.00  0.00    +0.000 OA
ATOM      5  C   UNL     1       4.218   3.747  18.799  0.00  0.00    +0.000 A 
ATOM      6  C   UNL     1       4.370   2.452  18.281  0.00  0.00    +0.000 A 
ATOM      7  C   UNL     1       3.346   1.525  18.428  0.00  0.00    +0.000 A 
ATOM      8  C   UNL     1       2.183   1.889  19.105  0.00  0.00    +0.000 A 
ATOM      9  C   UNL     1       2.057   3.172  19.655  0.00  0.00    +0.000 A 
ATOM     10 CL   UNL     1       0.604   3.562  20.498  0.00  0.00    +0.000 Cl
ATOM     11  C   UNL     1       3.076   4.115  19.490  0.00  0.00    +0.000 A 
ATOM     12  O   UNL     1       3.003   5.336  20.105  0.00  0.00    +0.000 OA
ATOM     13  C   UNL     1       2.932   6.433  19.280  0.00  0.00    +0.000 A 
ATOM     14  C   UNL     1       2.025   7.406  19.715  0.00  0.00    +0.000 A 
ATOM     15  C   UNL     1       1.833   8.571  18.982  0.00  0.00    +0.000 A 
ATOM     16  N   UNL     1       2.494   8.784  17.837  0.00  0.00    +0.000 NA
ATOM     17  C   UNL     1       3.413   7.849  17.461  0.00  0.00    +0.000 A 
ATOM     18  C   UNL     1       3.716   6.668  18.147  0.00  0.00    +0.000 A 
ENDROOT
BRANCH  15  19
ATOM     19  N   UNL     1       0.998   9.547  19.534  0.00  0.00    +0.000 N 
ATOM     20  H   UNL     1       1.390   9.776  20.446  0.00  0.00    +0.000 HD
BRANCH  19  21
ATOM     21  C   UNL     1       0.691  10.752  18.756  0.00  0.00    +0.000 C 
ATOM     22  C   UNL     1      -0.822  11.033  18.820  0.00  0.00    +0.000 C 
ATOM     23  C   UNL     1      -1.197  12.433  18.341  0.00  0.00    +0.000 C 
ATOM     24  C   UNL     1      -0.413  13.502  19.093  0.00  0.00    +0.000 C 
ATOM     25  C   UNL     1       1.085  13.287  18.923  0.00  0.00    +0.000 C 
ATOM     26  C   UNL     1       1.498  11.902  19.401  0.00  0.00    +0.000 C 
BRANCH  24  27
ATOM     27  O   UNL     1      -0.773  14.794  18.619  0.00  0.00    +0.000 OA
ATOM     28  H   UNL     1      -0.175  15.032  17.892  0.00  0.00    +0.000 HD
ENDBRANCH  24  27
ENDBRANCH  19  21
ENDBRANCH  15  19
TORSDOF 3
ENDMDL
MODEL 5
REMARK VINA RESULT:      -8.3      2.543      8.551
REMARK  Name = 
REMARK  4 active torsions:
REMARK  status: ('A' for Active; 'I' for Inactive)
REMARK    1  A    between atoms: C_1  and  N_2
REMARK    2  A    between atoms: C_15  and  N_16
REMARK    3  A    between atoms: N_16  and  C_17
REMARK    4  A    between atoms: C_20  and  O_21
REMARK                            x       y       z     vdW  Elec       q    Type
REMARK                         _______ _______ _______ _____ _____    ______ ____
ROOT
ATOM      1  C   UNL     1      -0.634  10.905  22.654  0.00  0.00    +0.000 C 
ATOM      2  N   UNL     1      -0.710  11.106  21.216  0.00  0.00    +0.000 N 
ATOM      3  C   UNL     1      -1.395  12.247  20.805  0.00  0.00    +0.000 C 
ATOM      4  O   UNL     1      -1.464  13.285  21.458  0.00  0.00    +0.000 OA
ATOM      5  C   UNL     1      -2.334  12.062  19.694  0.00  0.00    +0.000 A 
ATOM      6  C   UNL     1      -3.681  12.363  19.944  0.00  0.00    +0.000 A 
ATOM      7  C   UNL     1      -4.645  12.063  18.989  0.00  0.00    +0.000 A 
ATOM      8  C   UNL     1      -4.258  11.480  17.783  0.00  0.00    +0.000 A 
ATOM      9  C   UNL     1      -2.905  11.220  17.526  0.00  0.00    +0.000 A 
ATOM     10 CL   UNL     1      -2.482  10.515  16.010  0.00  0.00    +0.000 Cl
ATOM     11  C   UNL     1      -1.935  11.501  18.492  0.00  0.00    +0.000 A 
ATOM     12  O   UNL     1      -0.604  11.341  18.213  0.00  0.00    +0.000 OA
ATOM     13  C   UNL     1       0.066  10.394  18.950  0.00  0.00    +0.000 A 
ATOM     14  C   UNL     1       0.959   9.623  18.196  0.00  0.00    +0.000 A 
ATOM     15  C   UNL     1       1.706   8.617  18.797  0.00  0.00    +0.000 A 
ATOM     16  N   UNL     1       1.578   8.348  20.103  0.00  0.00    +0.000 NA
ATOM     17  C   UNL     1       0.744   9.148  20.829  0.00  0.00    +0.000 A 
ATOM     18  C   UNL     1      -0.015  10.212  20.333  0.00  0.00    +0.000 A 
ENDROOT
BRANCH  15  19
ATOM     19  N   UNL     1       2.658   7.964  18.009  0.00  0.00    +0.000 N 
ATOM     20  H   UNL     1       3.431   8.617  17.895  0.00  0.00    +0.000 HD
BRANCH  19  21
ATOM     21  C   UNL     1       3.125   6.632  18.404  0.00  0.00    +0.000 C 
ATOM     22  C   UNL     1       2.124   5.569  17.913  0.00  0.00    +0.000 C 
ATOM     23  C   UNL     1       2.677   4.147  17.966  0.00  0.00    +0.000 C 
ATOM     24  C   UNL     1       3.997   4.040  17.212  0.00  0.00    +0.000 C 
ATOM     25  C   UNL     1       5.022   5.011  17.786  0.00  0.00    +0.000 C 
ATOM     26  C   UNL     1       4.508   6.442  17.738  0.00  0.00    +0.000 C 
BRANCH  24  27
ATOM     27  O   UNL     1       4.495   2.710  17.288  0.00  0.00    +0.000 OA
ATOM     28  H   UNL     1       4.036   2.252  18.011  0.00  0.00    +0.000 HD
ENDBRANCH  24  27
ENDBRANCH  19  21
ENDBRANCH  15  19
TORSDOF 3
ENDMDL
MODEL 6
REMARK VINA RESULT:      -8.0      1.917      2.182
REMARK  Name = 
REMARK  4 active torsions:
REMARK  status: ('A' for Active; 'I' for Inactive)
REMARK    1  A    between atoms: C_1  and  N_2
REMARK    2  A    between atoms: C_15  and  N_16
REMARK    3  A    between atoms: N_16  and  C_17
REMARK    4  A    between atoms: C_20  and  O_21
REMARK                            x       y       z     vdW  Elec       q    Type
REMARK                         _______ _______ _______ _____ _____    ______ ____
ROOT
ATOM      1  C   UNL     1       5.973   6.336  17.049  0.00  0.00    +0.000 C 
ATOM      2  N   UNL     1       4.981   5.984  18.052  0.00  0.00    +0.000 N 
ATOM      3  C   UNL     1       5.328   4.933  18.896  0.00  0.00    +0.000 C 
ATOM      4  O   UNL     1       6.480   4.653  19.216  0.00  0.00    +0.000 OA
ATOM      5  C   UNL     1       4.279   3.936  19.139  0.00  0.00    +0.000 A 
ATOM      6  C   UNL     1       4.558   2.615  18.756  0.00  0.00    +0.000 A 
ATOM      7  C   UNL     1       3.556   1.654  18.811  0.00  0.00    +0.000 A 
ATOM      8  C   UNL     1       2.287   2.011  19.263  0.00  0.00    +0.000 A 
ATOM      9  C   UNL     1       2.029   3.324  19.681  0.00  0.00    +0.000 A 
ATOM     10 CL   UNL     1       0.445   3.705  20.248  0.00  0.00    +0.000 Cl
ATOM     11  C   UNL     1       3.028   4.299  19.607  0.00  0.00    +0.000 A 
ATOM     12  O   UNL     1       2.814   5.557  20.103  0.00  0.00    +0.000 OA
ATOM     13  C   UNL     1       2.840   6.586  19.193  0.00  0.00    +0.000 A 
ATOM     14  C   UNL     1       1.840   7.545  19.399  0.00  0.00    +0.000 A 
ATOM     15  C   UNL     1       1.731   8.643  18.554  0.00  0.00    +0.000 A 
ATOM     16  N   UNL     1       2.561   8.803  17.516  0.00  0.00    +0.000 NA
ATOM     17  C   UNL     1       3.562   7.886  17.368  0.00  0.00    +0.000 A 
ATOM     18  C   UNL     1       3.789   6.775  18.184  0.00  0.00    +0.000 A 
ENDROOT
BRANCH  15  19
ATOM     19  N   UNL     1       0.784   9.616  18.886  0.00  0.00    +0.000 N 
ATOM     20  H   UNL     1      -0.129   9.182  18.758  0.00  0.00    +0.000 HD
BRANCH  19  21
ATOM     21  C   UNL     1       0.883  10.304  20.177  0.00  0.00    +0.000 C 
ATOM     22  C   UNL     1       0.606  11.807  19.981  0.00  0.00    +0.000 C 
ATOM     23  C   UNL     1       0.346  12.549  21.289  0.00  0.00    +0.000 C 
ATOM     24  C   UNL     1      -0.774  11.888  22.085  0.00  0.00    +0.000 C 
ATOM     25  C   UNL     1      -0.434  10.433  22.380  0.00  0.00    +0.000 C 
ATOM     26  C   UNL     1      -0.179   9.658  21.096  0.00  0.00    +0.000 C 
BRANCH  24  27
ATOM     27  O   UNL     1      -0.985  12.592  23.303  0.00  0.00    +0.000 OA
ATOM     28  H   UNL     1      -0.525  13.445  23.249  0.00  0.00    +0.000 HD
ENDBRANCH  24  27
ENDBRANCH  19  21
ENDBRANCH  15  19
TORSDOF 3
ENDMDL
MODEL 7
REMARK VINA RESULT:      -8.0      2.643      8.448
REMARK  Name = 
REMARK  4 active torsions:
REMARK  status: ('A' for Active; 'I' for Inactive)
REMARK    1  A    between atoms: C_1  and  N_2
REMARK    2  A    between atoms: C_15  and  N_16
REMARK    3  A    between atoms: N_16  and  C_17
REMARK    4  A    between atoms: C_20  and  O_21
REMARK                            x       y       z     vdW  Elec       q    Type
REMARK                         _______ _______ _______ _____ _____    ______ ____
ROOT
ATOM      1  C   UNL     1      -1.127  11.446  23.130  0.00  0.00    +0.000 C 
ATOM      2  N   UNL     1      -0.955  11.295  21.694  0.00  0.00    +0.000 N 
ATOM      3  C   UNL     1      -1.430  12.349  20.918  0.00  0.00    +0.000 C 
ATOM      4  O   UNL     1      -1.477  13.518  21.294  0.00  0.00    +0.000 OA
ATOM      5  C   UNL     1      -2.199  11.971  19.728  0.00  0.00    +0.000 A 
ATOM      6  C   UNL     1      -3.524  12.425  19.658  0.00  0.00    +0.000 A 
ATOM      7  C   UNL     1      -4.356  11.975  18.640  0.00  0.00    +0.000 A 
ATOM      8  C   UNL     1      -3.856  11.088  17.687  0.00  0.00    +0.000 A 
ATOM      9  C   UNL     1      -2.519  10.671  17.743  0.00  0.00    +0.000 A 
ATOM     10 CL   UNL     1      -1.950   9.587  16.529  0.00  0.00    +0.000 Cl
ATOM     11  C   UNL     1      -1.686  11.104  18.778  0.00  0.00    +0.000 A 
ATOM     12  O   UNL     1      -0.355  10.780  18.785  0.00  0.00    +0.000 OA
ATOM     13  C   UNL     1       0.077   9.994  19.826  0.00  0.00    +0.000 A 
ATOM     14  C   UNL     1       0.981   8.996  19.440  0.00  0.00    +0.000 A 
ATOM     15  C   UNL     1       1.502   8.114  20.378  0.00  0.00    +0.000 A 
ATOM     16  N   UNL     1       1.142   8.182  21.666  0.00  0.00    +0.000 NA
ATOM     17  C   UNL     1       0.304   9.196  22.029  0.00  0.00    +0.000 A 
ATOM     18  C   UNL     1      -0.239  10.161  21.177  0.00  0.00    +0.000 A 
ENDROOT
BRANCH  15  19
ATOM     19  N   UNL     1       2.482   7.218  19.943  0.00  0.00    +0.000 N 
ATOM     20  H   UNL     1       3.031   6.973  20.765  0.00  0.00    +0.000 HD
BRANCH  19  21
ATOM     21  C   UNL     1       2.083   6.030  19.182  0.00  0.00    +0.000 C 
ATOM     22  C   UNL     1       3.274   5.532  18.341  0.00  0.00    +0.000 C 
ATOM     23  C   UNL     1       3.076   4.124  17.787  0.00  0.00    +0.000 C 
ATOM     24  C   UNL     1       2.745   3.135  18.899  0.00  0.00    +0.000 C 
ATOM     25  C   UNL     1       1.492   3.572  19.647  0.00  0.00    +0.000 C 
ATOM     26  C   UNL     1       1.657   4.970  20.224  0.00  0.00    +0.000 C 
BRANCH  24  27
ATOM     27  O   UNL     1       2.554   1.836  18.353  0.00  0.00    +0.000 OA
ATOM     28  H   UNL     1       2.048   1.306  18.990  0.00  0.00    +0.000 HD
ENDBRANCH  24  27
ENDBRANCH  19  21
ENDBRANCH  15  19
TORSDOF 3
ENDMDL
MODEL 8
REMARK VINA RESULT:      -7.8      1.145      1.532
REMARK  Name = 
REMARK  4 active torsions:
REMARK  status: ('A' for Active; 'I' for Inactive)
REMARK    1  A    between atoms: C_1  and  N_2
REMARK    2  A    between atoms: C_15  and  N_16
REMARK    3  A    between atoms: N_16  and  C_17
REMARK    4  A    between atoms: C_20  and  O_21
REMARK                            x       y       z     vdW  Elec       q    Type
REMARK                         _______ _______ _______ _____ _____    ______ ____
ROOT
ATOM      1  C   UNL     1       4.603   6.928  16.530  0.00  0.00    +0.000 C 
ATOM      2  N   UNL     1       4.128   6.257  17.729  0.00  0.00    +0.000 N 
ATOM      3  C   UNL     1       4.788   5.076  18.058  0.00  0.00    +0.000 C 
ATOM      4  O   UNL     1       5.964   4.843  17.790  0.00  0.00    +0.000 OA
ATOM      5  C   UNL     1       3.931   3.953  18.453  0.00  0.00    +0.000 A 
ATOM      6  C   UNL     1       4.005   2.792  17.670  0.00  0.00    +0.000 A 
ATOM      7  C   UNL     1       3.111   1.752  17.890  0.00  0.00    +0.000 A 
ATOM      8  C   UNL     1       2.158   1.868  18.901  0.00  0.00    +0.000 A 
ATOM      9  C   UNL     1       2.118   3.016  19.705  0.00  0.00    +0.000 A 
ATOM     10 CL   UNL     1       0.930   3.099  20.953  0.00  0.00    +0.000 Cl
ATOM     11  C   UNL     1       3.001   4.074  19.472  0.00  0.00    +0.000 A 
ATOM     12  O   UNL     1       3.033   5.155  20.312  0.00  0.00    +0.000 OA
ATOM     13  C   UNL     1       2.682   6.365  19.765  0.00  0.00    +0.000 A 
ATOM     14  C   UNL     1       1.876   7.148  20.601  0.00  0.00    +0.000 A 
ATOM     15  C   UNL     1       1.430   8.397  20.185  0.00  0.00    +0.000 A 
ATOM     16  N   UNL     1       1.743   8.874  18.974  0.00  0.00    +0.000 NA
ATOM     17  C   UNL     1       2.574   8.119  18.198  0.00  0.00    +0.000 A 
ATOM     18  C   UNL     1       3.114   6.875  18.538  0.00  0.00    +0.000 A 
ENDROOT
BRANCH  15  19
ATOM     19  N   UNL     1       0.726   9.169  21.113  0.00  0.00    +0.000 N 
ATOM     20  H   UNL     1       1.397   9.435  21.831  0.00  0.00    +0.000 HD
BRANCH  19  21
ATOM     21  C   UNL     1      -0.054  10.319  20.645  0.00  0.00    +0.000 C 
ATOM     22  C   UNL     1       0.891  11.502  20.365  0.00  0.00    +0.000 C 
ATOM     23  C   UNL     1       0.238  12.621  19.558  0.00  0.00    +0.000 C 
ATOM     24  C   UNL     1      -0.364  12.088  18.263  0.00  0.00    +0.000 C 
ATOM     25  C   UNL     1      -1.390  11.001  18.557  0.00  0.00    +0.000 C 
ATOM     26  C   UNL     1      -0.770   9.862  19.353  0.00  0.00    +0.000 C 
BRANCH  24  27
ATOM     27  O   UNL     1      -0.976  13.147  17.539  0.00  0.00    +0.000 OA
ATOM     28  H   UNL     1      -1.226  12.816  16.661  0.00  0.00    +0.000 HD
ENDBRANCH  24  27
ENDBRANCH  19  21
ENDBRANCH  15  19
TORSDOF 3
ENDMDL
MODEL 9
REMARK VINA RESULT:      -7.8      2.876      8.326
REMARK  Name = 
REMARK  4 active torsions:
REMARK  status: ('A' for Active; 'I' for Inactive)
REMARK    1  A    between atoms: C_1  and  N_2
REMARK    2  A    between atoms: C_15  and  N_16
REMARK    3  A    between atoms: N_16  and  C_17
REMARK    4  A    between atoms: C_20  and  O_21
REMARK                            x       y       z     vdW  Elec       q    Type
REMARK                         _______ _______ _______ _____ _____    ______ ____
ROOT
ATOM      1  C   UNL     1       0.908   9.756  22.836  0.00  0.00    +0.000 C 
ATOM      2  N   UNL     1       0.735  10.055  21.423  0.00  0.00    +0.000 N 
ATOM      3  C   UNL     1       0.295  11.343  21.132  0.00  0.00    +0.000 C 
ATOM      4  O   UNL     1       0.536  12.329  21.824  0.00  0.00    +0.000 OA
ATOM      5  C   UNL     1      -0.768  11.443  20.127  0.00  0.00    +0.000 A 
ATOM      6  C   UNL     1      -1.976  12.026  20.537  0.00  0.00    +0.000 A 
ATOM      7  C   UNL     1      -3.075  12.011  19.686  0.00  0.00    +0.000 A 
ATOM      8  C   UNL     1      -2.958  11.428  18.425  0.00  0.00    +0.000 A 
ATOM      9  C   UNL     1      -1.735  10.884  18.009  0.00  0.00    +0.000 A 
ATOM     10 CL   UNL     1      -1.642  10.193  16.431  0.00  0.00    +0.000 Cl
ATOM     11  C   UNL     1      -0.634  10.879  18.870  0.00  0.00    +0.000 A 
ATOM     12  O   UNL     1       0.589  10.438  18.437  0.00  0.00    +0.000 OA
ATOM     13  C   UNL     1       1.093   9.322  19.060  0.00  0.00    +0.000 A 
ATOM     14  C   UNL     1       1.701   8.415  18.185  0.00  0.00    +0.000 A 
ATOM     15  C   UNL     1       2.251   7.232  18.663  0.00  0.00    +0.000 A 
ATOM     16  N   UNL     1       2.197   6.921  19.964  0.00  0.00    +0.000 NA
ATOM     17  C   UNL     1       1.649   7.844  20.807  0.00  0.00    +0.000 A 
ATOM     18  C   UNL     1       1.111   9.080  20.437  0.00  0.00    +0.000 A 
ENDROOT
BRANCH  15  19
ATOM     19  N   UNL     1       2.941   6.429  17.750  0.00  0.00    +0.000 N 
ATOM     20  H   UNL     1       2.593   6.682  16.827  0.00  0.00    +0.000 HD
BRANCH  19  21
ATOM     21  C   UNL     1       4.406   6.395  17.788  0.00  0.00    +0.000 C 
ATOM     22  C   UNL     1       4.870   5.390  18.860  0.00  0.00    +0.000 C 
ATOM     23  C   UNL     1       6.348   5.026  18.748  0.00  0.00    +0.000 C 
ATOM     24  C   UNL     1       6.688   4.524  17.349  0.00  0.00    +0.000 C 
ATOM     25  C   UNL     1       6.339   5.576  16.304  0.00  0.00    +0.000 C 
ATOM     26  C   UNL     1       4.867   5.957  16.379  0.00  0.00    +0.000 C 
BRANCH  24  27
ATOM     27  O   UNL     1       8.071   4.205  17.270  0.00  0.00    +0.000 OA
ATOM     28  H   UNL     1       8.532   4.940  16.834  0.00  0.00    +0.000 HD
ENDBRANCH  24  27
ENDBRANCH  19  21
ENDBRANCH  15  19
TORSDOF 3
ENDMDL
