MODEL 1
REMARK VINA RESULT:      -7.4      0.000      0.000
REMARK  Name = 
REMARK  16 active torsions:
REMARK  status: ('A' for Active; 'I' for Inactive)
REMARK    1  A    between atoms: C_1  and  C_2
REMARK    2  A    between atoms: C_2  and  C_3
REMARK    3  A    between atoms: C_2  and  C_4
REMARK    4  A    between atoms: C_4  and  C_5
REMARK    5  A    between atoms: N_8  and  C_9
REMARK    6  A    between atoms: C_9  and  C_10
REMARK    7  A    between atoms: C_9  and  C_14
REMARK    8  A    between atoms: C_10  and  C_11
REMARK    9  A    between atoms: C_11  and  C_12
REMARK   10  A    between atoms: C_11  and  C_13
REMARK   11  A    between atoms: N_16  and  CA_17
REMARK   12  A    between atoms: CA_17  and  CB_18
REMARK   13  A    between atoms: CA_17  and  C_19
REMARK   14  A    between atoms: C_19  and  OXT_21
REMARK   15  A    between atoms: C_24  and  C_25
REMARK   16  A    between atoms: C_28  and  O_29
REMARK                            x       y       z     vdW  Elec       q    Type
REMARK                         _______ _______ _______ _____ _____    ______ ____
ROOT
ATOM      1  C   UNK A   0       4.805   4.257  17.007  0.00  0.00    +0.000 C 
ATOM      2  C   UNK A   0       3.344   4.360  17.401  0.00  0.00    +0.000 C 
ATOM      3  O   UNK A   0       2.447   3.775  16.825  0.00  0.00    +0.000 OA
ATOM      4  N   UNK A   0       3.229   5.112  18.522  0.00  0.00    +0.000 N 
ATOM      5  C   UNK A   0       4.402   5.079  19.214  0.00  0.00    +0.000 C 
ATOM      6  O   UNK A   0       4.526   5.257  20.420  0.00  0.00    +0.000 OA
ATOM      7  C   UNK A   0       5.559   4.767  18.262  0.00  0.00    +0.000 C 
ENDROOT
BRANCH   7   8
ATOM      8  C   UNK A   0       6.534   5.926  18.088  0.00  0.00    +0.000 A 
ATOM      9  C   UNK A   0       7.716   6.023  18.841  0.00  0.00    +0.000 A 
ATOM     10  C   UNK A   0       8.508   7.170  18.807  0.00  0.00    +0.000 A 
ATOM     11  C   UNK A   0       8.131   8.232  17.998  0.00  0.00    +0.000 A 
ATOM     12  C   UNK A   0       7.040   8.121  17.152  0.00  0.00    +0.000 A 
ATOM     13  C   UNK A   0       6.262   6.958  17.165  0.00  0.00    +0.000 A 
BRANCH  11  14
ATOM     14  O   UNK A   0       8.810   9.414  18.030  0.00  0.00    +0.000 OA
ATOM     15  H   UNK A   0       8.647   9.835  18.891  0.00  0.00    +0.000 HD
ENDBRANCH  11  14
ENDBRANCH   7   8
BRANCH   1  16
ATOM     16  C   UNK A   0       5.032   4.801  15.577  0.00  0.00    +0.000 C 
BRANCH  16  18
ATOM     17  C   UNK A   0       5.368   3.766  13.286  0.00  0.00    +0.000 C 
ATOM     18  C   UNK A   0       6.045   4.134  14.611  0.00  0.00    +0.000 C 
ATOM     19  C   UNK A   0       7.260   4.971  14.281  0.00  0.00    +0.000 C 
ENDBRANCH  16  18
ENDBRANCH   1  16
BRANCH   4  20
ATOM     20  C   UNK A   0       1.979   5.633  19.119  0.00  0.00    +0.000 C 
BRANCH  20  21
ATOM     21  C   UNK A   0       1.883   7.140  19.388  0.00  0.00    +0.000 C 
ATOM     22  O   UNK A   0       2.066   7.966  18.484  0.00  0.00    +0.000 OA
ATOM     23  N   ALA A   1       1.516   7.539  20.641  0.00  0.00    +0.000 N 
ATOM     24  H   ALA A   1       1.408   6.856  21.387  0.00  0.00    +0.000 HD
BRANCH  23  25
ATOM     25  CA  ALA A   1       1.145   8.916  20.940  0.00  0.00    +0.000 C 
ATOM     26  CB  ALA A   1      -0.259   9.228  20.436  0.00  0.00    +0.000 C 
BRANCH  25  27
ATOM     27  C   ALA A   1       1.208   9.121  22.456  0.00  0.00    +0.000 C 
ATOM     28  O   ALA A   1       0.217   9.203  23.175  0.00  0.00    +0.000 OA
BRANCH  27  29
ATOM     29  OXT ALA A   1       2.462   9.223  22.935  0.00  0.00    +0.000 OA
ATOM     30  HXT ALA A   1       3.097   9.653  22.322  0.00  0.00    +0.000 HD
ENDBRANCH  27  29
ENDBRANCH  25  27
ENDBRANCH  23  25
ENDBRANCH  20  21
BRANCH  20  31
ATOM     31  C   UNK A   0       1.410   4.808  20.322  0.00  0.00    +0.000 C 
BRANCH  31  32
ATOM     32  C   UNK A   0       1.570   3.269  20.353  0.00  0.00    +0.000 C 
ATOM     33  C   UNK A   0       1.427   2.622  21.720  0.00  0.00    +0.000 C 
ATOM     34  C   UNK A   0       0.584   2.592  19.395  0.00  0.00    +0.000 C 
ENDBRANCH  31  32
ENDBRANCH  20  31
ENDBRANCH   4  20
TORSDOF 11
ENDMDL
MODEL 2
REMARK VINA RESULT:      -7.4      2.520      7.345
REMARK  Name = 
REMARK  16 active torsions:
REMARK  status: ('A' for Active; 'I' for Inactive)
REMARK    1  A    between atoms: C_1  and  C_2
REMARK    2  A    between atoms: C_2  and  C_3
REMARK    3  A    between atoms: C_2  and  C_4
REMARK    4  A    between atoms: C_4  and  C_5
REMARK    5  A    between atoms: N_8  and  C_9
REMARK    6  A    between atoms: C_9  and  C_10
REMARK    7  A    between atoms: C_9  and  C_14
REMARK    8  A    between atoms: C_10  and  C_11
REMARK    9  A    between atoms: C_11  and  C_12
REMARK   10  A    between atoms: C_11  and  C_13
REMARK   11  A    between atoms: N_16  and  CA_17
REMARK   12  A    between atoms: CA_17  and  CB_18
REMARK   13  A    between atoms: CA_17  and  C_19
REMARK   14  A    between atoms: C_19  and  OXT_21
REMARK   15  A    between atoms: C_24  and  C_25
REMARK   16  A    between atoms: C_28  and  O_29
REMARK                            x       y       z     vdW  Elec       q    Type
REMARK                         _______ _______ _______ _____ _____    ______ ____
ROOT
ATOM      1  C   UNK A   0       2.445   4.860  18.296  0.00  0.00    +0.000 C 
ATOM      2  C   UNK A   0       3.849   4.327  18.081  0.00  0.00    +0.000 C 
ATOM      3  O   UNK A   0       4.146   3.152  18.174  0.00  0.00    +0.000 OA
ATOM      4  N   UNK A   0       4.662   5.338  17.688  0.00  0.00    +0.000 N 
ATOM      5  C   UNK A   0       3.919   6.322  17.110  0.00  0.00    +0.000 C 
ATOM      6  O   UNK A   0       4.322   7.133  16.286  0.00  0.00    +0.000 OA
ATOM      7  C   UNK A   0       2.480   6.260  17.632  0.00  0.00    +0.000 C 
ENDROOT
BRANCH   7   8
ATOM      8  C   UNK A   0       2.089   7.464  18.481  0.00  0.00    +0.000 A 
ATOM      9  C   UNK A   0       2.057   7.407  19.884  0.00  0.00    +0.000 A 
ATOM     10  C   UNK A   0       1.528   8.449  20.644  0.00  0.00    +0.000 A 
ATOM     11  C   UNK A   0       1.038   9.577  20.001  0.00  0.00    +0.000 A 
ATOM     12  C   UNK A   0       1.166   9.717  18.629  0.00  0.00    +0.000 A 
ATOM     13  C   UNK A   0       1.724   8.683  17.869  0.00  0.00    +0.000 A 
BRANCH  11  14
ATOM     14  O   UNK A   0       0.403  10.562  20.698  0.00  0.00    +0.000 OA
ATOM     15  H   UNK A   0       0.568  10.417  21.645  0.00  0.00    +0.000 HD
ENDBRANCH  11  14
ENDBRANCH   7   8
BRANCH   1  16
ATOM     16  C   UNK A   0       1.970   4.597  19.744  0.00  0.00    +0.000 C 
BRANCH  16  18
ATOM     17  C   UNK A   0       0.769   2.548  18.854  0.00  0.00    +0.000 C 
ATOM     18  C   UNK A   0       0.965   3.462  20.070  0.00  0.00    +0.000 C 
ATOM     19  C   UNK A   0       1.350   2.583  21.238  0.00  0.00    +0.000 C 
ENDBRANCH  16  18
ENDBRANCH   1  16
BRANCH   4  20
ATOM     20  C   UNK A   0       6.137   5.299  17.577  0.00  0.00    +0.000 C 
BRANCH  20  21
ATOM     21  C   UNK A   0       6.748   4.672  16.318  0.00  0.00    +0.000 C 
ATOM     22  O   UNK A   0       7.809   4.037  16.368  0.00  0.00    +0.000 OA
ATOM     23  N   ALA A   1       6.044   4.773  15.152  0.00  0.00    +0.000 N 
ATOM     24  H   ALA A   1       5.195   5.330  15.112  0.00  0.00    +0.000 HD
BRANCH  23  25
ATOM     25  CA  ALA A   1       6.394   4.004  13.964  0.00  0.00    +0.000 C 
ATOM     26  CB  ALA A   1       5.157   3.693  13.130  0.00  0.00    +0.000 C 
BRANCH  25  27
ATOM     27  C   ALA A   1       7.388   4.817  13.132  0.00  0.00    +0.000 C 
ATOM     28  O   ALA A   1       8.092   5.711  13.591  0.00  0.00    +0.000 OA
BRANCH  27  29
ATOM     29  OXT ALA A   1       7.409   4.473  11.831  0.00  0.00    +0.000 OA
ATOM     30  HXT ALA A   1       6.643   3.934  11.540  0.00  0.00    +0.000 HD
ENDBRANCH  27  29
ENDBRANCH  25  27
ENDBRANCH  23  25
ENDBRANCH  20  21
BRANCH  20  31
ATOM     31  C   UNK A   0       6.899   4.835  18.863  0.00  0.00    +0.000 C 
BRANCH  31  32
ATOM     32  C   UNK A   0       7.687   5.862  19.713  0.00  0.00    +0.000 C 
ATOM     33  C   UNK A   0       8.806   5.288  20.566  0.00  0.00    +0.000 C 
ATOM     34  C   UNK A   0       8.273   6.973  18.834  0.00  0.00    +0.000 C 
ENDBRANCH  31  32
ENDBRANCH  20  31
ENDBRANCH   4  20
TORSDOF 11
ENDMDL
MODEL 3
REMARK VINA RESULT:      -6.9      4.368      8.213
REMARK  Name = 
REMARK  16 active torsions:
REMARK  status: ('A' for Active; 'I' for Inactive)
REMARK    1  A    between atoms: C_1  and  C_2
REMARK    2  A    between atoms: C_2  and  C_3
REMARK    3  A    between atoms: C_2  and  C_4
REMARK    4  A    between atoms: C_4  and  C_5
REMARK    5  A    between atoms: N_8  and  C_9
REMARK    6  A    between atoms: C_9  and  C_10
REMARK    7  A    between atoms: C_9  and  C_14
REMARK    8  A    between atoms: C_10  and  C_11
REMARK    9  A    between atoms: C_11  and  C_12
REMARK   10  A    between atoms: C_11  and  C_13
REMARK   11  A    between atoms: N_16  and  CA_17
REMARK   12  A    between atoms: CA_17  and  CB_18
REMARK   13  A    between atoms: CA_17  and  C_19
REMARK   14  A    between atoms: C_19  and  OXT_21
REMARK   15  A    between atoms: C_24  and  C_25
REMARK   16  A    between atoms: C_28  and  O_29
REMARK                            x       y       z     vdW  Elec       q    Type
REMARK                         _______ _______ _______ _____ _____    ______ ____
ROOT
ATOM      1  C   UNK A   0      -1.060  10.307  19.307  0.00  0.00    +0.000 C 
ATOM      2  C   UNK A   0      -1.053  11.729  19.837  0.00  0.00    +0.000 C 
ATOM      3  O   UNK A   0      -1.915  12.547  19.583  0.00  0.00    +0.000 OA
ATOM      4  N   UNK A   0      -0.009  11.890  20.686  0.00  0.00    +0.000 N 
ATOM      5  C   UNK A   0       0.352  10.681  21.199  0.00  0.00    +0.000 C 
ATOM      6  O   UNK A   0       0.919  10.498  22.270  0.00  0.00    +0.000 OA
ATOM      7  C   UNK A   0      -0.073   9.563  20.243  0.00  0.00    +0.000 C 
ENDROOT
BRANCH   7   8
ATOM      8  C   UNK A   0       1.101   8.829  19.606  0.00  0.00    +0.000 A 
ATOM      9  C   UNK A   0       1.663   9.240  18.386  0.00  0.00    +0.000 A 
ATOM     10  C   UNK A   0       2.612   8.464  17.723  0.00  0.00    +0.000 A 
ATOM     11  C   UNK A   0       3.025   7.266  18.289  0.00  0.00    +0.000 A 
ATOM     12  C   UNK A   0       2.583   6.892  19.548  0.00  0.00    +0.000 A 
ATOM     13  C   UNK A   0       1.653   7.687  20.226  0.00  0.00    +0.000 A 
BRANCH  11  14
ATOM     14  O   UNK A   0       3.857   6.422  17.616  0.00  0.00    +0.000 OA
ATOM     15  H   UNK A   0       4.288   6.924  16.904  0.00  0.00    +0.000 HD
ENDBRANCH  11  14
ENDBRANCH   7   8
BRANCH   1  16
ATOM     16  C   UNK A   0      -0.970  10.293  17.763  0.00  0.00    +0.000 C 
BRANCH  16  18
ATOM     17  C   UNK A   0      -3.395   9.552  17.766  0.00  0.00    +0.000 C 
ATOM     18  C   UNK A   0      -2.184   9.889  16.888  0.00  0.00    +0.000 C 
ATOM     19  C   UNK A   0      -2.627  10.932  15.888  0.00  0.00    +0.000 C 
ENDBRANCH  16  18
ENDBRANCH   1  16
BRANCH   4  20
ATOM     20  C   UNK A   0       0.485  13.164  21.255  0.00  0.00    +0.000 C 
BRANCH  20  21
ATOM     21  C   UNK A   0      -0.489  14.005  22.091  0.00  0.00    +0.000 C 
ATOM     22  O   UNK A   0      -0.300  15.215  22.269  0.00  0.00    +0.000 OA
ATOM     23  N   ALA A   1      -1.611  13.391  22.568  0.00  0.00    +0.000 N 
ATOM     24  H   ALA A   1      -1.737  12.389  22.450  0.00  0.00    +0.000 HD
BRANCH  23  25
ATOM     25  CA  ALA A   1      -2.720  14.139  23.145  0.00  0.00    +0.000 C 
ATOM     26  CB  ALA A   1      -3.676  14.626  22.062  0.00  0.00    +0.000 C 
BRANCH  25  27
ATOM     27  C   ALA A   1      -3.467  13.229  24.123  0.00  0.00    +0.000 C 
ATOM     28  O   ALA A   1      -3.779  12.069  23.873  0.00  0.00    +0.000 OA
BRANCH  27  29
ATOM     29  OXT ALA A   1      -3.772  13.826  25.290  0.00  0.00    +0.000 OA
ATOM     30  HXT ALA A   1      -3.255  13.503  26.059  0.00  0.00    +0.000 HD
ENDBRANCH  27  29
ENDBRANCH  25  27
ENDBRANCH  23  25
ENDBRANCH  20  21
BRANCH  20  31
ATOM     31  C   UNK A   0       1.310  14.065  20.277  0.00  0.00    +0.000 C 
BRANCH  31  32
ATOM     32  C   UNK A   0       2.551  13.490  19.551  0.00  0.00    +0.000 C 
ATOM     33  C   UNK A   0       2.288  12.882  18.184  0.00  0.00    +0.000 C 
ATOM     34  C   UNK A   0       3.646  14.553  19.402  0.00  0.00    +0.000 C 
ENDBRANCH  31  32
ENDBRANCH  20  31
ENDBRANCH   4  20
TORSDOF 11
ENDMDL
MODEL 4
REMARK VINA RESULT:      -6.7      1.387      1.872
REMARK  Name = 
REMARK  16 active torsions:
REMARK  status: ('A' for Active; 'I' for Inactive)
REMARK    1  A    between atoms: C_1  and  C_2
REMARK    2  A    between atoms: C_2  and  C_3
REMARK    3  A    between atoms: C_2  and  C_4
REMARK    4  A    between atoms: C_4  and  C_5
REMARK    5  A    between atoms: N_8  and  C_9
REMARK    6  A    between atoms: C_9  and  C_10
REMARK    7  A    between atoms: C_9  and  C_14
REMARK    8  A    between atoms: C_10  and  C_11
REMARK    9  A    between atoms: C_11  and  C_12
REMARK   10  A    between atoms: C_11  and  C_13
REMARK   11  A    between atoms: N_16  and  CA_17
REMARK   12  A    between atoms: CA_17  and  CB_18
REMARK   13  A    between atoms: CA_17  and  C_19
REMARK   14  A    between atoms: C_19  and  OXT_21
REMARK   15  A    between atoms: C_24  and  C_25
REMARK   16  A    between atoms: C_28  and  O_29
REMARK                            x       y       z     vdW  Elec       q    Type
REMARK                         _______ _______ _______ _____ _____    ______ ____
ROOT
ATOM      1  C   UNK A   0       4.781   4.043  16.950  0.00  0.00    +0.000 C 
ATOM      2  C   UNK A   0       3.327   4.075  17.381  0.00  0.00    +0.000 C 
ATOM      3  O   UNK A   0       2.439   3.476  16.805  0.00  0.00    +0.000 OA
ATOM      4  N   UNK A   0       3.211   4.783  18.530  0.00  0.00    +0.000 N 
ATOM      5  C   UNK A   0       4.400   4.772  19.194  0.00  0.00    +0.000 C 
ATOM      6  O   UNK A   0       4.547   4.913  20.402  0.00  0.00    +0.000 OA
ATOM      7  C   UNK A   0       5.545   4.539  18.204  0.00  0.00    +0.000 C 
ENDROOT
BRANCH   7   8
ATOM      8  C   UNK A   0       6.470   5.740  18.050  0.00  0.00    +0.000 A 
ATOM      9  C   UNK A   0       7.663   5.860  18.782  0.00  0.00    +0.000 A 
ATOM     10  C   UNK A   0       8.409   7.037  18.771  0.00  0.00    +0.000 A 
ATOM     11  C   UNK A   0       7.975   8.109  18.004  0.00  0.00    +0.000 A 
ATOM     12  C   UNK A   0       6.872   7.982  17.176  0.00  0.00    +0.000 A 
ATOM     13  C   UNK A   0       6.140   6.789  17.166  0.00  0.00    +0.000 A 
BRANCH  11  14
ATOM     14  O   UNK A   0       8.608   9.315  18.062  0.00  0.00    +0.000 OA
ATOM     15  H   UNK A   0       9.048   9.386  18.925  0.00  0.00    +0.000 HD
ENDBRANCH  11  14
ENDBRANCH   7   8
BRANCH   1  16
ATOM     16  C   UNK A   0       4.952   4.645  15.535  0.00  0.00    +0.000 C 
BRANCH  16  18
ATOM     17  C   UNK A   0       5.347   3.806  13.175  0.00  0.00    +0.000 C 
ATOM     18  C   UNK A   0       5.994   4.077  14.538  0.00  0.00    +0.000 C 
ATOM     19  C   UNK A   0       7.197   4.961  14.298  0.00  0.00    +0.000 C 
ENDBRANCH  16  18
ENDBRANCH   1  16
BRANCH   4  20
ATOM     20  C   UNK A   0       1.956   5.234  19.173  0.00  0.00    +0.000 C 
BRANCH  20  21
ATOM     21  C   UNK A   0       1.821   6.721  19.525  0.00  0.00    +0.000 C 
ATOM     22  O   UNK A   0       1.864   7.108  20.700  0.00  0.00    +0.000 OA
ATOM     23  N   ALA A   1       1.729   7.612  18.494  0.00  0.00    +0.000 N 
ATOM     24  H   ALA A   1       1.655   7.281  17.535  0.00  0.00    +0.000 HD
BRANCH  23  25
ATOM     25  CA  ALA A   1       1.856   9.049  18.696  0.00  0.00    +0.000 C 
ATOM     26  CB  ALA A   1       2.594   9.702  17.533  0.00  0.00    +0.000 C 
BRANCH  25  27
ATOM     27  C   ALA A   1       0.455   9.650  18.822  0.00  0.00    +0.000 C 
ATOM     28  O   ALA A   1      -0.202   9.639  19.859  0.00  0.00    +0.000 OA
BRANCH  27  29
ATOM     29  OXT ALA A   1      -0.009  10.183  17.677  0.00  0.00    +0.000 OA
ATOM     30  HXT ALA A   1      -0.966  10.032  17.516  0.00  0.00    +0.000 HD
ENDBRANCH  27  29
ENDBRANCH  25  27
ENDBRANCH  23  25
ENDBRANCH  20  21
BRANCH  20  31
ATOM     31  C   UNK A   0       1.433   4.330  20.340  0.00  0.00    +0.000 C 
BRANCH  31  32
ATOM     32  C   UNK A   0       1.106   2.840  20.081  0.00  0.00    +0.000 C 
ATOM     33  C   UNK A   0       0.384   2.543  18.777  0.00  0.00    +0.000 C 
ATOM     34  C   UNK A   0       2.373   1.978  20.135  0.00  0.00    +0.000 C 
ENDBRANCH  31  32
ENDBRANCH  20  31
ENDBRANCH   4  20
TORSDOF 11
ENDMDL
MODEL 5
REMARK VINA RESULT:      -6.7      4.630      8.378
REMARK  Name = 
REMARK  16 active torsions:
REMARK  status: ('A' for Active; 'I' for Inactive)
REMARK    1  A    between atoms: C_1  and  C_2
REMARK    2  A    between atoms: C_2  and  C_3
REMARK    3  A    between atoms: C_2  and  C_4
REMARK    4  A    between atoms: C_4  and  C_5
REMARK    5  A    between atoms: N_8  and  C_9
REMARK    6  A    between atoms: C_9  and  C_10
REMARK    7  A    between atoms: C_9  and  C_14
REMARK    8  A    between atoms: C_10  and  C_11
REMARK    9  A    between atoms: C_11  and  C_12
REMARK   10  A    between atoms: C_11  and  C_13
REMARK   11  A    between atoms: N_16  and  CA_17
REMARK   12  A    between atoms: CA_17  and  CB_18
REMARK   13  A    between atoms: CA_17  and  C_19
REMARK   14  A    between atoms: C_19  and  OXT_21
REMARK   15  A    between atoms: C_24  and  C_25
REMARK   16  A    between atoms: C_28  and  O_29
REMARK                            x       y       z     vdW  Elec       q    Type
REMARK                         _______ _______ _______ _____ _____    ______ ____
ROOT
ATOM      1  C   UNK A   0      -1.135  10.462  19.265  0.00  0.00    +0.000 C 
ATOM      2  C   UNK A   0      -1.118  11.896  19.758  0.00  0.00    +0.000 C 
ATOM      3  O   UNK A   0      -1.978  12.712  19.488  0.00  0.00    +0.000 OA
ATOM      4  N   UNK A   0      -0.069  12.075  20.596  0.00  0.00    +0.000 N 
ATOM      5  C   UNK A   0       0.290  10.879  21.138  0.00  0.00    +0.000 C 
ATOM      6  O   UNK A   0       0.863  10.721  22.210  0.00  0.00    +0.000 OA
ATOM      7  C   UNK A   0      -0.146   9.738  20.214  0.00  0.00    +0.000 C 
ENDROOT
BRANCH   7   8
ATOM      8  C   UNK A   0       1.021   8.981  19.589  0.00  0.00    +0.000 A 
ATOM      9  C   UNK A   0       1.594   9.374  18.369  0.00  0.00    +0.000 A 
ATOM     10  C   UNK A   0       2.535   8.579  17.717  0.00  0.00    +0.000 A 
ATOM     11  C   UNK A   0       2.929   7.380  18.296  0.00  0.00    +0.000 A 
ATOM     12  C   UNK A   0       2.476   7.024  19.556  0.00  0.00    +0.000 A 
ATOM     13  C   UNK A   0       1.553   7.838  20.222  0.00  0.00    +0.000 A 
BRANCH  11  14
ATOM     14  O   UNK A   0       3.753   6.518  17.634  0.00  0.00    +0.000 OA
ATOM     15  H   UNK A   0       4.520   7.020  17.311  0.00  0.00    +0.000 HD
ENDBRANCH  11  14
ENDBRANCH   7   8
BRANCH   1  16
ATOM     16  C   UNK A   0      -1.055  10.407  17.721  0.00  0.00    +0.000 C 
BRANCH  16  18
ATOM     17  C   UNK A   0      -3.474   9.648  17.753  0.00  0.00    +0.000 C 
ATOM     18  C   UNK A   0      -2.248   9.902  16.869  0.00  0.00    +0.000 C 
ATOM     19  C   UNK A   0      -2.677  10.832  15.757  0.00  0.00    +0.000 C 
ENDBRANCH  16  18
ENDBRANCH   1  16
BRANCH   4  20
ATOM     20  C   UNK A   0       0.435  13.361  21.129  0.00  0.00    +0.000 C 
BRANCH  20  21
ATOM     21  C   UNK A   0      -0.553  14.267  21.874  0.00  0.00    +0.000 C 
ATOM     22  O   UNK A   0      -0.861  15.382  21.431  0.00  0.00    +0.000 OA
ATOM     23  N   ALA A   1      -1.139  13.774  23.005  0.00  0.00    +0.000 N 
ATOM     24  H   ALA A   1      -0.850  12.876  23.383  0.00  0.00    +0.000 HD
BRANCH  23  25
ATOM     25  CA  ALA A   1      -2.271  14.433  23.643  0.00  0.00    +0.000 C 
ATOM     26  CB  ALA A   1      -3.285  13.413  24.147  0.00  0.00    +0.000 C 
BRANCH  25  27
ATOM     27  C   ALA A   1      -1.751  15.268  24.816  0.00  0.00    +0.000 C 
ATOM     28  O   ALA A   1      -0.589  15.245  25.209  0.00  0.00    +0.000 OA
BRANCH  27  29
ATOM     29  OXT ALA A   1      -2.698  16.027  25.399  0.00  0.00    +0.000 OA
ATOM     30  HXT ALA A   1      -3.318  16.458  24.771  0.00  0.00    +0.000 HD
ENDBRANCH  27  29
ENDBRANCH  25  27
ENDBRANCH  23  25
ENDBRANCH  20  21
BRANCH  20  31
ATOM     31  C   UNK A   0       1.333  14.191  20.151  0.00  0.00    +0.000 C 
BRANCH  31  32
ATOM     32  C   UNK A   0       2.565  13.536  19.483  0.00  0.00    +0.000 C 
ATOM     33  C   UNK A   0       2.321  12.923  18.114  0.00  0.00    +0.000 C 
ATOM     34  C   UNK A   0       3.725  14.531  19.364  0.00  0.00    +0.000 C 
ENDBRANCH  31  32
ENDBRANCH  20  31
ENDBRANCH   4  20
TORSDOF 11
ENDMDL
MODEL 6
REMARK VINA RESULT:      -6.6      4.640      8.530
REMARK  Name = 
REMARK  16 active torsions:
REMARK  status: ('A' for Active; 'I' for Inactive)
REMARK    1  A    between atoms: C_1  and  C_2
REMARK    2  A    between atoms: C_2  and  C_3
REMARK    3  A    between atoms: C_2  and  C_4
REMARK    4  A    between atoms: C_4  and  C_5
REMARK    5  A    between atoms: N_8  and  C_9
REMARK    6  A    between atoms: C_9  and  C_10
REMARK    7  A    between atoms: C_9  and  C_14
REMARK    8  A    between atoms: C_10  and  C_11
REMARK    9  A    between atoms: C_11  and  C_12
REMARK   10  A    between atoms: C_11  and  C_13
REMARK   11  A    between atoms: N_16  and  CA_17
REMARK   12  A    between atoms: CA_17  and  CB_18
REMARK   13  A    between atoms: CA_17  and  C_19
REMARK   14  A    between atoms: C_19  and  OXT_21
REMARK   15  A    between atoms: C_24  and  C_25
REMARK   16  A    between atoms: C_28  and  O_29
REMARK                            x       y       z     vdW  Elec       q    Type
REMARK                         _______ _______ _______ _____ _____    ______ ____
ROOT
ATOM      1  C   UNK A   0      -1.249  10.625  19.420  0.00  0.00    +0.000 C 
ATOM      2  C   UNK A   0      -1.220  12.013  20.032  0.00  0.00    +0.000 C 
ATOM      3  O   UNK A   0      -2.059  12.865  19.811  0.00  0.00    +0.000 OA
ATOM      4  N   UNK A   0      -0.190  12.101  20.907  0.00  0.00    +0.000 N 
ATOM      5  C   UNK A   0       0.134  10.856  21.356  0.00  0.00    +0.000 C 
ATOM      6  O   UNK A   0       0.677  10.599  22.423  0.00  0.00    +0.000 OA
ATOM      7  C   UNK A   0      -0.297   9.806  20.329  0.00  0.00    +0.000 C 
ENDROOT
BRANCH   7   8
ATOM      8  C   UNK A   0       0.872   9.081  19.671  0.00  0.00    +0.000 A 
ATOM      9  C   UNK A   0       1.394   9.484  18.431  0.00  0.00    +0.000 A 
ATOM     10  C   UNK A   0       2.338   8.714  17.754  0.00  0.00    +0.000 A 
ATOM     11  C   UNK A   0       2.786   7.531  18.326  0.00  0.00    +0.000 A 
ATOM     12  C   UNK A   0       2.384   7.169  19.601  0.00  0.00    +0.000 A 
ATOM     13  C   UNK A   0       1.458   7.958  20.292  0.00  0.00    +0.000 A 
BRANCH  11  14
ATOM     14  O   UNK A   0       3.614   6.691  17.642  0.00  0.00    +0.000 OA
ATOM     15  H   UNK A   0       3.111   5.894  17.408  0.00  0.00    +0.000 HD
ENDBRANCH  11  14
ENDBRANCH   7   8
BRANCH   1  16
ATOM     16  C   UNK A   0      -1.131  10.697  17.880  0.00  0.00    +0.000 C 
BRANCH  16  18
ATOM     17  C   UNK A   0      -3.395   9.561  17.758  0.00  0.00    +0.000 C 
ATOM     18  C   UNK A   0      -2.161   9.995  16.958  0.00  0.00    +0.000 C 
ATOM     19  C   UNK A   0      -2.646  10.826  15.793  0.00  0.00    +0.000 C 
ENDBRANCH  16  18
ENDBRANCH   1  16
BRANCH   4  20
ATOM     20  C   UNK A   0       0.322  13.328  21.558  0.00  0.00    +0.000 C 
BRANCH  20  21
ATOM     21  C   UNK A   0      -0.698  14.307  22.152  0.00  0.00    +0.000 C 
ATOM     22  O   UNK A   0      -0.626  15.522  21.928  0.00  0.00    +0.000 OA
ATOM     23  N   ALA A   1      -1.734  13.785  22.874  0.00  0.00    +0.000 N 
ATOM     24  H   ALA A   1      -1.762  12.791  23.086  0.00  0.00    +0.000 HD
BRANCH  23  25
ATOM     25  CA  ALA A   1      -2.889  14.583  23.263  0.00  0.00    +0.000 C 
ATOM     26  CB  ALA A   1      -4.141  14.131  22.521  0.00  0.00    +0.000 C 
BRANCH  25  27
ATOM     27  C   ALA A   1      -3.099  14.435  24.771  0.00  0.00    +0.000 C 
ATOM     28  O   ALA A   1      -2.525  15.121  25.611  0.00  0.00    +0.000 OA
BRANCH  27  29
ATOM     29  OXT ALA A   1      -3.967  13.461  25.102  0.00  0.00    +0.000 OA
ATOM     30  HXT ALA A   1      -4.843  13.783  25.408  0.00  0.00    +0.000 HD
ENDBRANCH  27  29
ENDBRANCH  25  27
ENDBRANCH  23  25
ENDBRANCH  20  21
BRANCH  20  31
ATOM     31  C   UNK A   0       1.443  14.090  20.774  0.00  0.00    +0.000 C 
BRANCH  31  32
ATOM     32  C   UNK A   0       1.359  14.226  19.235  0.00  0.00    +0.000 C 
ATOM     33  C   UNK A   0       1.758  15.580  18.672  0.00  0.00    +0.000 C 
ATOM     34  C   UNK A   0       2.200  13.150  18.538  0.00  0.00    +0.000 C 
ENDBRANCH  31  32
ENDBRANCH  20  31
ENDBRANCH   4  20
TORSDOF 11
ENDMDL
MODEL 7
REMARK VINA RESULT:      -6.5      2.457      7.309
REMARK  Name = 
REMARK  16 active torsions:
REMARK  status: ('A' for Active; 'I' for Inactive)
REMARK    1  A    between atoms: C_1  and  C_2
REMARK    2  A    between atoms: C_2  and  C_3
REMARK    3  A    between atoms: C_2  and  C_4
REMARK    4  A    between atoms: C_4  and  C_5
REMARK    5  A    between atoms: N_8  and  C_9
REMARK    6  A    between atoms: C_9  and  C_10
REMARK    7  A    between atoms: C_9  and  C_14
REMARK    8  A    between atoms: C_10  and  C_11
REMARK    9  A    between atoms: C_11  and  C_12
REMARK   10  A    between atoms: C_11  and  C_13
REMARK   11  A    between atoms: N_16  and  CA_17
REMARK   12  A    between atoms: CA_17  and  CB_18
REMARK   13  A    between atoms: CA_17  and  C_19
REMARK   14  A    between atoms: C_19  and  OXT_21
REMARK   15  A    between atoms: C_24  and  C_25
REMARK   16  A    between atoms: C_28  and  O_29
REMARK                            x       y       z     vdW  Elec       q    Type
REMARK                         _______ _______ _______ _____ _____    ______ ____
ROOT
ATOM      1  C   UNK A   0       2.226   5.141  17.771  0.00  0.00    +0.000 C 
ATOM      2  C   UNK A   0       3.609   4.569  17.522  0.00  0.00    +0.000 C 
ATOM      3  O   UNK A   0       3.821   3.395  17.290  0.00  0.00    +0.000 OA
ATOM      4  N   UNK A   0       4.519   5.573  17.509  0.00  0.00    +0.000 N 
ATOM      5  C   UNK A   0       3.901   6.743  17.188  0.00  0.00    +0.000 C 
ATOM      6  O   UNK A   0       4.435   7.717  16.672  0.00  0.00    +0.000 OA
ATOM      7  C   UNK A   0       2.416   6.664  17.552  0.00  0.00    +0.000 C 
ENDROOT
BRANCH   7   8
ATOM      8  C   UNK A   0       2.015   7.604  18.683  0.00  0.00    +0.000 A 
ATOM      9  C   UNK A   0       2.084   7.218  20.032  0.00  0.00    +0.000 A 
ATOM     10  C   UNK A   0       1.550   8.013  21.045  0.00  0.00    +0.000 A 
ATOM     11  C   UNK A   0       0.952   9.221  20.716  0.00  0.00    +0.000 A 
ATOM     12  C   UNK A   0       0.977   9.687  19.412  0.00  0.00    +0.000 A 
ATOM     13  C   UNK A   0       1.539   8.902  18.399  0.00  0.00    +0.000 A 
BRANCH  11  14
ATOM     14  O   UNK A   0       0.311   9.967  21.660  0.00  0.00    +0.000 OA
ATOM     15  H   UNK A   0       0.981  10.344  22.255  0.00  0.00    +0.000 HD
ENDBRANCH  11  14
ENDBRANCH   7   8
BRANCH   1  16
ATOM     16  C   UNK A   0       1.590   4.518  19.036  0.00  0.00    +0.000 C 
BRANCH  16  18
ATOM     17  C   UNK A   0       3.330   4.069  20.827  0.00  0.00    +0.000 C 
ATOM     18  C   UNK A   0       2.328   3.430  19.858  0.00  0.00    +0.000 C 
ATOM     19  C   UNK A   0       1.431   2.522  20.668  0.00  0.00    +0.000 C 
ENDBRANCH  16  18
ENDBRANCH   1  16
BRANCH   4  20
ATOM     20  C   UNK A   0       5.993   5.437  17.508  0.00  0.00    +0.000 C 
BRANCH  20  21
ATOM     21  C   UNK A   0       6.652   4.757  16.303  0.00  0.00    +0.000 C 
ATOM     22  O   UNK A   0       7.694   4.099  16.429  0.00  0.00    +0.000 OA
ATOM     23  N   ALA A   1       6.012   4.835  15.099  0.00  0.00    +0.000 N 
ATOM     24  H   ALA A   1       5.180   5.410  14.997  0.00  0.00    +0.000 HD
BRANCH  23  25
ATOM     25  CA  ALA A   1       6.404   4.021  13.956  0.00  0.00    +0.000 C 
ATOM     26  CB  ALA A   1       5.190   3.620  13.128  0.00  0.00    +0.000 C 
BRANCH  25  27
ATOM     27  C   ALA A   1       7.376   4.829  13.092  0.00  0.00    +0.000 C 
ATOM     28  O   ALA A   1       7.459   4.717  11.873  0.00  0.00    +0.000 OA
BRANCH  27  29
ATOM     29  OXT ALA A   1       8.155   5.669  13.798  0.00  0.00    +0.000 OA
ATOM     30  HXT ALA A   1       8.568   5.270  14.593  0.00  0.00    +0.000 HD
ENDBRANCH  27  29
ENDBRANCH  25  27
ENDBRANCH  23  25
ENDBRANCH  20  21
BRANCH  20  31
ATOM     31  C   UNK A   0       6.625   4.940  18.852  0.00  0.00    +0.000 C 
BRANCH  31  32
ATOM     32  C   UNK A   0       7.561   5.870  19.660  0.00  0.00    +0.000 C 
ATOM     33  C   UNK A   0       8.679   5.175  20.420  0.00  0.00    +0.000 C 
ATOM     34  C   UNK A   0       8.185   6.943  18.761  0.00  0.00    +0.000 C 
ENDBRANCH  31  32
ENDBRANCH  20  31
ENDBRANCH   4  20
TORSDOF 11
ENDMDL
MODEL 8
REMARK VINA RESULT:      -6.5      5.048      8.723
REMARK  Name = 
REMARK  16 active torsions:
REMARK  status: ('A' for Active; 'I' for Inactive)
REMARK    1  A    between atoms: C_1  and  C_2
REMARK    2  A    between atoms: C_2  and  C_3
REMARK    3  A    between atoms: C_2  and  C_4
REMARK    4  A    between atoms: C_4  and  C_5
REMARK    5  A    between atoms: N_8  and  C_9
REMARK    6  A    between atoms: C_9  and  C_10
REMARK    7  A    between atoms: C_9  and  C_14
REMARK    8  A    between atoms: C_10  and  C_11
REMARK    9  A    between atoms: C_11  and  C_12
REMARK   10  A    between atoms: C_11  and  C_13
REMARK   11  A    between atoms: N_16  and  CA_17
REMARK   12  A    between atoms: CA_17  and  CB_18
REMARK   13  A    between atoms: CA_17  and  C_19
REMARK   14  A    between atoms: C_19  and  OXT_21
REMARK   15  A    between atoms: C_24  and  C_25
REMARK   16  A    between atoms: C_28  and  O_29
REMARK                            x       y       z     vdW  Elec       q    Type
REMARK                         _______ _______ _______ _____ _____    ______ ____
ROOT
ATOM      1  C   UNK A   0      -0.918  10.615  18.781  0.00  0.00    +0.000 C 
ATOM      2  C   UNK A   0      -0.754  12.107  18.566  0.00  0.00    +0.000 C 
ATOM      3  O   UNK A   0      -1.606  12.815  18.066  0.00  0.00    +0.000 OA
ATOM      4  N   UNK A   0       0.426  12.514  19.096  0.00  0.00    +0.000 N 
ATOM      5  C   UNK A   0       0.810  11.644  20.071  0.00  0.00    +0.000 C 
ATOM      6  O   UNK A   0       1.542  11.908  21.018  0.00  0.00    +0.000 OA
ATOM      7  C   UNK A   0       0.176  10.273  19.824  0.00  0.00    +0.000 C 
ENDROOT
BRANCH   7   8
ATOM      8  C   UNK A   0       1.189   9.189  19.469  0.00  0.00    +0.000 A 
ATOM      9  C   UNK A   0       1.895   9.200  18.255  0.00  0.00    +0.000 A 
ATOM     10  C   UNK A   0       2.680   8.118  17.860  0.00  0.00    +0.000 A 
ATOM     11  C   UNK A   0       2.782   7.013  18.694  0.00  0.00    +0.000 A 
ATOM     12  C   UNK A   0       2.198   7.022  19.950  0.00  0.00    +0.000 A 
ATOM     13  C   UNK A   0       1.434   8.121  20.357  0.00  0.00    +0.000 A 
BRANCH  11  14
ATOM     14  O   UNK A   0       3.439   5.888  18.290  0.00  0.00    +0.000 OA
ATOM     15  H   UNK A   0       3.853   6.071  17.431  0.00  0.00    +0.000 HD
ENDBRANCH  11  14
ENDBRANCH   7   8
BRANCH   1  16
ATOM     16  C   UNK A   0      -1.093   9.878  17.432  0.00  0.00    +0.000 C 
BRANCH  16  18
ATOM     17  C   UNK A   0      -3.599   9.976  17.806  0.00  0.00    +0.000 C 
ATOM     18  C   UNK A   0      -2.490   9.703  16.784  0.00  0.00    +0.000 C 
ATOM     19  C   UNK A   0      -2.754  10.586  15.585  0.00  0.00    +0.000 C 
ENDBRANCH  16  18
ENDBRANCH   1  16
BRANCH   4  20
ATOM     20  C   UNK A   0       1.069  13.835  18.923  0.00  0.00    +0.000 C 
BRANCH  20  21
ATOM     21  C   UNK A   0       2.592  13.920  19.077  0.00  0.00    +0.000 C 
ATOM     22  O   UNK A   0       3.351  13.506  18.190  0.00  0.00    +0.000 OA
ATOM     23  N   ALA A   1       3.086  14.535  20.192  0.00  0.00    +0.000 N 
ATOM     24  H   ALA A   1       2.457  14.835  20.933  0.00  0.00    +0.000 HD
BRANCH  23  25
ATOM     25  CA  ALA A   1       4.490  14.900  20.322  0.00  0.00    +0.000 C 
ATOM     26  CB  ALA A   1       4.682  16.403  20.166  0.00  0.00    +0.000 C 
BRANCH  25  27
ATOM     27  C   ALA A   1       4.986  14.455  21.699  0.00  0.00    +0.000 C 
ATOM     28  O   ALA A   1       4.376  13.674  22.425  0.00  0.00    +0.000 OA
BRANCH  27  29
ATOM     29  OXT ALA A   1       6.155  15.016  22.060  0.00  0.00    +0.000 OA
ATOM     30  HXT ALA A   1       6.471  14.759  22.952  0.00  0.00    +0.000 HD
ENDBRANCH  27  29
ENDBRANCH  25  27
ENDBRANCH  23  25
ENDBRANCH  20  21
BRANCH  20  31
ATOM     31  C   UNK A   0       0.362  15.030  19.647  0.00  0.00    +0.000 C 
BRANCH  31  32
ATOM     32  C   UNK A   0      -0.274  16.173  18.820  0.00  0.00    +0.000 C 
ATOM     33  C   UNK A   0      -1.364  16.964  19.524  0.00  0.00    +0.000 C 
ATOM     34  C   UNK A   0       0.793  17.158  18.327  0.00  0.00    +0.000 C 
ENDBRANCH  31  32
ENDBRANCH  20  31
ENDBRANCH   4  20
TORSDOF 11
ENDMDL
MODEL 9
REMARK VINA RESULT:      -6.4      4.966      8.530
REMARK  Name = 
REMARK  16 active torsions:
REMARK  status: ('A' for Active; 'I' for Inactive)
REMARK    1  A    between atoms: C_1  and  C_2
REMARK    2  A    between atoms: C_2  and  C_3
REMARK    3  A    between atoms: C_2  and  C_4
REMARK    4  A    between atoms: C_4  and  C_5
REMARK    5  A    between atoms: N_8  and  C_9
REMARK    6  A    between atoms: C_9  and  C_10
REMARK    7  A    between atoms: C_9  and  C_14
REMARK    8  A    between atoms: C_10  and  C_11
REMARK    9  A    between atoms: C_11  and  C_12
REMARK   10  A    between atoms: C_11  and  C_13
REMARK   11  A    between atoms: N_16  and  CA_17
REMARK   12  A    between atoms: CA_17  and  CB_18
REMARK   13  A    between atoms: CA_17  and  C_19
REMARK   14  A    between atoms: C_19  and  OXT_21
REMARK   15  A    between atoms: C_24  and  C_25
REMARK   16  A    between atoms: C_28  and  O_29
REMARK                            x       y       z     vdW  Elec       q    Type
REMARK                         _______ _______ _______ _____ _____    ______ ____
ROOT
ATOM      1  C   UNK A   0      -0.887  10.530  18.914  0.00  0.00    +0.000 C 
ATOM      2  C   UNK A   0      -0.719  12.037  18.901  0.00  0.00    +0.000 C 
ATOM      3  O   UNK A   0      -1.550  12.805  18.456  0.00  0.00    +0.000 OA
ATOM      4  N   UNK A   0       0.433  12.370  19.532  0.00  0.00    +0.000 N 
ATOM      5  C   UNK A   0       0.776  11.382  20.405  0.00  0.00    +0.000 C 
ATOM      6  O   UNK A   0       1.462  11.521  21.410  0.00  0.00    +0.000 OA
ATOM      7  C   UNK A   0       0.160  10.055  19.954  0.00  0.00    +0.000 C 
ENDROOT
BRANCH   7   8
ATOM      8  C   UNK A   0       1.192   9.024  19.511  0.00  0.00    +0.000 A 
ATOM      9  C   UNK A   0       1.852   9.117  18.274  0.00  0.00    +0.000 A 
ATOM     10  C   UNK A   0       2.656   8.082  17.799  0.00  0.00    +0.000 A 
ATOM     11  C   UNK A   0       2.823   6.942  18.572  0.00  0.00    +0.000 A 
ATOM     12  C   UNK A   0       2.286   6.871  19.848  0.00  0.00    +0.000 A 
ATOM     13  C   UNK A   0       1.503   7.922  20.336  0.00  0.00    +0.000 A 
BRANCH  11  14
ATOM     14  O   UNK A   0       3.500   5.860  18.091  0.00  0.00    +0.000 OA
ATOM     15  H   UNK A   0       3.945   5.425  18.837  0.00  0.00    +0.000 HD
ENDBRANCH  11  14
ENDBRANCH   7   8
BRANCH   1  16
ATOM     16  C   UNK A   0      -0.996   9.973  17.475  0.00  0.00    +0.000 C 
BRANCH  16  18
ATOM     17  C   UNK A   0      -3.504   9.819  17.816  0.00  0.00    +0.000 C 
ATOM     18  C   UNK A   0      -2.372   9.788  16.784  0.00  0.00    +0.000 C 
ATOM     19  C   UNK A   0      -2.698  10.816  15.725  0.00  0.00    +0.000 C 
ENDBRANCH  16  18
ENDBRANCH   1  16
BRANCH   4  20
ATOM     20  C   UNK A   0       1.079  13.702  19.561  0.00  0.00    +0.000 C 
BRANCH  20  21
ATOM     21  C   UNK A   0       0.352  14.838  20.290  0.00  0.00    +0.000 C 
ATOM     22  O   UNK A   0       0.008  15.867  19.692  0.00  0.00    +0.000 OA
ATOM     23  N   ALA A   1       0.029  14.648  21.603  0.00  0.00    +0.000 N 
ATOM     24  H   ALA A   1       0.351  13.818  22.095  0.00  0.00    +0.000 HD
BRANCH  23  25
ATOM     25  CA  ALA A   1      -0.876  15.537  22.318  0.00  0.00    +0.000 C 
ATOM     26  CB  ALA A   1      -2.325  15.099  22.144  0.00  0.00    +0.000 C 
BRANCH  25  27
ATOM     27  C   ALA A   1      -0.505  15.521  23.803  0.00  0.00    +0.000 C 
ATOM     28  O   ALA A   1      -1.013  14.766  24.625  0.00  0.00    +0.000 OA
BRANCH  27  29
ATOM     29  OXT ALA A   1       0.426  16.434  24.136  0.00  0.00    +0.000 OA
ATOM     30  HXT ALA A   1       1.352  16.124  24.040  0.00  0.00    +0.000 HD
ENDBRANCH  27  29
ENDBRANCH  25  27
ENDBRANCH  23  25
ENDBRANCH  20  21
BRANCH  20  31
ATOM     31  C   UNK A   0       1.669  14.194  18.197  0.00  0.00    +0.000 C 
BRANCH  31  32
ATOM     32  C   UNK A   0       3.068  14.855  18.149  0.00  0.00    +0.000 C 
ATOM     33  C   UNK A   0       3.079  16.348  17.864  0.00  0.00    +0.000 C 
ATOM     34  C   UNK A   0       3.840  14.609  19.450  0.00  0.00    +0.000 C 
ENDBRANCH  31  32
ENDBRANCH  20  31
ENDBRANCH   4  20
TORSDOF 11
ENDMDL
