MODEL 1
REMARK VINA RESULT:      -7.0      0.000      0.000
REMARK  Name = 
REMARK  10 active torsions:
REMARK  status: ('A' for Active; 'I' for Inactive)
REMARK    1  A    between atoms: C_1  and  N_2
REMARK    2  A    between atoms: C_3  and  C_5
REMARK    3  A    between atoms: C_7  and  C_8
REMARK    4  A    between atoms: C_12  and  C_13
REMARK    5  A    between atoms: C_14  and  C_15
REMARK    6  A    between atoms: C_15  and  C_16
REMARK    7  A    between atoms: C_18  and  C_19
REMARK    8  A    between atoms: N_20  and  C_21
REMARK    9  A    between atoms: C_25  and  C_26
REMARK   10  A    between atoms: N_33  and  C_34
REMARK                            x       y       z     vdW  Elec       q    Type
REMARK                         _______ _______ _______ _____ _____    ______ ____
ROOT
ATOM      1  C   UNL     1      -1.129  11.350  19.493  0.00  0.00    +0.000 C 
ATOM      2  C   UNL     1      -2.456  11.338  18.747  0.00  0.00    +0.000 C 
ATOM      3  C   UNL     1      -3.570  11.918  19.265  0.00  0.00    +0.000 C 
ATOM      4  C   UNL     1      -4.962  11.903  18.644  0.00  0.00    +0.000 C 
ATOM      5  N   UNL     1      -3.489  12.594  20.494  0.00  0.00    +0.000 N 
ATOM      6  C   UNL     1      -2.335  12.665  21.277  0.00  0.00    +0.000 C 
ATOM      7  O   UNL     1      -2.288  13.309  22.330  0.00  0.00    +0.000 OA
ATOM      8  N   UNL     1      -1.235  11.970  20.835  0.00  0.00    +0.000 N 
ATOM      9  C   UNL     1      -0.040  12.024  21.679  0.00  0.00    +0.000 C 
ENDROOT
BRANCH   1  15
ATOM     10  C   UNL     1       1.305  11.406  18.573  0.00  0.00    +0.000 A 
ATOM     11  C   UNL     1       2.440  12.178  18.291  0.00  0.00    +0.000 A 
ATOM     12  C   UNL     1       2.363  13.573  18.217  0.00  0.00    +0.000 A 
ATOM     13  C   UNL     1       1.129  14.211  18.386  0.00  0.00    +0.000 A 
ATOM     14  C   UNL     1      -0.017  13.458  18.647  0.00  0.00    +0.000 A 
ATOM     15  C   UNL     1       0.044  12.050  18.781  0.00  0.00    +0.000 A 
BRANCH  10  18
ATOM     16  C   UNL     1       2.317   7.809  17.920  0.00  0.00    +0.000 C 
ATOM     17  N   UNL     1       2.070   9.220  17.718  0.00  0.00    +0.000 N 
ATOM     18  C   UNL     1       1.458   9.928  18.727  0.00  0.00    +0.000 C 
ATOM     19  O   UNL     1       1.067   9.368  19.740  0.00  0.00    +0.000 OA
ATOM     20  H   UNL     1       2.515   9.684  16.939  0.00  0.00    +0.000 HD
ENDBRANCH  10  18
BRANCH  12  21
ATOM     21  C   UNL     1       3.556  14.355  18.012  0.00  0.00    +0.000 C 
ATOM     22  N   UNL     1       4.523  14.972  17.869  0.00  0.00    +0.000 NA
ENDBRANCH  12  21
ENDBRANCH   1  15
BRANCH   5  23
ATOM     23  C   UNL     1      -4.598  13.297  21.058  0.00  0.00    +0.000 A 
ATOM     24  C   UNL     1      -4.818  14.636  20.703  0.00  0.00    +0.000 A 
ATOM     25  C   UNL     1      -5.769  15.383  21.392  0.00  0.00    +0.000 A 
ATOM     26  C   UNL     1      -6.508  14.798  22.423  0.00  0.00    +0.000 A 
ATOM     27  C   UNL     1      -6.309  13.454  22.777  0.00  0.00    +0.000 A 
ATOM     28  C   UNL     1      -5.342  12.712  22.083  0.00  0.00    +0.000 A 
BRANCH  27  29
ATOM     29  C   UNL     1      -7.091  12.814  23.894  0.00  0.00    +0.000 C 
ATOM     30  F   UNL     1      -7.892  13.686  24.569  0.00  0.00    +0.000 F 
ATOM     31  F   UNL     1      -7.916  11.825  23.447  0.00  0.00    +0.000 F 
ATOM     32  F   UNL     1      -6.294  12.236  24.834  0.00  0.00    +0.000 F 
ENDBRANCH  27  29
ENDBRANCH   5  23
BRANCH   2  33
ATOM     33  C   UNL     1      -2.513  10.673  17.380  0.00  0.00    +0.000 C 
ATOM     34  C   UNL     1      -2.644  11.471  16.112  0.00  0.00    +0.000 C 
ATOM     35  O   UNL     1      -2.481   9.445  17.268  0.00  0.00    +0.000 OA
ENDBRANCH   2  33
TORSDOF 6
ENDMDL
MODEL 2
REMARK VINA RESULT:      -6.6      4.754      8.446
REMARK  Name = 
REMARK  10 active torsions:
REMARK  status: ('A' for Active; 'I' for Inactive)
REMARK    1  A    between atoms: C_1  and  N_2
REMARK    2  A    between atoms: C_3  and  C_5
REMARK    3  A    between atoms: C_7  and  C_8
REMARK    4  A    between atoms: C_12  and  C_13
REMARK    5  A    between atoms: C_14  and  C_15
REMARK    6  A    between atoms: C_15  and  C_16
REMARK    7  A    between atoms: C_18  and  C_19
REMARK    8  A    between atoms: N_20  and  C_21
REMARK    9  A    between atoms: C_25  and  C_26
REMARK   10  A    between atoms: N_33  and  C_34
REMARK                            x       y       z     vdW  Elec       q    Type
REMARK                         _______ _______ _______ _____ _____    ______ ____
ROOT
ATOM      1  C   UNL     1      -0.327  10.555  20.117  0.00  0.00    +0.000 C 
ATOM      2  C   UNL     1       0.406   9.627  21.076  0.00  0.00    +0.000 C 
ATOM      3  C   UNL     1       1.210   8.628  20.628  0.00  0.00    +0.000 C 
ATOM      4  C   UNL     1       1.930   7.599  21.491  0.00  0.00    +0.000 C 
ATOM      5  N   UNL     1       1.416   8.475  19.247  0.00  0.00    +0.000 N 
ATOM      6  C   UNL     1       0.794   9.253  18.268  0.00  0.00    +0.000 C 
ATOM      7  O   UNL     1       1.036   9.121  17.065  0.00  0.00    +0.000 OA
ATOM      8  N   UNL     1      -0.127  10.180  18.697  0.00  0.00    +0.000 N 
ATOM      9  C   UNL     1      -0.798  10.968  17.662  0.00  0.00    +0.000 C 
ENDROOT
BRANCH   1  15
ATOM     10  C   UNL     1      -0.988  13.071  20.181  0.00  0.00    +0.000 A 
ATOM     11  C   UNL     1      -0.624  14.392  19.889  0.00  0.00    +0.000 A 
ATOM     12  C   UNL     1       0.708  14.733  19.630  0.00  0.00    +0.000 A 
ATOM     13  C   UNL     1       1.703  13.751  19.702  0.00  0.00    +0.000 A 
ATOM     14  C   UNL     1       1.363  12.433  20.012  0.00  0.00    +0.000 A 
ATOM     15  C   UNL     1       0.017  12.052  20.225  0.00  0.00    +0.000 A 
BRANCH  10  18
ATOM     16  C   UNL     1      -4.607  12.225  19.424  0.00  0.00    +0.000 C 
ATOM     17  N   UNL     1      -3.235  12.650  19.250  0.00  0.00    +0.000 N 
ATOM     18  C   UNL     1      -2.434  12.746  20.364  0.00  0.00    +0.000 C 
ATOM     19  O   UNL     1      -2.886  12.548  21.482  0.00  0.00    +0.000 OA
ATOM     20  H   UNL     1      -2.850  12.679  18.317  0.00  0.00    +0.000 HD
ENDBRANCH  10  18
BRANCH  12  21
ATOM     21  C   UNL     1       1.052  16.079  19.246  0.00  0.00    +0.000 C 
ATOM     22  N   UNL     1       1.302  17.165  18.941  0.00  0.00    +0.000 NA
ENDBRANCH  12  21
ENDBRANCH   1  15
BRANCH   5  23
ATOM     23  C   UNL     1       2.312   7.501  18.707  0.00  0.00    +0.000 A 
ATOM     24  C   UNL     1       3.473   7.925  18.045  0.00  0.00    +0.000 A 
ATOM     25  C   UNL     1       4.244   6.998  17.348  0.00  0.00    +0.000 A 
ATOM     26  C   UNL     1       3.870   5.653  17.322  0.00  0.00    +0.000 A 
ATOM     27  C   UNL     1       2.719   5.213  17.995  0.00  0.00    +0.000 A 
ATOM     28  C   UNL     1       1.943   6.155  18.686  0.00  0.00    +0.000 A 
BRANCH  27  29
ATOM     29  C   UNL     1       2.298   3.767  17.964  0.00  0.00    +0.000 C 
ATOM     30  F   UNL     1       2.840   3.062  16.932  0.00  0.00    +0.000 F 
ATOM     31  F   UNL     1       2.657   3.100  19.098  0.00  0.00    +0.000 F 
ATOM     32  F   UNL     1       0.949   3.612  17.854  0.00  0.00    +0.000 F 
ENDBRANCH  27  29
ENDBRANCH   5  23
BRANCH   2  33
ATOM     33  C   UNL     1       0.239   9.852  22.571  0.00  0.00    +0.000 C 
ATOM     34  C   UNL     1      -1.064  10.316  23.165  0.00  0.00    +0.000 C 
ATOM     35  O   UNL     1       1.181   9.687  23.350  0.00  0.00    +0.000 OA
ENDBRANCH   2  33
TORSDOF 6
ENDMDL
MODEL 3
REMARK VINA RESULT:      -6.3      4.849      8.650
REMARK  Name = 
REMARK  10 active torsions:
REMARK  status: ('A' for Active; 'I' for Inactive)
REMARK    1  A    between atoms: C_1  and  N_2
REMARK    2  A    between atoms: C_3  and  C_5
REMARK    3  A    between atoms: C_7  and  C_8
REMARK    4  A    between atoms: C_12  and  C_13
REMARK    5  A    between atoms: C_14  and  C_15
REMARK    6  A    between atoms: C_15  and  C_16
REMARK    7  A    between atoms: C_18  and  C_19
REMARK    8  A    between atoms: N_20  and  C_21
REMARK    9  A    between atoms: C_25  and  C_26
REMARK   10  A    between atoms: N_33  and  C_34
REMARK                            x       y       z     vdW  Elec       q    Type
REMARK                         _______ _______ _______ _____ _____    ______ ____
ROOT
ATOM      1  C   UNL     1       0.150  10.417  20.294  0.00  0.00    +0.000 C 
ATOM      2  C   UNL     1       0.759   9.333  21.171  0.00  0.00    +0.000 C 
ATOM      3  C   UNL     1       1.486   8.313  20.645  0.00  0.00    +0.000 C 
ATOM      4  C   UNL     1       2.077   7.139  21.416  0.00  0.00    +0.000 C 
ATOM      5  N   UNL     1       1.730   8.282  19.262  0.00  0.00    +0.000 N 
ATOM      6  C   UNL     1       1.219   9.210  18.352  0.00  0.00    +0.000 C 
ATOM      7  O   UNL     1       1.495   9.179  17.149  0.00  0.00    +0.000 OA
ATOM      8  N   UNL     1       0.370  10.171  18.849  0.00  0.00    +0.000 N 
ATOM      9  C   UNL     1      -0.187  11.119  17.883  0.00  0.00    +0.000 C 
ENDROOT
BRANCH   1  15
ATOM     10  C   UNL     1      -0.288  12.906  20.914  0.00  0.00    +0.000 A 
ATOM     11  C   UNL     1       0.107  14.243  20.770  0.00  0.00    +0.000 A 
ATOM     12  C   UNL     1       1.377  14.571  20.283  0.00  0.00    +0.000 A 
ATOM     13  C   UNL     1       2.286  13.554  19.971  0.00  0.00    +0.000 A 
ATOM     14  C   UNL     1       1.919  12.216  20.128  0.00  0.00    +0.000 A 
ATOM     15  C   UNL     1       0.622  11.857  20.567  0.00  0.00    +0.000 A 
BRANCH  10  18
ATOM     16  C   UNL     1      -3.341  12.453  23.117  0.00  0.00    +0.000 C 
ATOM     17  N   UNL     1      -1.967  12.628  22.702  0.00  0.00    +0.000 N 
ATOM     18  C   UNL     1      -1.683  12.611  21.356  0.00  0.00    +0.000 C 
ATOM     19  O   UNL     1      -2.557  12.382  20.533  0.00  0.00    +0.000 OA
ATOM     20  H   UNL     1      -1.291  12.945  23.382  0.00  0.00    +0.000 HD
ENDBRANCH  10  18
BRANCH  12  21
ATOM     21  C   UNL     1       1.735  15.949  20.059  0.00  0.00    +0.000 C 
ATOM     22  N   UNL     1       2.014  17.053  19.856  0.00  0.00    +0.000 NA
ENDBRANCH  12  21
ENDBRANCH   1  15
BRANCH   5  23
ATOM     23  C   UNL     1       2.555   7.289  18.650  0.00  0.00    +0.000 A 
ATOM     24  C   UNL     1       3.707   7.682  17.954  0.00  0.00    +0.000 A 
ATOM     25  C   UNL     1       4.403   6.747  17.192  0.00  0.00    +0.000 A 
ATOM     26  C   UNL     1       3.963   5.423  17.133  0.00  0.00    +0.000 A 
ATOM     27  C   UNL     1       2.821   5.013  17.839  0.00  0.00    +0.000 A 
ATOM     28  C   UNL     1       2.121   5.963  18.595  0.00  0.00    +0.000 A 
BRANCH  27  29
ATOM     29  C   UNL     1       2.329   3.591  17.774  0.00  0.00    +0.000 C 
ATOM     30  F   UNL     1       2.464   3.021  16.543  0.00  0.00    +0.000 F 
ATOM     31  F   UNL     1       2.998   2.772  18.636  0.00  0.00    +0.000 F 
ATOM     32  F   UNL     1       1.011   3.472  18.097  0.00  0.00    +0.000 F 
ENDBRANCH  27  29
ENDBRANCH   5  23
BRANCH   2  33
ATOM     33  C   UNL     1       0.554   9.420  22.676  0.00  0.00    +0.000 C 
ATOM     34  C   UNL     1      -0.818   9.436  23.293  0.00  0.00    +0.000 C 
ATOM     35  O   UNL     1       1.515   9.508  23.446  0.00  0.00    +0.000 OA
ENDBRANCH   2  33
TORSDOF 6
ENDMDL
MODEL 4
REMARK VINA RESULT:      -6.2      5.279      8.959
REMARK  Name = 
REMARK  10 active torsions:
REMARK  status: ('A' for Active; 'I' for Inactive)
REMARK    1  A    between atoms: C_1  and  N_2
REMARK    2  A    between atoms: C_3  and  C_5
REMARK    3  A    between atoms: C_7  and  C_8
REMARK    4  A    between atoms: C_12  and  C_13
REMARK    5  A    between atoms: C_14  and  C_15
REMARK    6  A    between atoms: C_15  and  C_16
REMARK    7  A    between atoms: C_18  and  C_19
REMARK    8  A    between atoms: N_20  and  C_21
REMARK    9  A    between atoms: C_25  and  C_26
REMARK   10  A    between atoms: N_33  and  C_34
REMARK                            x       y       z     vdW  Elec       q    Type
REMARK                         _______ _______ _______ _____ _____    ______ ____
ROOT
ATOM      1  C   UNL     1       0.095  10.336  20.179  0.00  0.00    +0.000 C 
ATOM      2  C   UNL     1       0.780   9.272  21.026  0.00  0.00    +0.000 C 
ATOM      3  C   UNL     1       1.470   8.247  20.462  0.00  0.00    +0.000 C 
ATOM      4  C   UNL     1       2.129   7.091  21.206  0.00  0.00    +0.000 C 
ATOM      5  N   UNL     1       1.603   8.190  19.065  0.00  0.00    +0.000 N 
ATOM      6  C   UNL     1       1.015   9.097  18.182  0.00  0.00    +0.000 C 
ATOM      7  O   UNL     1       1.194   9.043  16.961  0.00  0.00    +0.000 OA
ATOM      8  N   UNL     1       0.201  10.062  18.726  0.00  0.00    +0.000 N 
ATOM      9  C   UNL     1      -0.437  10.988  17.789  0.00  0.00    +0.000 C 
ENDROOT
BRANCH   1  15
ATOM     10  C   UNL     1      -0.332  12.879  20.523  0.00  0.00    +0.000 A 
ATOM     11  C   UNL     1       0.123  14.189  20.316  0.00  0.00    +0.000 A 
ATOM     12  C   UNL     1       1.454  14.444  19.969  0.00  0.00    +0.000 A 
ATOM     13  C   UNL     1       2.360  13.383  19.864  0.00  0.00    +0.000 A 
ATOM     14  C   UNL     1       1.931  12.073  20.087  0.00  0.00    +0.000 A 
ATOM     15  C   UNL     1       0.578  11.784  20.386  0.00  0.00    +0.000 A 
BRANCH  10  18
ATOM     16  C   UNL     1      -4.089  12.635  20.064  0.00  0.00    +0.000 C 
ATOM     17  N   UNL     1      -2.699  12.957  19.826  0.00  0.00    +0.000 N 
ATOM     18  C   UNL     1      -1.781  12.656  20.806  0.00  0.00    +0.000 C 
ATOM     19  O   UNL     1      -2.138  12.195  21.880  0.00  0.00    +0.000 OA
ATOM     20  H   UNL     1      -2.413  13.212  18.892  0.00  0.00    +0.000 HD
ENDBRANCH  10  18
BRANCH  12  21
ATOM     21  C   UNL     1       1.883  15.788  19.675  0.00  0.00    +0.000 C 
ATOM     22  N   UNL     1       2.228  16.871  19.466  0.00  0.00    +0.000 NA
ENDBRANCH  12  21
ENDBRANCH   1  15
BRANCH   5  23
ATOM     23  C   UNL     1       2.384   7.189  18.409  0.00  0.00    +0.000 A 
ATOM     24  C   UNL     1       1.849   5.904  18.230  0.00  0.00    +0.000 A 
ATOM     25  C   UNL     1       2.669   4.875  17.774  0.00  0.00    +0.000 A 
ATOM     26  C   UNL     1       4.011   5.125  17.483  0.00  0.00    +0.000 A 
ATOM     27  C   UNL     1       4.554   6.411  17.640  0.00  0.00    +0.000 A 
ATOM     28  C   UNL     1       3.724   7.438  18.110  0.00  0.00    +0.000 A 
BRANCH  27  29
ATOM     29  C   UNL     1       6.004   6.691  17.341  0.00  0.00    +0.000 C 
ATOM     30  F   UNL     1       6.310   8.018  17.318  0.00  0.00    +0.000 F 
ATOM     31  F   UNL     1       6.839   6.134  18.264  0.00  0.00    +0.000 F 
ATOM     32  F   UNL     1       6.400   6.195  16.136  0.00  0.00    +0.000 F 
ENDBRANCH  27  29
ENDBRANCH   5  23
BRANCH   2  33
ATOM     33  C   UNL     1       0.696   9.388  22.541  0.00  0.00    +0.000 C 
ATOM     34  C   UNL     1      -0.623   9.421  23.264  0.00  0.00    +0.000 C 
ATOM     35  O   UNL     1       1.715   9.486  23.230  0.00  0.00    +0.000 OA
ENDBRANCH   2  33
TORSDOF 6
ENDMDL
MODEL 5
REMARK VINA RESULT:      -6.2      5.461      9.032
REMARK  Name = 
REMARK  10 active torsions:
REMARK  status: ('A' for Active; 'I' for Inactive)
REMARK    1  A    between atoms: C_1  and  N_2
REMARK    2  A    between atoms: C_3  and  C_5
REMARK    3  A    between atoms: C_7  and  C_8
REMARK    4  A    between atoms: C_12  and  C_13
REMARK    5  A    between atoms: C_14  and  C_15
REMARK    6  A    between atoms: C_15  and  C_16
REMARK    7  A    between atoms: C_18  and  C_19
REMARK    8  A    between atoms: N_20  and  C_21
REMARK    9  A    between atoms: C_25  and  C_26
REMARK   10  A    between atoms: N_33  and  C_34
REMARK                            x       y       z     vdW  Elec       q    Type
REMARK                         _______ _______ _______ _____ _____    ______ ____
ROOT
ATOM      1  C   UNL     1       0.191  10.317  20.241  0.00  0.00    +0.000 C 
ATOM      2  C   UNL     1       0.861   9.226  21.066  0.00  0.00    +0.000 C 
ATOM      3  C   UNL     1       1.530   8.199  20.480  0.00  0.00    +0.000 C 
ATOM      4  C   UNL     1       2.172   7.019  21.200  0.00  0.00    +0.000 C 
ATOM      5  N   UNL     1       1.657   8.165  19.082  0.00  0.00    +0.000 N 
ATOM      6  C   UNL     1       1.080   9.098  18.218  0.00  0.00    +0.000 C 
ATOM      7  O   UNL     1       1.253   9.064  16.996  0.00  0.00    +0.000 OA
ATOM      8  N   UNL     1       0.286  10.068  18.783  0.00  0.00    +0.000 N 
ATOM      9  C   UNL     1      -0.340  11.022  17.867  0.00  0.00    +0.000 C 
ENDROOT
BRANCH   1  15
ATOM     10  C   UNL     1      -0.166  12.810  20.895  0.00  0.00    +0.000 A 
ATOM     11  C   UNL     1       0.230  14.143  20.717  0.00  0.00    +0.000 A 
ATOM     12  C   UNL     1       1.456  14.458  20.122  0.00  0.00    +0.000 A 
ATOM     13  C   UNL     1       2.325  13.431  19.735  0.00  0.00    +0.000 A 
ATOM     14  C   UNL     1       1.959  12.098  19.924  0.00  0.00    +0.000 A 
ATOM     15  C   UNL     1       0.701  11.752  20.473  0.00  0.00    +0.000 A 
BRANCH  10  18
ATOM     16  C   UNL     1      -2.996  12.271  23.362  0.00  0.00    +0.000 C 
ATOM     17  N   UNL     1      -1.664  12.431  22.820  0.00  0.00    +0.000 N 
ATOM     18  C   UNL     1      -1.521  12.529  21.454  0.00  0.00    +0.000 C 
ATOM     19  O   UNL     1      -2.485  12.413  20.712  0.00  0.00    +0.000 OA
ATOM     20  H   UNL     1      -0.907  12.655  23.449  0.00  0.00    +0.000 HD
ENDBRANCH  10  18
BRANCH  12  21
ATOM     21  C   UNL     1       1.808  15.832  19.868  0.00  0.00    +0.000 C 
ATOM     22  N   UNL     1       2.114  16.930  19.672  0.00  0.00    +0.000 NA
ENDBRANCH  12  21
ENDBRANCH   1  15
BRANCH   5  23
ATOM     23  C   UNL     1       2.416   7.163  18.403  0.00  0.00    +0.000 A 
ATOM     24  C   UNL     1       1.864   5.887  18.217  0.00  0.00    +0.000 A 
ATOM     25  C   UNL     1       2.665   4.854  17.738  0.00  0.00    +0.000 A 
ATOM     26  C   UNL     1       4.007   5.091  17.433  0.00  0.00    +0.000 A 
ATOM     27  C   UNL     1       4.567   6.368  17.598  0.00  0.00    +0.000 A 
ATOM     28  C   UNL     1       3.756   7.400  18.091  0.00  0.00    +0.000 A 
BRANCH  27  29
ATOM     29  C   UNL     1       6.017   6.634  17.285  0.00  0.00    +0.000 C 
ATOM     30  F   UNL     1       6.882   6.032  18.148  0.00  0.00    +0.000 F 
ATOM     31  F   UNL     1       6.366   6.192  16.043  0.00  0.00    +0.000 F 
ATOM     32  F   UNL     1       6.328   7.959  17.308  0.00  0.00    +0.000 F 
ENDBRANCH  27  29
ENDBRANCH   5  23
BRANCH   2  33
ATOM     33  C   UNL     1       0.786   9.316  22.583  0.00  0.00    +0.000 C 
ATOM     34  C   UNL     1      -0.527   9.284  23.317  0.00  0.00    +0.000 C 
ATOM     35  O   UNL     1       1.806   9.445  23.265  0.00  0.00    +0.000 OA
ENDBRANCH   2  33
TORSDOF 6
ENDMDL
MODEL 6
REMARK VINA RESULT:      -6.2      2.114      2.541
REMARK  Name = 
REMARK  10 active torsions:
REMARK  status: ('A' for Active; 'I' for Inactive)
REMARK    1  A    between atoms: C_1  and  N_2
REMARK    2  A    between atoms: C_3  and  C_5
REMARK    3  A    between atoms: C_7  and  C_8
REMARK    4  A    between atoms: C_12  and  C_13
REMARK    5  A    between atoms: C_14  and  C_15
REMARK    6  A    between atoms: C_15  and  C_16
REMARK    7  A    between atoms: C_18  and  C_19
REMARK    8  A    between atoms: N_20  and  C_21
REMARK    9  A    between atoms: C_25  and  C_26
REMARK   10  A    between atoms: N_33  and  C_34
REMARK                            x       y       z     vdW  Elec       q    Type
REMARK                         _______ _______ _______ _____ _____    ______ ____
ROOT
ATOM      1  C   UNL     1      -1.485  11.587  19.591  0.00  0.00    +0.000 C 
ATOM      2  C   UNL     1      -2.776  11.592  18.785  0.00  0.00    +0.000 C 
ATOM      3  C   UNL     1      -3.901  12.199  19.244  0.00  0.00    +0.000 C 
ATOM      4  C   UNL     1      -5.263  12.203  18.560  0.00  0.00    +0.000 C 
ATOM      5  N   UNL     1      -3.864  12.887  20.468  0.00  0.00    +0.000 N 
ATOM      6  C   UNL     1      -2.746  12.947  21.303  0.00  0.00    +0.000 C 
ATOM      7  O   UNL     1      -2.735  13.602  22.349  0.00  0.00    +0.000 OA
ATOM      8  N   UNL     1      -1.640  12.225  20.920  0.00  0.00    +0.000 N 
ATOM      9  C   UNL     1      -0.485  12.267  21.818  0.00  0.00    +0.000 C 
ENDROOT
BRANCH   1  15
ATOM     10  C   UNL     1       0.987  11.583  18.778  0.00  0.00    +0.000 A 
ATOM     11  C   UNL     1       2.150  12.327  18.540  0.00  0.00    +0.000 A 
ATOM     12  C   UNL     1       2.108  13.723  18.454  0.00  0.00    +0.000 A 
ATOM     13  C   UNL     1       0.882  14.390  18.565  0.00  0.00    +0.000 A 
ATOM     14  C   UNL     1      -0.291  13.664  18.781  0.00  0.00    +0.000 A 
ATOM     15  C   UNL     1      -0.267  12.256  18.926  0.00  0.00    +0.000 A 
BRANCH  10  18
ATOM     16  C   UNL     1       1.376   8.167  20.379  0.00  0.00    +0.000 C 
ATOM     17  N   UNL     1       1.378   9.602  20.198  0.00  0.00    +0.000 N 
ATOM     18  C   UNL     1       1.101  10.104  18.947  0.00  0.00    +0.000 C 
ATOM     19  O   UNL     1       0.928   9.357  17.995  0.00  0.00    +0.000 OA
ATOM     20  H   UNL     1       1.391  10.194  21.015  0.00  0.00    +0.000 HD
ENDBRANCH  10  18
BRANCH  12  21
ATOM     21  C   UNL     1       3.325  14.478  18.296  0.00  0.00    +0.000 C 
ATOM     22  N   UNL     1       4.314  15.062  18.159  0.00  0.00    +0.000 NA
ENDBRANCH  12  21
ENDBRANCH   1  15
BRANCH   5  23
ATOM     23  C   UNL     1      -4.983  13.619  20.973  0.00  0.00    +0.000 A 
ATOM     24  C   UNL     1      -5.943  12.959  21.754  0.00  0.00    +0.000 A 
ATOM     25  C   UNL     1      -7.130  13.610  22.081  0.00  0.00    +0.000 A 
ATOM     26  C   UNL     1      -7.355  14.917  21.644  0.00  0.00    +0.000 A 
ATOM     27  C   UNL     1      -6.395  15.595  20.876  0.00  0.00    +0.000 A 
ATOM     28  C   UNL     1      -5.207  14.928  20.543  0.00  0.00    +0.000 A 
BRANCH  27  29
ATOM     29  C   UNL     1      -6.632  17.001  20.389  0.00  0.00    +0.000 C 
ATOM     30  F   UNL     1      -5.846  17.352  19.333  0.00  0.00    +0.000 F 
ATOM     31  F   UNL     1      -7.916  17.195  19.975  0.00  0.00    +0.000 F 
ATOM     32  F   UNL     1      -6.406  17.938  21.350  0.00  0.00    +0.000 F 
ENDBRANCH  27  29
ENDBRANCH   5  23
BRANCH   2  33
ATOM     33  C   UNL     1      -2.783  10.911  17.425  0.00  0.00    +0.000 C 
ATOM     34  C   UNL     1      -3.118   9.453  17.266  0.00  0.00    +0.000 C 
ATOM     35  O   UNL     1      -2.486  11.531  16.400  0.00  0.00    +0.000 OA
ENDBRANCH   2  33
TORSDOF 6
ENDMDL
MODEL 7
REMARK VINA RESULT:      -6.2      2.431      2.868
REMARK  Name = 
REMARK  10 active torsions:
REMARK  status: ('A' for Active; 'I' for Inactive)
REMARK    1  A    between atoms: C_1  and  N_2
REMARK    2  A    between atoms: C_3  and  C_5
REMARK    3  A    between atoms: C_7  and  C_8
REMARK    4  A    between atoms: C_12  and  C_13
REMARK    5  A    between atoms: C_14  and  C_15
REMARK    6  A    between atoms: C_15  and  C_16
REMARK    7  A    between atoms: C_18  and  C_19
REMARK    8  A    between atoms: N_20  and  C_21
REMARK    9  A    between atoms: C_25  and  C_26
REMARK   10  A    between atoms: N_33  and  C_34
REMARK                            x       y       z     vdW  Elec       q    Type
REMARK                         _______ _______ _______ _____ _____    ______ ____
ROOT
ATOM      1  C   UNL     1      -1.700  11.599  19.581  0.00  0.00    +0.000 C 
ATOM      2  C   UNL     1      -2.888  11.450  18.641  0.00  0.00    +0.000 C 
ATOM      3  C   UNL     1      -4.079  12.050  18.896  0.00  0.00    +0.000 C 
ATOM      4  C   UNL     1      -5.351  11.911  18.069  0.00  0.00    +0.000 C 
ATOM      5  N   UNL     1      -4.209  12.874  20.026  0.00  0.00    +0.000 N 
ATOM      6  C   UNL     1      -3.199  13.082  20.967  0.00  0.00    +0.000 C 
ATOM      7  O   UNL     1      -3.333  13.852  21.923  0.00  0.00    +0.000 OA
ATOM      8  N   UNL     1      -2.031  12.376  20.799  0.00  0.00    +0.000 N 
ATOM      9  C   UNL     1      -0.990  12.575  21.809  0.00  0.00    +0.000 C 
ENDROOT
BRANCH   1  15
ATOM     10  C   UNL     1       0.850  11.625  19.062  0.00  0.00    +0.000 A 
ATOM     11  C   UNL     1       2.005  12.395  18.868  0.00  0.00    +0.000 A 
ATOM     12  C   UNL     1       1.922  13.767  18.605  0.00  0.00    +0.000 A 
ATOM     13  C   UNL     1       0.668  14.378  18.493  0.00  0.00    +0.000 A 
ATOM     14  C   UNL     1      -0.495  13.623  18.662  0.00  0.00    +0.000 A 
ATOM     15  C   UNL     1      -0.437  12.246  18.981  0.00  0.00    +0.000 A 
BRANCH  10  18
ATOM     16  C   UNL     1       1.184   8.449  21.107  0.00  0.00    +0.000 C 
ATOM     17  N   UNL     1       1.155   9.850  20.750  0.00  0.00    +0.000 N 
ATOM     18  C   UNL     1       0.997  10.184  19.424  0.00  0.00    +0.000 C 
ATOM     19  O   UNL     1       0.955   9.321  18.560  0.00  0.00    +0.000 OA
ATOM     20  H   UNL     1       1.059  10.536  21.484  0.00  0.00    +0.000 HD
ENDBRANCH  10  18
BRANCH  12  21
ATOM     21  C   UNL     1       3.121  14.558  18.495  0.00  0.00    +0.000 C 
ATOM     22  N   UNL     1       4.090  15.186  18.430  0.00  0.00    +0.000 NA
ENDBRANCH  12  21
ENDBRANCH   1  15
BRANCH   5  23
ATOM     23  C   UNL     1      -5.404  13.604  20.312  0.00  0.00    +0.000 A 
ATOM     24  C   UNL     1      -6.400  13.013  21.103  0.00  0.00    +0.000 A 
ATOM     25  C   UNL     1      -7.642  13.632  21.222  0.00  0.00    +0.000 A 
ATOM     26  C   UNL     1      -7.888  14.840  20.567  0.00  0.00    +0.000 A 
ATOM     27  C   UNL     1      -6.894  15.451  19.785  0.00  0.00    +0.000 A 
ATOM     28  C   UNL     1      -5.650  14.815  19.664  0.00  0.00    +0.000 A 
BRANCH  27  29
ATOM     29  C   UNL     1      -7.151  16.748  19.064  0.00  0.00    +0.000 C 
ATOM     30  F   UNL     1      -7.886  16.603  17.926  0.00  0.00    +0.000 F 
ATOM     31  F   UNL     1      -7.834  17.641  19.835  0.00  0.00    +0.000 F 
ATOM     32  F   UNL     1      -6.005  17.381  18.690  0.00  0.00    +0.000 F 
ENDBRANCH  27  29
ENDBRANCH   5  23
BRANCH   2  33
ATOM     33  C   UNL     1      -2.713  10.619  17.379  0.00  0.00    +0.000 C 
ATOM     34  C   UNL     1      -2.795  11.230  16.006  0.00  0.00    +0.000 C 
ATOM     35  O   UNL     1      -2.523   9.401  17.438  0.00  0.00    +0.000 OA
ENDBRANCH   2  33
TORSDOF 6
ENDMDL
MODEL 8
REMARK VINA RESULT:      -6.2      1.928      4.041
REMARK  Name = 
REMARK  10 active torsions:
REMARK  status: ('A' for Active; 'I' for Inactive)
REMARK    1  A    between atoms: C_1  and  N_2
REMARK    2  A    between atoms: C_3  and  C_5
REMARK    3  A    between atoms: C_7  and  C_8
REMARK    4  A    between atoms: C_12  and  C_13
REMARK    5  A    between atoms: C_14  and  C_15
REMARK    6  A    between atoms: C_15  and  C_16
REMARK    7  A    between atoms: C_18  and  C_19
REMARK    8  A    between atoms: N_20  and  C_21
REMARK    9  A    between atoms: C_25  and  C_26
REMARK   10  A    between atoms: N_33  and  C_34
REMARK                            x       y       z     vdW  Elec       q    Type
REMARK                         _______ _______ _______ _____ _____    ______ ____
ROOT
ATOM      1  C   UNL     1      -0.820  12.419  19.675  0.00  0.00    +0.000 C 
ATOM      2  C   UNL     1      -1.127  13.482  20.720  0.00  0.00    +0.000 C 
ATOM      3  C   UNL     1      -2.402  13.812  21.050  0.00  0.00    +0.000 C 
ATOM      4  C   UNL     1      -2.825  14.906  22.023  0.00  0.00    +0.000 C 
ATOM      5  N   UNL     1      -3.470  13.121  20.454  0.00  0.00    +0.000 N 
ATOM      6  C   UNL     1      -3.320  12.135  19.476  0.00  0.00    +0.000 C 
ATOM      7  O   UNL     1      -4.280  11.515  19.009  0.00  0.00    +0.000 OA
ATOM      8  N   UNL     1      -2.043  11.884  19.031  0.00  0.00    +0.000 N 
ATOM      9  C   UNL     1      -1.899  10.872  17.983  0.00  0.00    +0.000 C 
ENDROOT
BRANCH   1  15
ATOM     10  C   UNL     1       1.179  10.762  19.505  0.00  0.00    +0.000 A 
ATOM     11  C   UNL     1       1.651   9.460  19.721  0.00  0.00    +0.000 A 
ATOM     12  C   UNL     1       0.969   8.575  20.563  0.00  0.00    +0.000 A 
ATOM     13  C   UNL     1      -0.181   9.003  21.235  0.00  0.00    +0.000 A 
ATOM     14  C   UNL     1      -0.656  10.303  21.050  0.00  0.00    +0.000 A 
ATOM     15  C   UNL     1      -0.015  11.200  20.162  0.00  0.00    +0.000 A 
BRANCH  10  18
ATOM     16  C   UNL     1       2.965  13.744  17.987  0.00  0.00    +0.000 C 
ATOM     17  N   UNL     1       2.172  12.936  18.888  0.00  0.00    +0.000 N 
ATOM     18  C   UNL     1       1.896  11.636  18.530  0.00  0.00    +0.000 C 
ATOM     19  O   UNL     1       2.248  11.195  17.446  0.00  0.00    +0.000 OA
ATOM     20  H   UNL     1       2.007  13.274  19.825  0.00  0.00    +0.000 HD
ENDBRANCH  10  18
BRANCH  12  21
ATOM     21  C   UNL     1       1.421   7.214  20.705  0.00  0.00    +0.000 C 
ATOM     22  N   UNL     1       1.773   6.117  20.795  0.00  0.00    +0.000 NA
ENDBRANCH  12  21
ENDBRANCH   1  15
BRANCH   5  23
ATOM     23  C   UNL     1      -4.833  13.355  20.813  0.00  0.00    +0.000 A 
ATOM     24  C   UNL     1      -5.595  14.268  20.069  0.00  0.00    +0.000 A 
ATOM     25  C   UNL     1      -6.853  14.649  20.528  0.00  0.00    +0.000 A 
ATOM     26  C   UNL     1      -7.357  14.114  21.715  0.00  0.00    +0.000 A 
ATOM     27  C   UNL     1      -6.612  13.186  22.460  0.00  0.00    +0.000 A 
ATOM     28  C   UNL     1      -5.342  12.816  21.995  0.00  0.00    +0.000 A 
BRANCH  27  29
ATOM     29  C   UNL     1      -7.140  12.611  23.749  0.00  0.00    +0.000 C 
ATOM     30  F   UNL     1      -7.912  13.481  24.459  0.00  0.00    +0.000 F 
ATOM     31  F   UNL     1      -7.917  11.510  23.543  0.00  0.00    +0.000 F 
ATOM     32  F   UNL     1      -6.150  12.214  24.595  0.00  0.00    +0.000 F 
ENDBRANCH  27  29
ENDBRANCH   5  23
BRANCH   2  33
ATOM     33  C   UNL     1       0.038  14.169  21.418  0.00  0.00    +0.000 C 
ATOM     34  C   UNL     1       0.599  15.477  20.929  0.00  0.00    +0.000 C 
ATOM     35  O   UNL     1       0.584  13.658  22.399  0.00  0.00    +0.000 OA
ENDBRANCH   2  33
TORSDOF 6
ENDMDL
MODEL 9
REMARK VINA RESULT:      -6.1      4.115      8.206
REMARK  Name = 
REMARK  10 active torsions:
REMARK  status: ('A' for Active; 'I' for Inactive)
REMARK    1  A    between atoms: C_1  and  N_2
REMARK    2  A    between atoms: C_3  and  C_5
REMARK    3  A    between atoms: C_7  and  C_8
REMARK    4  A    between atoms: C_12  and  C_13
REMARK    5  A    between atoms: C_14  and  C_15
REMARK    6  A    between atoms: C_15  and  C_16
REMARK    7  A    between atoms: C_18  and  C_19
REMARK    8  A    between atoms: N_20  and  C_21
REMARK    9  A    between atoms: C_25  and  C_26
REMARK   10  A    between atoms: N_33  and  C_34
REMARK                            x       y       z     vdW  Elec       q    Type
REMARK                         _______ _______ _______ _____ _____    ______ ____
ROOT
ATOM      1  C   UNL     1      -4.208  12.349  20.953  0.00  0.00    +0.000 C 
ATOM      2  C   UNL     1      -3.009  12.370  21.892  0.00  0.00    +0.000 C 
ATOM      3  C   UNL     1      -1.746  12.160  21.440  0.00  0.00    +0.000 C 
ATOM      4  C   UNL     1      -0.487  12.084  22.295  0.00  0.00    +0.000 C 
ATOM      5  N   UNL     1      -1.527  11.971  20.065  0.00  0.00    +0.000 N 
ATOM      6  C   UNL     1      -2.541  11.921  19.107  0.00  0.00    +0.000 C 
ATOM      7  O   UNL     1      -2.307  11.802  17.901  0.00  0.00    +0.000 OA
ATOM      8  N   UNL     1      -3.836  11.996  19.563  0.00  0.00    +0.000 N 
ATOM      9  C   UNL     1      -4.894  11.910  18.554  0.00  0.00    +0.000 C 
ENDROOT
BRANCH   1  15
ATOM     10  C   UNL     1      -6.457  13.656  20.880  0.00  0.00    +0.000 A 
ATOM     11  C   UNL     1      -7.151  14.781  20.415  0.00  0.00    +0.000 A 
ATOM     12  C   UNL     1      -6.467  15.901  19.930  0.00  0.00    +0.000 A 
ATOM     13  C   UNL     1      -5.068  15.920  19.944  0.00  0.00    +0.000 A 
ATOM     14  C   UNL     1      -4.358  14.817  20.423  0.00  0.00    +0.000 A 
ATOM     15  C   UNL     1      -5.026  13.652  20.869  0.00  0.00    +0.000 A 
BRANCH  10  18
ATOM     16  C   UNL     1      -7.904  10.151  20.957  0.00  0.00    +0.000 C 
ATOM     17  N   UNL     1      -7.243  11.349  20.488  0.00  0.00    +0.000 N 
ATOM     18  C   UNL     1      -7.235  12.455  21.307  0.00  0.00    +0.000 C 
ATOM     19  O   UNL     1      -7.833  12.451  22.373  0.00  0.00    +0.000 OA
ATOM     20  H   UNL     1      -6.650  11.289  19.673  0.00  0.00    +0.000 HD
ENDBRANCH  10  18
BRANCH  12  21
ATOM     21  C   UNL     1      -7.196  17.013  19.375  0.00  0.00    +0.000 C 
ATOM     22  N   UNL     1      -7.789  17.891  18.911  0.00  0.00    +0.000 NA
ENDBRANCH  12  21
ENDBRANCH   1  15
BRANCH   5  23
ATOM     23  C   UNL     1      -0.218  11.829  19.508  0.00  0.00    +0.000 A 
ATOM     24  C   UNL     1       0.496  12.973  19.125  0.00  0.00    +0.000 A 
ATOM     25  C   UNL     1       1.680  12.835  18.404  0.00  0.00    +0.000 A 
ATOM     26  C   UNL     1       2.158  11.564  18.078  0.00  0.00    +0.000 A 
ATOM     27  C   UNL     1       1.461  10.410  18.471  0.00  0.00    +0.000 A 
ATOM     28  C   UNL     1       0.265  10.559  19.188  0.00  0.00    +0.000 A 
BRANCH  27  29
ATOM     29  C   UNL     1       1.960   9.034  18.115  0.00  0.00    +0.000 C 
ATOM     30  F   UNL     1       2.387   8.313  19.189  0.00  0.00    +0.000 F 
ATOM     31  F   UNL     1       0.997   8.274  17.518  0.00  0.00    +0.000 F 
ATOM     32  F   UNL     1       3.005   9.060  17.243  0.00  0.00    +0.000 F 
ENDBRANCH  27  29
ENDBRANCH   5  23
BRANCH   2  33
ATOM     33  C   UNL     1      -3.250  12.653  23.367  0.00  0.00    +0.000 C 
ATOM     34  C   UNL     1      -2.942  13.993  23.980  0.00  0.00    +0.000 C 
ATOM     35  O   UNL     1      -3.683  11.778  24.122  0.00  0.00    +0.000 OA
ENDBRANCH   2  33
TORSDOF 6
ENDMDL
