MODEL 1
REMARK VINA RESULT:      -7.6      0.000      0.000
REMARK  Name = 
REMARK  9 active torsions:
REMARK  status: ('A' for Active; 'I' for Inactive)
REMARK    1  A    between atoms: C_1  and  O_2
REMARK    2  A    between atoms: O_2  and  C_3
REMARK    3  A    between atoms: C_5  and  C_6
REMARK    4  A    between atoms: C_6  and  C_8
REMARK    5  A    between atoms: C_8  and  C_10
REMARK    6  A    between atoms: C_20  and  O_21
REMARK    7  A    between atoms: O_21  and  C_22
REMARK    8  A    between atoms: C_23  and  O_24
REMARK    9  A    between atoms: O_24  and  C_25
REMARK                            x       y       z     vdW  Elec       q    Type
REMARK                         _______ _______ _______ _____ _____    ______ ____
ROOT
ATOM      1  C   UNL     1       3.749   4.127  17.311  0.00  0.00    +0.000 C 
ATOM      2  O   UNL     1       2.847   3.426  16.867  0.00  0.00    +0.000 OA
ENDROOT
BRANCH   1   5
ATOM      3  C   UNL     1       6.147   4.076  14.383  0.00  0.00    +0.000 A 
ATOM      4  C   UNL     1       5.131   3.729  15.292  0.00  0.00    +0.000 A 
ATOM      5  C   UNL     1       4.955   4.433  16.485  0.00  0.00    +0.000 A 
ATOM      6  C   UNL     1       5.898   5.401  16.826  0.00  0.00    +0.000 A 
ATOM      7  C   UNL     1       6.977   5.704  15.974  0.00  0.00    +0.000 A 
ATOM      8  C   UNL     1       7.107   5.053  14.727  0.00  0.00    +0.000 A 
BRANCH   3  10
ATOM      9  C   UNL     1       5.030   3.447  12.382  0.00  0.00    +0.000 C 
ATOM     10  O   UNL     1       6.226   3.447  13.165  0.00  0.00    +0.000 OA
ENDBRANCH   3  10
BRANCH   7  11
ATOM     11  O   UNL     1       7.781   6.675  16.522  0.00  0.00    +0.000 OA
ATOM     12  C   UNL     1       7.229   7.639  17.406  0.00  0.00    +0.000 C 
ENDBRANCH   7  11
BRANCH   8  13
ATOM     13  O   UNL     1       8.183   5.424  13.968  0.00  0.00    +0.000 OA
ATOM     14  C   UNL     1       8.052   5.696  12.583  0.00  0.00    +0.000 C 
ENDBRANCH   8  13
ENDBRANCH   1   5
BRANCH   1  15
ATOM     15  C   UNL     1       3.629   4.700  18.712  0.00  0.00    +0.000 C 
ATOM     16  O   UNL     1       4.183   4.073  19.613  0.00  0.00    +0.000 OA
BRANCH  15  17
ATOM     17  C   UNL     1       2.911   5.947  18.943  0.00  0.00    +0.000 A 
ATOM     18  C   UNL     1       2.848   6.990  18.040  0.00  0.00    +0.000 A 
ATOM     19  C   UNL     1       2.152   8.147  18.532  0.00  0.00    +0.000 A 
ATOM     20  C   UNL     1       1.906   9.398  17.911  0.00  0.00    +0.000 A 
ATOM     21  C   UNL     1       1.237  10.411  18.605  0.00  0.00    +0.000 A 
ATOM     22  C   UNL     1       0.805  10.197  19.907  0.00  0.00    +0.000 A 
ATOM     23  C   UNL     1       1.019   8.963  20.535  0.00  0.00    +0.000 A 
ATOM     24  C   UNL     1       1.692   7.940  19.833  0.00  0.00    +0.000 A 
ATOM     25  S   UNL     1       2.067   6.338  20.374  0.00  0.00    +0.000 S 
ENDBRANCH  15  17
ENDBRANCH   1  15
TORSDOF 6
ENDMDL
MODEL 2
REMARK VINA RESULT:      -7.3      0.780      1.330
REMARK  Name = 
REMARK  9 active torsions:
REMARK  status: ('A' for Active; 'I' for Inactive)
REMARK    1  A    between atoms: C_1  and  O_2
REMARK    2  A    between atoms: O_2  and  C_3
REMARK    3  A    between atoms: C_5  and  C_6
REMARK    4  A    between atoms: C_6  and  C_8
REMARK    5  A    between atoms: C_8  and  C_10
REMARK    6  A    between atoms: C_20  and  O_21
REMARK    7  A    between atoms: O_21  and  C_22
REMARK    8  A    between atoms: C_23  and  O_24
REMARK    9  A    between atoms: O_24  and  C_25
REMARK                            x       y       z     vdW  Elec       q    Type
REMARK                         _______ _______ _______ _____ _____    ______ ____
ROOT
ATOM      1  C   UNL     1       3.616   4.221  17.408  0.00  0.00    +0.000 C 
ATOM      2  O   UNL     1       2.682   3.598  16.916  0.00  0.00    +0.000 OA
ENDROOT
BRANCH   1   5
ATOM      3  C   UNL     1       6.089   4.115  14.544  0.00  0.00    +0.000 A 
ATOM      4  C   UNL     1       5.042   3.791  15.426  0.00  0.00    +0.000 A 
ATOM      5  C   UNL     1       4.850   4.499  16.613  0.00  0.00    +0.000 A 
ATOM      6  C   UNL     1       5.804   5.448  16.979  0.00  0.00    +0.000 A 
ATOM      7  C   UNL     1       6.912   5.726  16.156  0.00  0.00    +0.000 A 
ATOM      8  C   UNL     1       7.061   5.071  14.913  0.00  0.00    +0.000 A 
BRANCH   3  10
ATOM      9  C   UNL     1       5.005   3.490  12.524  0.00  0.00    +0.000 C 
ATOM     10  O   UNL     1       6.186   3.483  13.329  0.00  0.00    +0.000 OA
ENDBRANCH   3  10
BRANCH   7  11
ATOM     11  O   UNL     1       7.722   6.680  16.725  0.00  0.00    +0.000 OA
ATOM     12  C   UNL     1       7.703   6.882  18.131  0.00  0.00    +0.000 C 
ENDBRANCH   7  11
BRANCH   8  13
ATOM     13  O   UNL     1       8.164   5.419  14.183  0.00  0.00    +0.000 OA
ATOM     14  C   UNL     1       8.098   5.583  12.776  0.00  0.00    +0.000 C 
ENDBRANCH   8  13
ENDBRANCH   1   5
BRANCH   1  15
ATOM     15  C   UNL     1       3.508   4.724  18.836  0.00  0.00    +0.000 C 
ATOM     16  O   UNL     1       3.984   4.002  19.711  0.00  0.00    +0.000 OA
BRANCH  15  17
ATOM     17  C   UNL     1       2.892   6.013  19.123  0.00  0.00    +0.000 A 
ATOM     18  C   UNL     1       2.266   6.332  20.312  0.00  0.00    +0.000 A 
ATOM     19  C   UNL     1       1.663   7.635  20.323  0.00  0.00    +0.000 A 
ATOM     20  C   UNL     1       0.925   8.293  21.340  0.00  0.00    +0.000 A 
ATOM     21  C   UNL     1       0.383   9.561  21.112  0.00  0.00    +0.000 A 
ATOM     22  C   UNL     1       0.566  10.188  19.887  0.00  0.00    +0.000 A 
ATOM     23  C   UNL     1       1.306   9.567  18.872  0.00  0.00    +0.000 A 
ATOM     24  C   UNL     1       1.855   8.288  19.105  0.00  0.00    +0.000 A 
ATOM     25  S   UNL     1       2.810   7.321  18.030  0.00  0.00    +0.000 S 
ENDBRANCH  15  17
ENDBRANCH   1  15
TORSDOF 6
ENDMDL
MODEL 3
REMARK VINA RESULT:      -7.2      0.765      2.909
REMARK  Name = 
REMARK  9 active torsions:
REMARK  status: ('A' for Active; 'I' for Inactive)
REMARK    1  A    between atoms: C_1  and  O_2
REMARK    2  A    between atoms: O_2  and  C_3
REMARK    3  A    between atoms: C_5  and  C_6
REMARK    4  A    between atoms: C_6  and  C_8
REMARK    5  A    between atoms: C_8  and  C_10
REMARK    6  A    between atoms: C_20  and  O_21
REMARK    7  A    between atoms: O_21  and  C_22
REMARK    8  A    between atoms: C_23  and  O_24
REMARK    9  A    between atoms: O_24  and  C_25
REMARK                            x       y       z     vdW  Elec       q    Type
REMARK                         _______ _______ _______ _____ _____    ______ ____
ROOT
ATOM      1  C   UNL     1       3.677   4.352  17.352  0.00  0.00    +0.000 C 
ATOM      2  O   UNL     1       2.736   3.667  16.970  0.00  0.00    +0.000 OA
ENDROOT
BRANCH   1   5
ATOM      3  C   UNL     1       6.895   5.890  16.085  0.00  0.00    +0.000 A 
ATOM      4  C   UNL     1       5.702   5.669  16.798  0.00  0.00    +0.000 A 
ATOM      5  C   UNL     1       4.827   4.641  16.444  0.00  0.00    +0.000 A 
ATOM      6  C   UNL     1       5.088   3.922  15.278  0.00  0.00    +0.000 A 
ATOM      7  C   UNL     1       6.229   4.186  14.496  0.00  0.00    +0.000 A 
ATOM      8  C   UNL     1       7.162   5.168  14.901  0.00  0.00    +0.000 A 
BRANCH   3  10
ATOM      9  C   UNL     1       7.571   7.346  17.837  0.00  0.00    +0.000 C 
ATOM     10  O   UNL     1       7.795   6.830  16.523  0.00  0.00    +0.000 OA
ENDBRANCH   3  10
BRANCH   7  11
ATOM     11  O   UNL     1       6.271   3.368  13.392  0.00  0.00    +0.000 OA
ATOM     12  C   UNL     1       5.225   3.416  12.432  0.00  0.00    +0.000 C 
ENDBRANCH   7  11
BRANCH   8  13
ATOM     13  O   UNL     1       8.241   5.341  14.079  0.00  0.00    +0.000 OA
ATOM     14  C   UNL     1       8.084   5.724  12.723  0.00  0.00    +0.000 C 
ENDBRANCH   8  13
ENDBRANCH   1   5
BRANCH   1  15
ATOM     15  C   UNL     1       3.664   4.921  18.759  0.00  0.00    +0.000 C 
ATOM     16  O   UNL     1       4.266   4.278  19.619  0.00  0.00    +0.000 OA
BRANCH  15  17
ATOM     17  C   UNL     1       2.991   6.182  19.042  0.00  0.00    +0.000 A 
ATOM     18  C   UNL     1       2.356   6.478  20.233  0.00  0.00    +0.000 A 
ATOM     19  C   UNL     1       1.693   7.752  20.240  0.00  0.00    +0.000 A 
ATOM     20  C   UNL     1       0.930   8.380  21.257  0.00  0.00    +0.000 A 
ATOM     21  C   UNL     1       0.329   9.621  21.025  0.00  0.00    +0.000 A 
ATOM     22  C   UNL     1       0.477  10.248  19.795  0.00  0.00    +0.000 A 
ATOM     23  C   UNL     1       1.240   9.657  18.781  0.00  0.00    +0.000 A 
ATOM     24  C   UNL     1       1.849   8.406  19.017  0.00  0.00    +0.000 A 
ATOM     25  S   UNL     1       2.843   7.479  17.943  0.00  0.00    +0.000 S 
ENDBRANCH  15  17
ENDBRANCH   1  15
TORSDOF 6
ENDMDL
MODEL 4
REMARK VINA RESULT:      -7.1      3.514      5.729
REMARK  Name = 
REMARK  9 active torsions:
REMARK  status: ('A' for Active; 'I' for Inactive)
REMARK    1  A    between atoms: C_1  and  O_2
REMARK    2  A    between atoms: O_2  and  C_3
REMARK    3  A    between atoms: C_5  and  C_6
REMARK    4  A    between atoms: C_6  and  C_8
REMARK    5  A    between atoms: C_8  and  C_10
REMARK    6  A    between atoms: C_20  and  O_21
REMARK    7  A    between atoms: O_21  and  C_22
REMARK    8  A    between atoms: C_23  and  O_24
REMARK    9  A    between atoms: O_24  and  C_25
REMARK                            x       y       z     vdW  Elec       q    Type
REMARK                         _______ _______ _______ _____ _____    ______ ____
ROOT
ATOM      1  C   UNL     1       2.038   8.984  18.294  0.00  0.00    +0.000 C 
ATOM      2  O   UNL     1       2.408   9.637  17.325  0.00  0.00    +0.000 OA
ENDROOT
BRANCH   1   5
ATOM      3  C   UNL     1       4.371   6.012  18.067  0.00  0.00    +0.000 A 
ATOM      4  C   UNL     1       3.668   7.193  17.765  0.00  0.00    +0.000 A 
ATOM      5  C   UNL     1       2.617   7.634  18.569  0.00  0.00    +0.000 A 
ATOM      6  C   UNL     1       2.181   6.806  19.603  0.00  0.00    +0.000 A 
ATOM      7  C   UNL     1       2.811   5.575  19.868  0.00  0.00    +0.000 A 
ATOM      8  C   UNL     1       3.931   5.167  19.109  0.00  0.00    +0.000 A 
BRANCH   3  10
ATOM      9  C   UNL     1       5.216   5.039  16.070  0.00  0.00    +0.000 C 
ATOM     10  O   UNL     1       5.476   5.661  17.330  0.00  0.00    +0.000 OA
ENDBRANCH   3  10
BRANCH   7  11
ATOM     11  O   UNL     1       2.204   4.926  20.918  0.00  0.00    +0.000 OA
ATOM     12  C   UNL     1       1.117   4.045  20.677  0.00  0.00    +0.000 C 
ENDBRANCH   7  11
BRANCH   8  13
ATOM     13  O   UNL     1       4.477   3.961  19.452  0.00  0.00    +0.000 OA
ATOM     14  C   UNL     1       4.044   2.754  18.845  0.00  0.00    +0.000 C 
ENDBRANCH   8  13
ENDBRANCH   1   5
BRANCH   1  15
ATOM     15  C   UNL     1       0.991   9.562  19.229  0.00  0.00    +0.000 C 
ATOM     16  O   UNL     1       1.316   9.689  20.408  0.00  0.00    +0.000 OA
BRANCH  15  17
ATOM     17  C   UNL     1      -0.315   9.964  18.721  0.00  0.00    +0.000 A 
ATOM     18  C   UNL     1      -0.818   9.601  17.487  0.00  0.00    +0.000 A 
ATOM     19  C   UNL     1      -2.090  10.193  17.179  0.00  0.00    +0.000 A 
ATOM     20  C   UNL     1      -2.895  10.075  16.017  0.00  0.00    +0.000 A 
ATOM     21  C   UNL     1      -4.093  10.788  15.913  0.00  0.00    +0.000 A 
ATOM     22  C   UNL     1      -4.505  11.615  16.950  0.00  0.00    +0.000 A 
ATOM     23  C   UNL     1      -3.737  11.734  18.115  0.00  0.00    +0.000 A 
ATOM     24  C   UNL     1      -2.529  11.011  18.220  0.00  0.00    +0.000 A 
ATOM     25  S   UNL     1      -1.414  10.975  19.546  0.00  0.00    +0.000 S 
ENDBRANCH  15  17
ENDBRANCH   1  15
TORSDOF 6
ENDMDL
MODEL 5
REMARK VINA RESULT:      -7.0      2.456      7.097
REMARK  Name = 
REMARK  9 active torsions:
REMARK  status: ('A' for Active; 'I' for Inactive)
REMARK    1  A    between atoms: C_1  and  O_2
REMARK    2  A    between atoms: O_2  and  C_3
REMARK    3  A    between atoms: C_5  and  C_6
REMARK    4  A    between atoms: C_6  and  C_8
REMARK    5  A    between atoms: C_8  and  C_10
REMARK    6  A    between atoms: C_20  and  O_21
REMARK    7  A    between atoms: O_21  and  C_22
REMARK    8  A    between atoms: C_23  and  O_24
REMARK    9  A    between atoms: O_24  and  C_25
REMARK                            x       y       z     vdW  Elec       q    Type
REMARK                         _______ _______ _______ _____ _____    ______ ____
ROOT
ATOM      1  C   UNL     1       6.841   5.522  18.472  0.00  0.00    +0.000 C 
ATOM      2  O   UNL     1       7.807   5.375  19.211  0.00  0.00    +0.000 OA
ENDROOT
BRANCH   1   5
ATOM      3  C   UNL     1       3.995   3.306  19.619  0.00  0.00    +0.000 A 
ATOM      4  C   UNL     1       5.201   3.757  19.050  0.00  0.00    +0.000 A 
ATOM      5  C   UNL     1       5.473   5.118  18.915  0.00  0.00    +0.000 A 
ATOM      6  C   UNL     1       4.465   6.029  19.227  0.00  0.00    +0.000 A 
ATOM      7  C   UNL     1       3.215   5.598  19.714  0.00  0.00    +0.000 A 
ATOM      8  C   UNL     1       2.969   4.224  19.933  0.00  0.00    +0.000 A 
BRANCH   3  10
ATOM      9  C   UNL     1       3.693   1.141  18.688  0.00  0.00    +0.000 C 
ATOM     10  O   UNL     1       3.801   1.967  19.850  0.00  0.00    +0.000 OA
ENDBRANCH   3  10
BRANCH   7  11
ATOM     11  O   UNL     1       2.378   6.666  19.937  0.00  0.00    +0.000 OA
ATOM     12  C   UNL     1       2.268   7.698  18.968  0.00  0.00    +0.000 C 
ENDBRANCH   7  11
BRANCH   8  13
ATOM     13  O   UNL     1       1.729   3.909  20.417  0.00  0.00    +0.000 OA
ATOM     14  C   UNL     1       0.744   3.309  19.592  0.00  0.00    +0.000 C 
ENDBRANCH   8  13
ENDBRANCH   1   5
BRANCH   1  15
ATOM     15  C   UNL     1       7.040   6.134  17.096  0.00  0.00    +0.000 C 
ATOM     16  O   UNL     1       7.512   7.269  17.062  0.00  0.00    +0.000 OA
BRANCH  15  17
ATOM     17  C   UNL     1       6.705   5.380  15.894  0.00  0.00    +0.000 A 
ATOM     18  C   UNL     1       7.537   5.246  14.800  0.00  0.00    +0.000 A 
ATOM     19  C   UNL     1       6.950   4.527  13.705  0.00  0.00    +0.000 A 
ATOM     20  C   UNL     1       7.480   4.213  12.427  0.00  0.00    +0.000 A 
ATOM     21  C   UNL     1       6.701   3.532  11.487  0.00  0.00    +0.000 A 
ATOM     22  C   UNL     1       5.402   3.155  11.799  0.00  0.00    +0.000 A 
ATOM     23  C   UNL     1       4.861   3.437  13.060  0.00  0.00    +0.000 A 
ATOM     24  C   UNL     1       5.650   4.121  14.010  0.00  0.00    +0.000 A 
ATOM     25  S   UNL     1       5.225   4.574  15.627  0.00  0.00    +0.000 S 
ENDBRANCH  15  17
ENDBRANCH   1  15
TORSDOF 6
ENDMDL
MODEL 6
REMARK VINA RESULT:      -7.0      1.642      2.374
REMARK  Name = 
REMARK  9 active torsions:
REMARK  status: ('A' for Active; 'I' for Inactive)
REMARK    1  A    between atoms: C_1  and  O_2
REMARK    2  A    between atoms: O_2  and  C_3
REMARK    3  A    between atoms: C_5  and  C_6
REMARK    4  A    between atoms: C_6  and  C_8
REMARK    5  A    between atoms: C_8  and  C_10
REMARK    6  A    between atoms: C_20  and  O_21
REMARK    7  A    between atoms: O_21  and  C_22
REMARK    8  A    between atoms: C_23  and  O_24
REMARK    9  A    between atoms: O_24  and  C_25
REMARK                            x       y       z     vdW  Elec       q    Type
REMARK                         _______ _______ _______ _____ _____    ______ ____
ROOT
ATOM      1  C   UNL     1       3.770   3.011  18.214  0.00  0.00    +0.000 C 
ATOM      2  O   UNL     1       3.748   1.902  17.692  0.00  0.00    +0.000 OA
ENDROOT
BRANCH   1   5
ATOM      3  C   UNL     1       6.090   5.300  16.290  0.00  0.00    +0.000 A 
ATOM      4  C   UNL     1       5.164   4.292  16.614  0.00  0.00    +0.000 A 
ATOM      5  C   UNL     1       4.892   3.959  17.942  0.00  0.00    +0.000 A 
ATOM      6  C   UNL     1       5.661   4.550  18.943  0.00  0.00    +0.000 A 
ATOM      7  C   UNL     1       6.658   5.496  18.637  0.00  0.00    +0.000 A 
ATOM      8  C   UNL     1       6.876   5.898  17.299  0.00  0.00    +0.000 A 
BRANCH   3  10
ATOM      9  C   UNL     1       6.931   4.762  14.133  0.00  0.00    +0.000 C 
ATOM     10  O   UNL     1       6.254   5.690  14.983  0.00  0.00    +0.000 OA
ENDBRANCH   3  10
BRANCH   7  11
ATOM     11  O   UNL     1       7.294   5.929  19.776  0.00  0.00    +0.000 OA
ATOM     12  C   UNL     1       8.466   5.268  20.231  0.00  0.00    +0.000 C 
ENDBRANCH   7  11
BRANCH   8  13
ATOM     13  O   UNL     1       7.858   6.829  17.108  0.00  0.00    +0.000 OA
ATOM     14  C   UNL     1       7.706   8.167  17.553  0.00  0.00    +0.000 C 
ENDBRANCH   8  13
ENDBRANCH   1   5
BRANCH   1  15
ATOM     15  C   UNL     1       2.637   3.426  19.136  0.00  0.00    +0.000 C 
ATOM     16  O   UNL     1       2.085   2.527  19.769  0.00  0.00    +0.000 OA
BRANCH  15  17
ATOM     17  C   UNL     1       2.264   4.829  19.266  0.00  0.00    +0.000 A 
ATOM     18  C   UNL     1       2.255   5.734  18.223  0.00  0.00    +0.000 A 
ATOM     19  C   UNL     1       1.934   7.077  18.619  0.00  0.00    +0.000 A 
ATOM     20  C   UNL     1       1.849   8.262  17.845  0.00  0.00    +0.000 A 
ATOM     21  C   UNL     1       1.560   9.486  18.456  0.00  0.00    +0.000 A 
ATOM     22  C   UNL     1       1.351   9.548  19.827  0.00  0.00    +0.000 A 
ATOM     23  C   UNL     1       1.410   8.389  20.611  0.00  0.00    +0.000 A 
ATOM     24  C   UNL     1       1.699   7.153  19.992  0.00  0.00    +0.000 A 
ATOM     25  S   UNL     1       1.816   5.589  20.726  0.00  0.00    +0.000 S 
ENDBRANCH  15  17
ENDBRANCH   1  15
TORSDOF 6
ENDMDL
MODEL 7
REMARK VINA RESULT:      -6.9      4.786      9.267
REMARK  Name = 
REMARK  9 active torsions:
REMARK  status: ('A' for Active; 'I' for Inactive)
REMARK    1  A    between atoms: C_1  and  O_2
REMARK    2  A    between atoms: O_2  and  C_3
REMARK    3  A    between atoms: C_5  and  C_6
REMARK    4  A    between atoms: C_6  and  C_8
REMARK    5  A    between atoms: C_8  and  C_10
REMARK    6  A    between atoms: C_20  and  O_21
REMARK    7  A    between atoms: O_21  and  C_22
REMARK    8  A    between atoms: C_23  and  O_24
REMARK    9  A    between atoms: O_24  and  C_25
REMARK                            x       y       z     vdW  Elec       q    Type
REMARK                         _______ _______ _______ _____ _____    ______ ____
ROOT
ATOM      1  C   UNL     1       1.018  10.072  18.778  0.00  0.00    +0.000 C 
ATOM      2  O   UNL     1       1.914  10.799  18.365  0.00  0.00    +0.000 OA
ENDROOT
BRANCH   1   5
ATOM      3  C   UNL     1      -2.336  11.794  19.107  0.00  0.00    +0.000 A 
ATOM      4  C   UNL     1      -1.046  11.305  19.381  0.00  0.00    +0.000 A 
ATOM      5  C   UNL     1      -0.415  10.405  18.521  0.00  0.00    +0.000 A 
ATOM      6  C   UNL     1      -1.146   9.888  17.453  0.00  0.00    +0.000 A 
ATOM      7  C   UNL     1      -2.473  10.292  17.210  0.00  0.00    +0.000 A 
ATOM      8  C   UNL     1      -3.083  11.269  18.030  0.00  0.00    +0.000 A 
BRANCH   3  10
ATOM      9  C   UNL     1      -2.520  12.728  21.284  0.00  0.00    +0.000 C 
ATOM     10  O   UNL     1      -2.888  12.766  19.904  0.00  0.00    +0.000 OA
ENDBRANCH   3  10
BRANCH   7  11
ATOM     11  O   UNL     1      -2.995   9.641  16.118  0.00  0.00    +0.000 OA
ATOM     12  C   UNL     1      -3.077  10.306  14.866  0.00  0.00    +0.000 C 
ENDBRANCH   7  11
BRANCH   8  13
ATOM     13  O   UNL     1      -4.370  11.601  17.705  0.00  0.00    +0.000 OA
ATOM     14  C   UNL     1      -5.476  10.961  18.320  0.00  0.00    +0.000 C 
ENDBRANCH   8  13
ENDBRANCH   1   5
BRANCH   1  15
ATOM     15  C   UNL     1       1.374   8.814  19.549  0.00  0.00    +0.000 C 
ATOM     16  O   UNL     1       0.856   8.681  20.657  0.00  0.00    +0.000 OA
BRANCH  15  17
ATOM     17  C   UNL     1       2.266   7.817  18.969  0.00  0.00    +0.000 A 
ATOM     18  C   UNL     1       3.074   8.037  17.871  0.00  0.00    +0.000 A 
ATOM     19  C   UNL     1       3.797   6.875  17.437  0.00  0.00    +0.000 A 
ATOM     20  C   UNL     1       4.693   6.709  16.349  0.00  0.00    +0.000 A 
ATOM     21  C   UNL     1       5.256   5.457  16.082  0.00  0.00    +0.000 A 
ATOM     22  C   UNL     1       4.942   4.367  16.882  0.00  0.00    +0.000 A 
ATOM     23  C   UNL     1       4.074   4.508  17.972  0.00  0.00    +0.000 A 
ATOM     24  C   UNL     1       3.510   5.774  18.243  0.00  0.00    +0.000 A 
ATOM     25  S   UNL     1       2.429   6.212  19.525  0.00  0.00    +0.000 S 
ENDBRANCH  15  17
ENDBRANCH   1  15
TORSDOF 6
ENDMDL
MODEL 8
REMARK VINA RESULT:      -6.9      2.700      4.217
REMARK  Name = 
REMARK  9 active torsions:
REMARK  status: ('A' for Active; 'I' for Inactive)
REMARK    1  A    between atoms: C_1  and  O_2
REMARK    2  A    between atoms: O_2  and  C_3
REMARK    3  A    between atoms: C_5  and  C_6
REMARK    4  A    between atoms: C_6  and  C_8
REMARK    5  A    between atoms: C_8  and  C_10
REMARK    6  A    between atoms: C_20  and  O_21
REMARK    7  A    between atoms: O_21  and  C_22
REMARK    8  A    between atoms: C_23  and  O_24
REMARK    9  A    between atoms: O_24  and  C_25
REMARK                            x       y       z     vdW  Elec       q    Type
REMARK                         _______ _______ _______ _____ _____    ______ ____
ROOT
ATOM      1  C   UNL     1       2.292   7.756  18.854  0.00  0.00    +0.000 C 
ATOM      2  O   UNL     1       1.915   7.558  20.003  0.00  0.00    +0.000 OA
ENDROOT
BRANCH   1   5
ATOM      3  C   UNL     1       3.487   4.540  17.255  0.00  0.00    +0.000 A 
ATOM      4  C   UNL     1       2.765   5.467  18.029  0.00  0.00    +0.000 A 
ATOM      5  C   UNL     1       3.199   6.785  18.172  0.00  0.00    +0.000 A 
ATOM      6  C   UNL     1       4.442   7.132  17.645  0.00  0.00    +0.000 A 
ATOM      7  C   UNL     1       5.227   6.196  16.943  0.00  0.00    +0.000 A 
ATOM      8  C   UNL     1       4.748   4.885  16.724  0.00  0.00    +0.000 A 
BRANCH   3  10
ATOM      9  C   UNL     1       3.129   2.350  18.106  0.00  0.00    +0.000 C 
ATOM     10  O   UNL     1       2.978   3.283  17.034  0.00  0.00    +0.000 OA
ENDBRANCH   3  10
BRANCH   7  11
ATOM     11  O   UNL     1       6.412   6.757  16.532  0.00  0.00    +0.000 OA
ATOM     12  C   UNL     1       7.413   7.084  17.485  0.00  0.00    +0.000 C 
ENDBRANCH   7  11
BRANCH   8  13
ATOM     13  O   UNL     1       5.580   4.055  16.023  0.00  0.00    +0.000 OA
ATOM     14  C   UNL     1       5.662   4.114  14.609  0.00  0.00    +0.000 C 
ENDBRANCH   8  13
ENDBRANCH   1   5
BRANCH   1  15
ATOM     15  C   UNL     1       1.818   8.995  18.116  0.00  0.00    +0.000 C 
ATOM     16  O   UNL     1       2.442   9.303  17.102  0.00  0.00    +0.000 OA
BRANCH  15  17
ATOM     17  C   UNL     1       0.662   9.744  18.591  0.00  0.00    +0.000 A 
ATOM     18  C   UNL     1      -0.550   9.810  17.932  0.00  0.00    +0.000 A 
ATOM     19  C   UNL     1      -1.507  10.681  18.556  0.00  0.00    +0.000 A 
ATOM     20  C   UNL     1      -2.829  11.015  18.166  0.00  0.00    +0.000 A 
ATOM     21  C   UNL     1      -3.574  11.935  18.911  0.00  0.00    +0.000 A 
ATOM     22  C   UNL     1      -3.024  12.525  20.041  0.00  0.00    +0.000 A 
ATOM     23  C   UNL     1      -1.728  12.197  20.457  0.00  0.00    +0.000 A 
ATOM     24  C   UNL     1      -0.978  11.266  19.706  0.00  0.00    +0.000 A 
ATOM     25  S   UNL     1       0.626  10.688  20.012  0.00  0.00    +0.000 S 
ENDBRANCH  15  17
ENDBRANCH   1  15
TORSDOF 6
ENDMDL
MODEL 9
REMARK VINA RESULT:      -6.9      2.409      4.491
REMARK  Name = 
REMARK  9 active torsions:
REMARK  status: ('A' for Active; 'I' for Inactive)
REMARK    1  A    between atoms: C_1  and  O_2
REMARK    2  A    between atoms: O_2  and  C_3
REMARK    3  A    between atoms: C_5  and  C_6
REMARK    4  A    between atoms: C_6  and  C_8
REMARK    5  A    between atoms: C_8  and  C_10
REMARK    6  A    between atoms: C_20  and  O_21
REMARK    7  A    between atoms: O_21  and  C_22
REMARK    8  A    between atoms: C_23  and  O_24
REMARK    9  A    between atoms: O_24  and  C_25
REMARK                            x       y       z     vdW  Elec       q    Type
REMARK                         _______ _______ _______ _____ _____    ______ ____
ROOT
ATOM      1  C   UNL     1       2.458   7.257  19.050  0.00  0.00    +0.000 C 
ATOM      2  O   UNL     1       2.221   6.910  20.200  0.00  0.00    +0.000 OA
ENDROOT
BRANCH   1   5
ATOM      3  C   UNL     1       5.369   6.159  16.894  0.00  0.00    +0.000 A 
ATOM      4  C   UNL     1       4.453   6.950  17.611  0.00  0.00    +0.000 A 
ATOM      5  C   UNL     1       3.289   6.401  18.150  0.00  0.00    +0.000 A 
ATOM      6  C   UNL     1       2.979   5.077  17.844  0.00  0.00    +0.000 A 
ATOM      7  C   UNL     1       3.836   4.290  17.051  0.00  0.00    +0.000 A 
ATOM      8  C   UNL     1       5.057   4.819  16.577  0.00  0.00    +0.000 A 
BRANCH   3  10
ATOM      9  C   UNL     1       7.387   7.260  17.497  0.00  0.00    +0.000 C 
ATOM     10  O   UNL     1       6.563   6.694  16.476  0.00  0.00    +0.000 OA
ENDBRANCH   3  10
BRANCH   7  11
ATOM     11  O   UNL     1       3.320   3.028  16.870  0.00  0.00    +0.000 OA
ATOM     12  C   UNL     1       2.556   2.418  17.900  0.00  0.00    +0.000 C 
ENDBRANCH   7  11
BRANCH   8  13
ATOM     13  O   UNL     1       5.823   3.971  15.825  0.00  0.00    +0.000 OA
ATOM     14  C   UNL     1       5.937   4.127  14.420  0.00  0.00    +0.000 C 
ENDBRANCH   8  13
ENDBRANCH   1   5
BRANCH   1  15
ATOM     15  C   UNL     1       1.888   8.566  18.532  0.00  0.00    +0.000 C 
ATOM     16  O   UNL     1       2.118   8.839  17.355  0.00  0.00    +0.000 OA
BRANCH  15  17
ATOM     17  C   UNL     1       1.089   9.421  19.401  0.00  0.00    +0.000 A 
ATOM     18  C   UNL     1       0.903   9.204  20.752  0.00  0.00    +0.000 A 
ATOM     19  C   UNL     1       0.005  10.137  21.374  0.00  0.00    +0.000 A 
ATOM     20  C   UNL     1      -0.442  10.218  22.718  0.00  0.00    +0.000 A 
ATOM     21  C   UNL     1      -1.367  11.196  23.097  0.00  0.00    +0.000 A 
ATOM     22  C   UNL     1      -1.853  12.097  22.158  0.00  0.00    +0.000 A 
ATOM     23  C   UNL     1      -1.414  12.048  20.829  0.00  0.00    +0.000 A 
ATOM     24  C   UNL     1      -0.477  11.063  20.449  0.00  0.00    +0.000 A 
ATOM     25  S   UNL     1       0.227  10.801  18.888  0.00  0.00    +0.000 S 
ENDBRANCH  15  17
ENDBRANCH   1  15
TORSDOF 6
ENDMDL
