MODEL 1
REMARK VINA RESULT:      -8.3      0.000      0.000
REMARK  Name = 
REMARK  5 active torsions:
REMARK  status: ('A' for Active; 'I' for Inactive)
REMARK    1  A    between atoms: C_2  and  O_3
REMARK    2  A    between atoms: C_2  and  C_4
REMARK    3  A    between atoms: C_4  and  C_5
REMARK    4  A    between atoms: C_8  and  C_9
REMARK    5  A    between atoms: C_12  and  C_13
REMARK                            x       y       z     vdW  Elec       q    Type
REMARK                         _______ _______ _______ _____ _____    ______ ____
ROOT
ATOM      1  C   UNL     1       1.008   8.990  20.362  0.00  0.00    +0.000 A 
ATOM      2  C   UNL     1       1.253   9.353  19.031  0.00  0.00    +0.000 A 
ATOM      3  C   UNL     1       2.023   8.549  18.181  0.00  0.00    +0.000 A 
ATOM      4  C   UNL     1       2.592   7.342  18.626  0.00  0.00    +0.000 A 
ATOM      5  C   UNL     1       2.290   6.963  19.942  0.00  0.00    +0.000 A 
ATOM      6  F   UNL     1       2.789   5.831  20.466  0.00  0.00    +0.000 F 
ATOM      7  C   UNL     1       1.504   7.752  20.784  0.00  0.00    +0.000 A 
ENDROOT
BRANCH   4   8
ATOM      8  C   UNL     1       3.474   6.535  17.749  0.00  0.00    +0.000 A 
ATOM      9  C   UNL     1       3.350   5.134  17.672  0.00  0.00    +0.000 A 
ATOM     10  C   UNL     1       4.190   4.366  16.855  0.00  0.00    +0.000 A 
ATOM     11  C   UNL     1       5.175   4.978  16.074  0.00  0.00    +0.000 A 
ATOM     12  C   UNL     1       5.295   6.371  16.121  0.00  0.00    +0.000 A 
ATOM     13  C   UNL     1       4.465   7.131  16.951  0.00  0.00    +0.000 A 
BRANCH  11  14
ATOM     14  C   UNL     1       6.101   4.172  15.196  0.00  0.00    +0.000 C 
ATOM     15  F   UNL     1       5.918   4.392  13.864  0.00  0.00    +0.000 F 
ATOM     16  F   UNL     1       7.413   4.437  15.441  0.00  0.00    +0.000 F 
ATOM     17  F   UNL     1       5.948   2.831  15.376  0.00  0.00    +0.000 F 
ENDBRANCH  11  14
ENDBRANCH   4   8
BRANCH   1  18
ATOM     18  C   UNL     1       0.294   9.932  21.323  0.00  0.00    +0.000 C 
ATOM     19  C   UNL     1      -0.777  10.840  20.716  0.00  0.00    +0.000 C 
ATOM     20  C   UNL     1       0.527  11.434  21.136  0.00  0.00    +0.000 C 
BRANCH  18  22
ATOM     21  O   UNL     1       0.725   9.708  23.661  0.00  0.00    +0.000 OA
ATOM     22  C   UNL     1       0.029   9.412  22.707  0.00  0.00    +0.000 C 
BRANCH  22  23
ATOM     23  O   UNL     1      -1.048   8.594  22.783  0.00  0.00    +0.000 OA
ATOM     24  H   UNL     1      -1.489   8.646  23.649  0.00  0.00    +0.000 HD
ENDBRANCH  22  23
ENDBRANCH  18  22
ENDBRANCH   1  18
TORSDOF 5
ENDMDL
MODEL 2
REMARK VINA RESULT:      -8.3      0.196      1.249
REMARK  Name = 
REMARK  5 active torsions:
REMARK  status: ('A' for Active; 'I' for Inactive)
REMARK    1  A    between atoms: C_2  and  O_3
REMARK    2  A    between atoms: C_2  and  C_4
REMARK    3  A    between atoms: C_4  and  C_5
REMARK    4  A    between atoms: C_8  and  C_9
REMARK    5  A    between atoms: C_12  and  C_13
REMARK                            x       y       z     vdW  Elec       q    Type
REMARK                         _______ _______ _______ _____ _____    ______ ____
ROOT
ATOM      1  C   UNL     1       1.038   9.034  20.336  0.00  0.00    +0.000 A 
ATOM      2  C   UNL     1       1.313   9.399  19.011  0.00  0.00    +0.000 A 
ATOM      3  C   UNL     1       2.069   8.578  18.165  0.00  0.00    +0.000 A 
ATOM      4  C   UNL     1       2.594   7.350  18.607  0.00  0.00    +0.000 A 
ATOM      5  C   UNL     1       2.262   6.970  19.916  0.00  0.00    +0.000 A 
ATOM      6  F   UNL     1       2.718   5.819  20.437  0.00  0.00    +0.000 F 
ATOM      7  C   UNL     1       1.489   7.777  20.754  0.00  0.00    +0.000 A 
ENDROOT
BRANCH   4   8
ATOM      8  C   UNL     1       3.462   6.524  17.735  0.00  0.00    +0.000 A 
ATOM      9  C   UNL     1       4.475   7.104  16.946  0.00  0.00    +0.000 A 
ATOM     10  C   UNL     1       5.290   6.331  16.110  0.00  0.00    +0.000 A 
ATOM     11  C   UNL     1       5.127   4.943  16.046  0.00  0.00    +0.000 A 
ATOM     12  C   UNL     1       4.142   4.349  16.841  0.00  0.00    +0.000 A 
ATOM     13  C   UNL     1       3.320   5.129  17.662  0.00  0.00    +0.000 A 
BRANCH  11  14
ATOM     14  C   UNL     1       5.983   4.088  15.144  0.00  0.00    +0.000 C 
ATOM     15  F   UNL     1       7.288   4.473  15.104  0.00  0.00    +0.000 F 
ATOM     16  F   UNL     1       5.990   2.780  15.519  0.00  0.00    +0.000 F 
ATOM     17  F   UNL     1       5.550   4.106  13.853  0.00  0.00    +0.000 F 
ENDBRANCH  11  14
ENDBRANCH   4   8
BRANCH   1  18
ATOM     18  C   UNL     1       0.341   9.990  21.295  0.00  0.00    +0.000 C 
ATOM     19  C   UNL     1      -0.817  10.807  20.719  0.00  0.00    +0.000 C 
ATOM     20  C   UNL     1       0.478  11.489  21.015  0.00  0.00    +0.000 C 
BRANCH  18  22
ATOM     21  O   UNL     1       1.100   9.641  23.532  0.00  0.00    +0.000 OA
ATOM     22  C   UNL     1       0.199   9.534  22.719  0.00  0.00    +0.000 C 
BRANCH  22  23
ATOM     23  O   UNL     1      -1.014   9.002  23.001  0.00  0.00    +0.000 OA
ATOM     24  H   UNL     1      -1.272   9.148  23.929  0.00  0.00    +0.000 HD
ENDBRANCH  22  23
ENDBRANCH  18  22
ENDBRANCH   1  18
TORSDOF 5
ENDMDL
MODEL 3
REMARK VINA RESULT:      -8.0      1.080      2.018
REMARK  Name = 
REMARK  5 active torsions:
REMARK  status: ('A' for Active; 'I' for Inactive)
REMARK    1  A    between atoms: C_2  and  O_3
REMARK    2  A    between atoms: C_2  and  C_4
REMARK    3  A    between atoms: C_4  and  C_5
REMARK    4  A    between atoms: C_8  and  C_9
REMARK    5  A    between atoms: C_12  and  C_13
REMARK                            x       y       z     vdW  Elec       q    Type
REMARK                         _______ _______ _______ _____ _____    ______ ____
ROOT
ATOM      1  C   UNL     1       1.064   8.812  20.455  0.00  0.00    +0.000 A 
ATOM      2  C   UNL     1       1.327   9.235  19.145  0.00  0.00    +0.000 A 
ATOM      3  C   UNL     1       2.092   8.461  18.264  0.00  0.00    +0.000 A 
ATOM      4  C   UNL     1       2.637   7.224  18.653  0.00  0.00    +0.000 A 
ATOM      5  C   UNL     1       2.316   6.785  19.946  0.00  0.00    +0.000 A 
ATOM      6  F   UNL     1       2.792   5.621  20.418  0.00  0.00    +0.000 F 
ATOM      7  C   UNL     1       1.536   7.545  20.820  0.00  0.00    +0.000 A 
ENDROOT
BRANCH   4   8
ATOM      8  C   UNL     1       3.513   6.446  17.744  0.00  0.00    +0.000 A 
ATOM      9  C   UNL     1       4.515   7.073  16.977  0.00  0.00    +0.000 A 
ATOM     10  C   UNL     1       5.337   6.347  16.107  0.00  0.00    +0.000 A 
ATOM     11  C   UNL     1       5.194   4.961  15.986  0.00  0.00    +0.000 A 
ATOM     12  C   UNL     1       4.220   4.320  16.759  0.00  0.00    +0.000 A 
ATOM     13  C   UNL     1       3.390   5.054  17.614  0.00  0.00    +0.000 A 
BRANCH  11  14
ATOM     14  C   UNL     1       6.058   4.156  15.046  0.00  0.00    +0.000 C 
ATOM     15  F   UNL     1       7.364   4.540  15.042  0.00  0.00    +0.000 F 
ATOM     16  F   UNL     1       6.059   2.829  15.347  0.00  0.00    +0.000 F 
ATOM     17  F   UNL     1       5.639   4.248  13.753  0.00  0.00    +0.000 F 
ENDBRANCH  11  14
ENDBRANCH   4   8
BRANCH   1  18
ATOM     18  C   UNL     1       0.358   9.717  21.455  0.00  0.00    +0.000 C 
ATOM     19  C   UNL     1       0.680   9.482  22.933  0.00  0.00    +0.000 C 
ATOM     20  C   UNL     1      -0.652   9.062  22.403  0.00  0.00    +0.000 C 
BRANCH  18  22
ATOM     21  O   UNL     1      -0.841  11.484  20.385  0.00  0.00    +0.000 OA
ATOM     22  C   UNL     1       0.130  11.141  21.035  0.00  0.00    +0.000 C 
BRANCH  22  23
ATOM     23  O   UNL     1       1.101  11.991  21.448  0.00  0.00    +0.000 OA
ATOM     24  H   UNL     1       1.069  12.146  22.409  0.00  0.00    +0.000 HD
ENDBRANCH  22  23
ENDBRANCH  18  22
ENDBRANCH   1  18
TORSDOF 5
ENDMDL
MODEL 4
REMARK VINA RESULT:      -8.0      4.180      8.470
REMARK  Name = 
REMARK  5 active torsions:
REMARK  status: ('A' for Active; 'I' for Inactive)
REMARK    1  A    between atoms: C_2  and  O_3
REMARK    2  A    between atoms: C_2  and  C_4
REMARK    3  A    between atoms: C_4  and  C_5
REMARK    4  A    between atoms: C_8  and  C_9
REMARK    5  A    between atoms: C_12  and  C_13
REMARK                            x       y       z     vdW  Elec       q    Type
REMARK                         _______ _______ _______ _____ _____    ______ ____
ROOT
ATOM      1  C   UNL     1       3.466   5.813  18.615  0.00  0.00    +0.000 A 
ATOM      2  C   UNL     1       2.789   5.525  19.807  0.00  0.00    +0.000 A 
ATOM      3  C   UNL     1       1.956   6.467  20.424  0.00  0.00    +0.000 A 
ATOM      4  C   UNL     1       1.763   7.749  19.878  0.00  0.00    +0.000 A 
ATOM      5  C   UNL     1       2.399   8.003  18.654  0.00  0.00    +0.000 A 
ATOM      6  F   UNL     1       2.285   9.197  18.052  0.00  0.00    +0.000 F 
ATOM      7  C   UNL     1       3.213   7.058  18.026  0.00  0.00    +0.000 A 
ENDROOT
BRANCH   4   8
ATOM      8  C   UNL     1       0.946   8.770  20.577  0.00  0.00    +0.000 A 
ATOM      9  C   UNL     1       0.898   8.834  21.983  0.00  0.00    +0.000 A 
ATOM     10  C   UNL     1       0.118   9.788  22.649  0.00  0.00    +0.000 A 
ATOM     11  C   UNL     1      -0.632  10.722  21.927  0.00  0.00    +0.000 A 
ATOM     12  C   UNL     1      -0.576  10.686  20.530  0.00  0.00    +0.000 A 
ATOM     13  C   UNL     1       0.192   9.721  19.870  0.00  0.00    +0.000 A 
BRANCH  11  14
ATOM     14  C   UNL     1      -1.491  11.751  22.619  0.00  0.00    +0.000 C 
ATOM     15  F   UNL     1      -2.347  12.400  21.782  0.00  0.00    +0.000 F 
ATOM     16  F   UNL     1      -2.266  11.210  23.599  0.00  0.00    +0.000 F 
ATOM     17  F   UNL     1      -0.750  12.723  23.220  0.00  0.00    +0.000 F 
ENDBRANCH  11  14
ENDBRANCH   4   8
BRANCH   1  18
ATOM     18  C   UNL     1       4.481   4.844  18.024  0.00  0.00    +0.000 C 
ATOM     19  C   UNL     1       4.941   5.129  16.593  0.00  0.00    +0.000 C 
ATOM     20  C   UNL     1       4.022   3.980  16.846  0.00  0.00    +0.000 C 
BRANCH  18  22
ATOM     21  O   UNL     1       6.498   4.921  19.300  0.00  0.00    +0.000 OA
ATOM     22  C   UNL     1       5.513   4.289  18.964  0.00  0.00    +0.000 C 
BRANCH  22  23
ATOM     23  O   UNL     1       5.238   3.033  19.391  0.00  0.00    +0.000 OA
ATOM     24  H   UNL     1       4.367   2.974  19.822  0.00  0.00    +0.000 HD
ENDBRANCH  22  23
ENDBRANCH  18  22
ENDBRANCH   1  18
TORSDOF 5
ENDMDL
MODEL 5
REMARK VINA RESULT:      -8.0      1.089      1.955
REMARK  Name = 
REMARK  5 active torsions:
REMARK  status: ('A' for Active; 'I' for Inactive)
REMARK    1  A    between atoms: C_2  and  O_3
REMARK    2  A    between atoms: C_2  and  C_4
REMARK    3  A    between atoms: C_4  and  C_5
REMARK    4  A    between atoms: C_8  and  C_9
REMARK    5  A    between atoms: C_12  and  C_13
REMARK                            x       y       z     vdW  Elec       q    Type
REMARK                         _______ _______ _______ _____ _____    ______ ____
ROOT
ATOM      1  C   UNL     1       1.073   8.821  20.491  0.00  0.00    +0.000 A 
ATOM      2  C   UNL     1       1.319   9.247  19.179  0.00  0.00    +0.000 A 
ATOM      3  C   UNL     1       2.069   8.473  18.285  0.00  0.00    +0.000 A 
ATOM      4  C   UNL     1       2.616   7.233  18.664  0.00  0.00    +0.000 A 
ATOM      5  C   UNL     1       2.313   6.793  19.961  0.00  0.00    +0.000 A 
ATOM      6  F   UNL     1       2.792   5.627  20.423  0.00  0.00    +0.000 F 
ATOM      7  C   UNL     1       1.546   7.553  20.846  0.00  0.00    +0.000 A 
ENDROOT
BRANCH   4   8
ATOM      8  C   UNL     1       3.478   6.456  17.742  0.00  0.00    +0.000 A 
ATOM      9  C   UNL     1       4.481   7.080  16.974  0.00  0.00    +0.000 A 
ATOM     10  C   UNL     1       5.290   6.354  16.091  0.00  0.00    +0.000 A 
ATOM     11  C   UNL     1       5.131   4.970  15.957  0.00  0.00    +0.000 A 
ATOM     12  C   UNL     1       4.155   4.333  16.730  0.00  0.00    +0.000 A 
ATOM     13  C   UNL     1       3.339   5.066  17.598  0.00  0.00    +0.000 A 
BRANCH  11  14
ATOM     14  C   UNL     1       5.980   4.166  15.003  0.00  0.00    +0.000 C 
ATOM     15  F   UNL     1       6.185   2.882  15.406  0.00  0.00    +0.000 F 
ATOM     16  F   UNL     1       5.432   4.085  13.760  0.00  0.00    +0.000 F 
ATOM     17  F   UNL     1       7.218   4.706  14.833  0.00  0.00    +0.000 F 
ENDBRANCH  11  14
ENDBRANCH   4   8
BRANCH   1  18
ATOM     18  C   UNL     1       0.382   9.726  21.503  0.00  0.00    +0.000 C 
ATOM     19  C   UNL     1       0.664   9.437  22.979  0.00  0.00    +0.000 C 
ATOM     20  C   UNL     1      -0.672   9.086  22.411  0.00  0.00    +0.000 C 
BRANCH  18  22
ATOM     21  O   UNL     1       1.045  12.018  21.408  0.00  0.00    +0.000 OA
ATOM     22  C   UNL     1       0.220  11.169  21.120  0.00  0.00    +0.000 C 
BRANCH  22  23
ATOM     23  O   UNL     1      -0.919  11.425  20.433  0.00  0.00    +0.000 OA
ATOM     24  H   UNL     1      -1.696  11.478  21.017  0.00  0.00    +0.000 HD
ENDBRANCH  22  23
ENDBRANCH  18  22
ENDBRANCH   1  18
TORSDOF 5
ENDMDL
MODEL 6
REMARK VINA RESULT:      -8.0      1.077      1.446
REMARK  Name = 
REMARK  5 active torsions:
REMARK  status: ('A' for Active; 'I' for Inactive)
REMARK    1  A    between atoms: C_2  and  O_3
REMARK    2  A    between atoms: C_2  and  C_4
REMARK    3  A    between atoms: C_4  and  C_5
REMARK    4  A    between atoms: C_8  and  C_9
REMARK    5  A    between atoms: C_12  and  C_13
REMARK                            x       y       z     vdW  Elec       q    Type
REMARK                         _______ _______ _______ _____ _____    ______ ____
ROOT
ATOM      1  C   UNL     1       1.079   8.803  20.465  0.00  0.00    +0.000 A 
ATOM      2  C   UNL     1       1.322   9.219  19.149  0.00  0.00    +0.000 A 
ATOM      3  C   UNL     1       2.081   8.443  18.262  0.00  0.00    +0.000 A 
ATOM      4  C   UNL     1       2.638   7.212  18.653  0.00  0.00    +0.000 A 
ATOM      5  C   UNL     1       2.338   6.781  19.953  0.00  0.00    +0.000 A 
ATOM      6  F   UNL     1       2.827   5.623  20.427  0.00  0.00    +0.000 F 
ATOM      7  C   UNL     1       1.564   7.542  20.832  0.00  0.00    +0.000 A 
ENDROOT
BRANCH   4   8
ATOM      8  C   UNL     1       3.509   6.435  17.738  0.00  0.00    +0.000 A 
ATOM      9  C   UNL     1       3.382   5.037  17.616  0.00  0.00    +0.000 A 
ATOM     10  C   UNL     1       4.210   4.295  16.765  0.00  0.00    +0.000 A 
ATOM     11  C   UNL     1       5.186   4.932  15.991  0.00  0.00    +0.000 A 
ATOM     12  C   UNL     1       5.308   6.322  16.083  0.00  0.00    +0.000 A 
ATOM     13  C   UNL     1       4.490   7.056  16.949  0.00  0.00    +0.000 A 
BRANCH  11  14
ATOM     14  C   UNL     1       6.099   4.155  15.075  0.00  0.00    +0.000 C 
ATOM     15  F   UNL     1       5.801   4.302  13.755  0.00  0.00    +0.000 F 
ATOM     16  F   UNL     1       7.404   4.522  15.207  0.00  0.00    +0.000 F 
ATOM     17  F   UNL     1       6.060   2.816  15.320  0.00  0.00    +0.000 F 
ENDBRANCH  11  14
ENDBRANCH   4   8
BRANCH   1  18
ATOM     18  C   UNL     1       0.379   9.710  21.468  0.00  0.00    +0.000 C 
ATOM     19  C   UNL     1       0.639   9.418  22.947  0.00  0.00    +0.000 C 
ATOM     20  C   UNL     1      -0.691   9.075  22.361  0.00  0.00    +0.000 C 
BRANCH  18  22
ATOM     21  O   UNL     1       1.041  12.004  21.410  0.00  0.00    +0.000 OA
ATOM     22  C   UNL     1       0.231  11.155  21.084  0.00  0.00    +0.000 C 
BRANCH  22  23
ATOM     23  O   UNL     1      -0.878  11.410  20.350  0.00  0.00    +0.000 OA
ATOM     24  H   UNL     1      -1.349  10.595  20.100  0.00  0.00    +0.000 HD
ENDBRANCH  22  23
ENDBRANCH  18  22
ENDBRANCH   1  18
TORSDOF 5
ENDMDL
MODEL 7
REMARK VINA RESULT:      -8.0      4.179      8.478
REMARK  Name = 
REMARK  5 active torsions:
REMARK  status: ('A' for Active; 'I' for Inactive)
REMARK    1  A    between atoms: C_2  and  O_3
REMARK    2  A    between atoms: C_2  and  C_4
REMARK    3  A    between atoms: C_4  and  C_5
REMARK    4  A    between atoms: C_8  and  C_9
REMARK    5  A    between atoms: C_12  and  C_13
REMARK                            x       y       z     vdW  Elec       q    Type
REMARK                         _______ _______ _______ _____ _____    ______ ____
ROOT
ATOM      1  C   UNL     1       3.581   5.876  18.510  0.00  0.00    +0.000 A 
ATOM      2  C   UNL     1       2.924   5.575  19.711  0.00  0.00    +0.000 A 
ATOM      3  C   UNL     1       2.071   6.497  20.331  0.00  0.00    +0.000 A 
ATOM      4  C   UNL     1       1.837   7.770  19.780  0.00  0.00    +0.000 A 
ATOM      5  C   UNL     1       2.453   8.035  18.549  0.00  0.00    +0.000 A 
ATOM      6  F   UNL     1       2.300   9.223  17.941  0.00  0.00    +0.000 F 
ATOM      7  C   UNL     1       3.287   7.110  17.917  0.00  0.00    +0.000 A 
ENDROOT
BRANCH   4   8
ATOM      8  C   UNL     1       0.999   8.772  20.482  0.00  0.00    +0.000 A 
ATOM      9  C   UNL     1       0.233   9.716  19.770  0.00  0.00    +0.000 A 
ATOM     10  C   UNL     1      -0.550  10.673  20.427  0.00  0.00    +0.000 A 
ATOM     11  C   UNL     1      -0.605  10.708  21.824  0.00  0.00    +0.000 A 
ATOM     12  C   UNL     1       0.131   9.763  22.545  0.00  0.00    +0.000 A 
ATOM     13  C   UNL     1       0.925   8.819  21.883  0.00  0.00    +0.000 A 
BRANCH  11  14
ATOM     14  C   UNL     1      -1.430  11.737  22.557  0.00  0.00    +0.000 C 
ATOM     15  F   UNL     1      -2.178  11.217  23.569  0.00  0.00    +0.000 F 
ATOM     16  F   UNL     1      -0.666  12.713  23.121  0.00  0.00    +0.000 F 
ATOM     17  F   UNL     1      -2.308  12.376  21.735  0.00  0.00    +0.000 F 
ENDBRANCH  11  14
ENDBRANCH   4   8
BRANCH   1  18
ATOM     18  C   UNL     1       4.617   4.932  17.913  0.00  0.00    +0.000 C 
ATOM     19  C   UNL     1       5.088   5.249  16.492  0.00  0.00    +0.000 C 
ATOM     20  C   UNL     1       4.184   4.082  16.716  0.00  0.00    +0.000 C 
BRANCH  18  22
ATOM     21  O   UNL     1       6.660   4.986  19.149  0.00  0.00    +0.000 OA
ATOM     22  C   UNL     1       5.647   4.377  18.855  0.00  0.00    +0.000 C 
BRANCH  22  23
ATOM     23  O   UNL     1       5.338   3.148  19.335  0.00  0.00    +0.000 OA
ATOM     24  H   UNL     1       4.734   3.193  20.098  0.00  0.00    +0.000 HD
ENDBRANCH  22  23
ENDBRANCH  18  22
ENDBRANCH   1  18
TORSDOF 5
ENDMDL
MODEL 8
REMARK VINA RESULT:      -7.9      4.195      8.525
REMARK  Name = 
REMARK  5 active torsions:
REMARK  status: ('A' for Active; 'I' for Inactive)
REMARK    1  A    between atoms: C_2  and  O_3
REMARK    2  A    between atoms: C_2  and  C_4
REMARK    3  A    between atoms: C_4  and  C_5
REMARK    4  A    between atoms: C_8  and  C_9
REMARK    5  A    between atoms: C_12  and  C_13
REMARK                            x       y       z     vdW  Elec       q    Type
REMARK                         _______ _______ _______ _____ _____    ______ ____
ROOT
ATOM      1  C   UNL     1       3.362   5.921  18.731  0.00  0.00    +0.000 A 
ATOM      2  C   UNL     1       2.704   5.646  19.937  0.00  0.00    +0.000 A 
ATOM      3  C   UNL     1       1.869   6.590  20.549  0.00  0.00    +0.000 A 
ATOM      4  C   UNL     1       1.656   7.860  19.984  0.00  0.00    +0.000 A 
ATOM      5  C   UNL     1       2.274   8.100  18.747  0.00  0.00    +0.000 A 
ATOM      6  F   UNL     1       2.140   9.283  18.127  0.00  0.00    +0.000 F 
ATOM      7  C   UNL     1       3.089   7.152  18.125  0.00  0.00    +0.000 A 
ENDROOT
BRANCH   4   8
ATOM      8  C   UNL     1       0.838   8.885  20.675  0.00  0.00    +0.000 A 
ATOM      9  C   UNL     1       0.750   8.928  22.081  0.00  0.00    +0.000 A 
ATOM     10  C   UNL     1      -0.032   9.885  22.740  0.00  0.00    +0.000 A 
ATOM     11  C   UNL     1      -0.744  10.844  22.012  0.00  0.00    +0.000 A 
ATOM     12  C   UNL     1      -0.648  10.829  20.617  0.00  0.00    +0.000 A 
ATOM     13  C   UNL     1       0.121   9.861  19.963  0.00  0.00    +0.000 A 
BRANCH  11  14
ATOM     14  C   UNL     1      -1.604  11.878  22.696  0.00  0.00    +0.000 C 
ATOM     15  F   UNL     1      -2.421  11.360  23.654  0.00  0.00    +0.000 F 
ATOM     16  F   UNL     1      -0.868  12.842  23.314  0.00  0.00    +0.000 F 
ATOM     17  F   UNL     1      -2.420  12.531  21.824  0.00  0.00    +0.000 F 
ENDBRANCH  11  14
ENDBRANCH   4   8
BRANCH   1  18
ATOM     18  C   UNL     1       4.379   4.952  18.144  0.00  0.00    +0.000 C 
ATOM     19  C   UNL     1       4.915   5.289  16.751  0.00  0.00    +0.000 C 
ATOM     20  C   UNL     1       3.956   4.155  16.906  0.00  0.00    +0.000 C 
BRANCH  18  22
ATOM     21  O   UNL     1       5.174   3.220  19.584  0.00  0.00    +0.000 OA
ATOM     22  C   UNL     1       5.350   4.326  19.104  0.00  0.00    +0.000 C 
BRANCH  22  23
ATOM     23  O   UNL     1       6.424   5.106  19.376  0.00  0.00    +0.000 OA
ATOM     24  H   UNL     1       7.256   4.707  19.064  0.00  0.00    +0.000 HD
ENDBRANCH  22  23
ENDBRANCH  18  22
ENDBRANCH   1  18
TORSDOF 5
ENDMDL
MODEL 9
REMARK VINA RESULT:      -7.8      4.194      8.551
REMARK  Name = 
REMARK  5 active torsions:
REMARK  status: ('A' for Active; 'I' for Inactive)
REMARK    1  A    between atoms: C_2  and  O_3
REMARK    2  A    between atoms: C_2  and  C_4
REMARK    3  A    between atoms: C_4  and  C_5
REMARK    4  A    between atoms: C_8  and  C_9
REMARK    5  A    between atoms: C_12  and  C_13
REMARK                            x       y       z     vdW  Elec       q    Type
REMARK                         _______ _______ _______ _____ _____    ______ ____
ROOT
ATOM      1  C   UNL     1       3.340   5.905  18.754  0.00  0.00    +0.000 A 
ATOM      2  C   UNL     1       2.674   5.640  19.959  0.00  0.00    +0.000 A 
ATOM      3  C   UNL     1       1.838   6.591  20.559  0.00  0.00    +0.000 A 
ATOM      4  C   UNL     1       1.632   7.858  19.983  0.00  0.00    +0.000 A 
ATOM      5  C   UNL     1       2.257   8.086  18.748  0.00  0.00    +0.000 A 
ATOM      6  F   UNL     1       2.130   9.265  18.118  0.00  0.00    +0.000 F 
ATOM      7  C   UNL     1       3.073   7.132  18.137  0.00  0.00    +0.000 A 
ENDROOT
BRANCH   4   8
ATOM      8  C   UNL     1       0.813   8.890  20.662  0.00  0.00    +0.000 A 
ATOM      9  C   UNL     1       0.149   9.897  19.934  0.00  0.00    +0.000 A 
ATOM     10  C   UNL     1      -0.615  10.883  20.571  0.00  0.00    +0.000 A 
ATOM     11  C   UNL     1      -0.754  10.884  21.963  0.00  0.00    +0.000 A 
ATOM     12  C   UNL     1      -0.121   9.877  22.698  0.00  0.00    +0.000 A 
ATOM     13  C   UNL     1       0.655   8.905  22.058  0.00  0.00    +0.000 A 
BRANCH  11  14
ATOM     14  C   UNL     1      -1.561  11.942  22.676  0.00  0.00    +0.000 C 
ATOM     15  F   UNL     1      -0.799  12.900  23.271  0.00  0.00    +0.000 F 
ATOM     16  F   UNL     1      -2.407  12.603  21.840  0.00  0.00    +0.000 F 
ATOM     17  F   UNL     1      -2.340  11.420  23.663  0.00  0.00    +0.000 F 
ENDBRANCH  11  14
ENDBRANCH   4   8
BRANCH   1  18
ATOM     18  C   UNL     1       4.358   4.929  18.179  0.00  0.00    +0.000 C 
ATOM     19  C   UNL     1       4.900   5.252  16.785  0.00  0.00    +0.000 C 
ATOM     20  C   UNL     1       3.938   4.122  16.948  0.00  0.00    +0.000 C 
BRANCH  18  22
ATOM     21  O   UNL     1       5.153   3.204  19.628  0.00  0.00    +0.000 OA
ATOM     22  C   UNL     1       5.325   4.311  19.149  0.00  0.00    +0.000 C 
BRANCH  22  23
ATOM     23  O   UNL     1       6.390   5.099  19.431  0.00  0.00    +0.000 OA
ATOM     24  H   UNL     1       6.167   6.046  19.389  0.00  0.00    +0.000 HD
ENDBRANCH  22  23
ENDBRANCH  18  22
ENDBRANCH   1  18
TORSDOF 5
ENDMDL
