MODEL 1
REMARK VINA RESULT:      -8.2      0.000      0.000
REMARK  Name = 
REMARK  8 active torsions:
REMARK  status: ('A' for Active; 'I' for Inactive)
REMARK    1  A    between atoms: C_1  and  C_2
REMARK    2  A    between atoms: C_2  and  N_3
REMARK    3  A    between atoms: C_2  and  C_19
REMARK    4  A    between atoms: C_4  and  C_6
REMARK    5  A    between atoms: C_8  and  C_9
REMARK    6  A    between atoms: C_15  and  C_16
REMARK    7  A    between atoms: C_22  and  C_23
REMARK    8  A    between atoms: N_25  and  O_26
REMARK                            x       y       z     vdW  Elec       q    Type
REMARK                         _______ _______ _______ _____ _____    ______ ____
ROOT
ATOM      1  N   UNL     1       1.833   8.567  18.609  0.00  0.00    +0.000 N 
ATOM      2  C   UNL     1       2.011   7.588  19.603  0.00  0.00    +0.000 C 
ATOM      3  O   UNL     1       1.805   7.809  20.778  0.00  0.00    +0.000 OA
ATOM      4  H   UNL     1       2.354   8.379  17.760  0.00  0.00    +0.000 HD
ENDROOT
BRANCH   2   5
ATOM      5  C   UNL     1       2.579   6.329  19.090  0.00  0.00    +0.000 A 
ATOM      6  N   UNL     1       3.392   6.397  17.945  0.00  0.00    +0.000 NA
ATOM      7  C   UNL     1       4.024   5.252  17.767  0.00  0.00    +0.000 A 
ATOM      8  S   UNL     1       3.583   3.994  18.817  0.00  0.00    +0.000 S 
ATOM      9  C   UNL     1       2.486   5.042  19.628  0.00  0.00    +0.000 A 
BRANCH   7  10
ATOM     10  C   UNL     1       5.068   5.068  16.804  0.00  0.00    +0.000 A 
ATOM     11  N   UNL     1       5.006   4.147  15.862  0.00  0.00    +0.000 NA
ATOM     12  C   UNL     1       6.169   4.161  15.127  0.00  0.00    +0.000 A 
ATOM     13  C   UNL     1       7.101   5.098  15.508  0.00  0.00    +0.000 A 
ATOM     14  S   UNL     1       6.508   6.003  16.837  0.00  0.00    +0.000 S 
ENDBRANCH   7  10
BRANCH   9  15
ATOM     15  C   UNL     1       1.630   4.532  20.810  0.00  0.00    +0.000 C 
ATOM     16  C   UNL     1       0.998   3.146  20.751  0.00  0.00    +0.000 C 
ATOM     17  C   UNL     1       2.196   3.364  21.608  0.00  0.00    +0.000 C 
ENDBRANCH   9  15
ENDBRANCH   2   5
BRANCH   1  19
ATOM     18  C   UNL     1       2.174  10.906  17.960  0.00  0.00    +0.000 C 
ATOM     19  C   UNL     1       1.398   9.937  18.861  0.00  0.00    +0.000 C 
BRANCH  19  20
ATOM     20  C   UNL     1      -0.101  10.167  18.613  0.00  0.00    +0.000 A 
ATOM     21  C   UNL     1      -0.765  11.132  19.389  0.00  0.00    +0.000 A 
ATOM     22  C   UNL     1      -2.028  11.613  19.020  0.00  0.00    +0.000 A 
ATOM     23  C   UNL     1      -2.717  11.056  17.935  0.00  0.00    +0.000 A 
ATOM     24  C   UNL     1      -2.120   9.999  17.239  0.00  0.00    +0.000 A 
ATOM     25  C   UNL     1      -0.812   9.580  17.557  0.00  0.00    +0.000 A 
BRANCH  23  26
ATOM     26  C   UNL     1      -4.024  11.687  17.574  0.00  0.00    +0.000 C 
ATOM     27  O   UNL     1      -4.582  11.432  16.512  0.00  0.00    +0.000 OA
ATOM     28  N   UNL     1      -4.595  12.547  18.477  0.00  0.00    +0.000 N 
ATOM     29  H   UNL     1      -4.174  12.911  19.327  0.00  0.00    +0.000 HD
BRANCH  28  30
ATOM     30  O   UNL     1      -5.827  13.120  18.084  0.00  0.00    +0.000 OA
ATOM     31  H   UNL     1      -6.474  12.482  18.465  0.00  0.00    +0.000 HD
ENDBRANCH  28  30
ENDBRANCH  23  26
ENDBRANCH  19  20
ENDBRANCH   1  19
TORSDOF 7
ENDMDL
MODEL 2
REMARK VINA RESULT:      -7.8      4.023      8.776
REMARK  Name = 
REMARK  8 active torsions:
REMARK  status: ('A' for Active; 'I' for Inactive)
REMARK    1  A    between atoms: C_1  and  C_2
REMARK    2  A    between atoms: C_2  and  N_3
REMARK    3  A    between atoms: C_2  and  C_19
REMARK    4  A    between atoms: C_4  and  C_6
REMARK    5  A    between atoms: C_8  and  C_9
REMARK    6  A    between atoms: C_15  and  C_16
REMARK    7  A    between atoms: C_22  and  C_23
REMARK    8  A    between atoms: N_25  and  O_26
REMARK                            x       y       z     vdW  Elec       q    Type
REMARK                         _______ _______ _______ _____ _____    ______ ____
ROOT
ATOM      1  N   UNL     1       1.395   8.167  19.595  0.00  0.00    +0.000 N 
ATOM      2  C   UNL     1       1.022   9.154  20.525  0.00  0.00    +0.000 C 
ATOM      3  O   UNL     1       1.441   9.168  21.663  0.00  0.00    +0.000 OA
ATOM      4  H   UNL     1       0.736   8.060  18.834  0.00  0.00    +0.000 HD
ENDROOT
BRANCH   2   5
ATOM      5  C   UNL     1      -0.006  10.079  20.015  0.00  0.00    +0.000 A 
ATOM      6  N   UNL     1      -0.440   9.909  18.689  0.00  0.00    +0.000 NA
ATOM      7  C   UNL     1      -1.525  10.627  18.469  0.00  0.00    +0.000 A 
ATOM      8  S   UNL     1      -1.997  11.657  19.732  0.00  0.00    +0.000 S 
ATOM      9  C   UNL     1      -0.690  11.091  20.697  0.00  0.00    +0.000 A 
BRANCH   7  10
ATOM     10  C   UNL     1      -2.315  10.519  17.279  0.00  0.00    +0.000 A 
ATOM     11  N   UNL     1      -1.935   9.800  16.241  0.00  0.00    +0.000 NA
ATOM     12  C   UNL     1      -2.855   9.932  15.227  0.00  0.00    +0.000 A 
ATOM     13  C   UNL     1      -3.932  10.743  15.504  0.00  0.00    +0.000 A 
ATOM     14  S   UNL     1      -3.797  11.366  17.095  0.00  0.00    +0.000 S 
ENDBRANCH   7  10
BRANCH   9  15
ATOM     15  C   UNL     1      -0.455  11.648  22.119  0.00  0.00    +0.000 C 
ATOM     16  C   UNL     1      -1.600  12.311  22.876  0.00  0.00    +0.000 C 
ATOM     17  C   UNL     1      -1.173  10.937  23.258  0.00  0.00    +0.000 C 
ENDBRANCH   9  15
ENDBRANCH   2   5
BRANCH   1  19
ATOM     18  C   UNL     1       1.540   5.921  20.570  0.00  0.00    +0.000 C 
ATOM     19  C   UNL     1       2.303   7.060  19.880  0.00  0.00    +0.000 C 
BRANCH  19  20
ATOM     20  C   UNL     1       2.982   6.478  18.630  0.00  0.00    +0.000 A 
ATOM     21  C   UNL     1       3.731   7.343  17.815  0.00  0.00    +0.000 A 
ATOM     22  C   UNL     1       4.618   6.842  16.853  0.00  0.00    +0.000 A 
ATOM     23  C   UNL     1       4.692   5.467  16.595  0.00  0.00    +0.000 A 
ATOM     24  C   UNL     1       3.847   4.609  17.308  0.00  0.00    +0.000 A 
ATOM     25  C   UNL     1       3.023   5.107  18.337  0.00  0.00    +0.000 A 
BRANCH  23  26
ATOM     26  C   UNL     1       5.721   5.023  15.604  0.00  0.00    +0.000 C 
ATOM     27  O   UNL     1       5.598   3.972  14.986  0.00  0.00    +0.000 OA
ATOM     28  N   UNL     1       6.803   5.839  15.392  0.00  0.00    +0.000 N 
ATOM     29  H   UNL     1       7.060   6.668  15.921  0.00  0.00    +0.000 HD
BRANCH  28  30
ATOM     30  O   UNL     1       7.749   5.371  14.450  0.00  0.00    +0.000 OA
ATOM     31  H   UNL     1       7.693   4.395  14.579  0.00  0.00    +0.000 HD
ENDBRANCH  28  30
ENDBRANCH  23  26
ENDBRANCH  19  20
ENDBRANCH   1  19
TORSDOF 7
ENDMDL
MODEL 3
REMARK VINA RESULT:      -7.7      4.427     10.092
REMARK  Name = 
REMARK  8 active torsions:
REMARK  status: ('A' for Active; 'I' for Inactive)
REMARK    1  A    between atoms: C_1  and  C_2
REMARK    2  A    between atoms: C_2  and  N_3
REMARK    3  A    between atoms: C_2  and  C_19
REMARK    4  A    between atoms: C_4  and  C_6
REMARK    5  A    between atoms: C_8  and  C_9
REMARK    6  A    between atoms: C_15  and  C_16
REMARK    7  A    between atoms: C_22  and  C_23
REMARK    8  A    between atoms: N_25  and  O_26
REMARK                            x       y       z     vdW  Elec       q    Type
REMARK                         _______ _______ _______ _____ _____    ______ ____
ROOT
ATOM      1  N   UNL     1      -0.740  10.731  19.085  0.00  0.00    +0.000 N 
ATOM      2  C   UNL     1      -1.328  11.871  18.508  0.00  0.00    +0.000 C 
ATOM      3  O   UNL     1      -0.703  12.886  18.291  0.00  0.00    +0.000 OA
ATOM      4  H   UNL     1      -1.409  10.110  19.524  0.00  0.00    +0.000 HD
ENDROOT
BRANCH   2   5
ATOM      5  C   UNL     1      -2.783  11.742  18.312  0.00  0.00    +0.000 A 
ATOM      6  N   UNL     1      -3.616  11.979  19.419  0.00  0.00    +0.000 NA
ATOM      7  C   UNL     1      -4.873  12.081  19.030  0.00  0.00    +0.000 A 
ATOM      8  S   UNL     1      -5.169  11.743  17.393  0.00  0.00    +0.000 S 
ATOM      9  C   UNL     1      -3.489  11.478  17.134  0.00  0.00    +0.000 A 
BRANCH   7  10
ATOM     10  C   UNL     1      -5.933  12.511  19.891  0.00  0.00    +0.000 A 
ATOM     11  N   UNL     1      -6.217  11.899  21.024  0.00  0.00    +0.000 NA
ATOM     12  C   UNL     1      -7.315  12.489  21.605  0.00  0.00    +0.000 A 
ATOM     13  C   UNL     1      -7.853  13.551  20.915  0.00  0.00    +0.000 A 
ATOM     14  S   UNL     1      -6.954  13.830  19.483  0.00  0.00    +0.000 S 
ENDBRANCH   7  10
BRANCH   9  15
ATOM     15  C   UNL     1      -2.956  11.079  15.739  0.00  0.00    +0.000 C 
ATOM     16  C   UNL     1      -2.675   9.615  15.421  0.00  0.00    +0.000 C 
ATOM     17  C   UNL     1      -3.892  10.261  14.859  0.00  0.00    +0.000 C 
ENDBRANCH   9  15
ENDBRANCH   2   5
BRANCH   1  19
ATOM     18  C   UNL     1       0.786  10.916  20.995  0.00  0.00    +0.000 C 
ATOM     19  C   UNL     1       0.658  10.635  19.492  0.00  0.00    +0.000 C 
BRANCH  19  20
ATOM     20  C   UNL     1       1.291   9.261  19.218  0.00  0.00    +0.000 A 
ATOM     21  C   UNL     1       1.886   9.039  17.965  0.00  0.00    +0.000 A 
ATOM     22  C   UNL     1       2.739   7.948  17.754  0.00  0.00    +0.000 A 
ATOM     23  C   UNL     1       2.927   6.982  18.750  0.00  0.00    +0.000 A 
ATOM     24  C   UNL     1       2.229   7.123  19.955  0.00  0.00    +0.000 A 
ATOM     25  C   UNL     1       1.443   8.268  20.197  0.00  0.00    +0.000 A 
BRANCH  23  26
ATOM     26  C   UNL     1       3.914   5.897  18.457  0.00  0.00    +0.000 C 
ATOM     27  O   UNL     1       4.331   5.159  19.344  0.00  0.00    +0.000 OA
ATOM     28  N   UNL     1       4.327   5.736  17.159  0.00  0.00    +0.000 N 
ATOM     29  H   UNL     1       4.134   6.351  16.374  0.00  0.00    +0.000 HD
BRANCH  28  30
ATOM     30  O   UNL     1       5.264   4.701  16.938  0.00  0.00    +0.000 OA
ATOM     31  H   UNL     1       5.835   5.094  16.238  0.00  0.00    +0.000 HD
ENDBRANCH  28  30
ENDBRANCH  23  26
ENDBRANCH  19  20
ENDBRANCH   1  19
TORSDOF 7
ENDMDL
MODEL 4
REMARK VINA RESULT:      -7.7      0.797      1.174
REMARK  Name = 
REMARK  8 active torsions:
REMARK  status: ('A' for Active; 'I' for Inactive)
REMARK    1  A    between atoms: C_1  and  C_2
REMARK    2  A    between atoms: C_2  and  N_3
REMARK    3  A    between atoms: C_2  and  C_19
REMARK    4  A    between atoms: C_4  and  C_6
REMARK    5  A    between atoms: C_8  and  C_9
REMARK    6  A    between atoms: C_15  and  C_16
REMARK    7  A    between atoms: C_22  and  C_23
REMARK    8  A    between atoms: N_25  and  O_26
REMARK                            x       y       z     vdW  Elec       q    Type
REMARK                         _______ _______ _______ _____ _____    ______ ____
ROOT
ATOM      1  N   UNL     1       1.734   8.744  18.509  0.00  0.00    +0.000 N 
ATOM      2  C   UNL     1       1.986   7.760  19.482  0.00  0.00    +0.000 C 
ATOM      3  O   UNL     1       1.936   7.992  20.671  0.00  0.00    +0.000 OA
ATOM      4  H   UNL     1       2.138   8.530  17.606  0.00  0.00    +0.000 HD
ENDROOT
BRANCH   2   5
ATOM      5  C   UNL     1       2.428   6.474  18.913  0.00  0.00    +0.000 A 
ATOM      6  N   UNL     1       3.218   6.510  17.751  0.00  0.00    +0.000 NA
ATOM      7  C   UNL     1       3.741   5.321  17.519  0.00  0.00    +0.000 A 
ATOM      8  S   UNL     1       3.212   4.070  18.537  0.00  0.00    +0.000 S 
ATOM      9  C   UNL     1       2.231   5.182  19.410  0.00  0.00    +0.000 A 
BRANCH   7  10
ATOM     10  C   UNL     1       4.743   5.080  16.525  0.00  0.00    +0.000 A 
ATOM     11  N   UNL     1       5.244   3.880  16.301  0.00  0.00    +0.000 NA
ATOM     12  C   UNL     1       6.225   3.961  15.341  0.00  0.00    +0.000 A 
ATOM     13  C   UNL     1       6.457   5.219  14.834  0.00  0.00    +0.000 A 
ATOM     14  S   UNL     1       5.409   6.350  15.581  0.00  0.00    +0.000 S 
ENDBRANCH   7  10
BRANCH   9  15
ATOM     15  C   UNL     1       1.359   4.708  20.594  0.00  0.00    +0.000 C 
ATOM     16  C   UNL     1       0.811   3.286  20.616  0.00  0.00    +0.000 C 
ATOM     17  C   UNL     1       1.958   3.638  21.498  0.00  0.00    +0.000 C 
ENDBRANCH   9  15
ENDBRANCH   2   5
BRANCH   1  19
ATOM     18  C   UNL     1       2.414  11.069  18.134  0.00  0.00    +0.000 C 
ATOM     19  C   UNL     1       1.398  10.133  18.803  0.00  0.00    +0.000 C 
BRANCH  19  20
ATOM     20  C   UNL     1      -0.003  10.547  18.325  0.00  0.00    +0.000 A 
ATOM     21  C   UNL     1      -0.791   9.590  17.664  0.00  0.00    +0.000 A 
ATOM     22  C   UNL     1      -2.165   9.789  17.479  0.00  0.00    +0.000 A 
ATOM     23  C   UNL     1      -2.769  11.000  17.841  0.00  0.00    +0.000 A 
ATOM     24  C   UNL     1      -1.963  12.012  18.375  0.00  0.00    +0.000 A 
ATOM     25  C   UNL     1      -0.600  11.776  18.642  0.00  0.00    +0.000 A 
BRANCH  23  26
ATOM     26  C   UNL     1      -4.253  11.088  17.674  0.00  0.00    +0.000 C 
ATOM     27  O   UNL     1      -5.002  10.275  18.203  0.00  0.00    +0.000 OA
ATOM     28  N   UNL     1      -4.755  12.121  16.925  0.00  0.00    +0.000 N 
ATOM     29  H   UNL     1      -4.229  12.780  16.357  0.00  0.00    +0.000 HD
BRANCH  28  30
ATOM     30  O   UNL     1      -6.163  12.155  16.794  0.00  0.00    +0.000 OA
ATOM     31  H   UNL     1      -6.452  12.129  17.735  0.00  0.00    +0.000 HD
ENDBRANCH  28  30
ENDBRANCH  23  26
ENDBRANCH  19  20
ENDBRANCH   1  19
TORSDOF 7
ENDMDL
MODEL 5
REMARK VINA RESULT:      -7.5      3.785      9.264
REMARK  Name = 
REMARK  8 active torsions:
REMARK  status: ('A' for Active; 'I' for Inactive)
REMARK    1  A    between atoms: C_1  and  C_2
REMARK    2  A    between atoms: C_2  and  N_3
REMARK    3  A    between atoms: C_2  and  C_19
REMARK    4  A    between atoms: C_4  and  C_6
REMARK    5  A    between atoms: C_8  and  C_9
REMARK    6  A    between atoms: C_15  and  C_16
REMARK    7  A    between atoms: C_22  and  C_23
REMARK    8  A    between atoms: N_25  and  O_26
REMARK                            x       y       z     vdW  Elec       q    Type
REMARK                         _______ _______ _______ _____ _____    ______ ____
ROOT
ATOM      1  N   UNL     1       1.685   8.389  19.552  0.00  0.00    +0.000 N 
ATOM      2  C   UNL     1       1.152   9.419  20.350  0.00  0.00    +0.000 C 
ATOM      3  O   UNL     1       1.147   9.367  21.561  0.00  0.00    +0.000 OA
ATOM      4  H   UNL     1       1.324   8.385  18.606  0.00  0.00    +0.000 HD
ENDROOT
BRANCH   2   5
ATOM      5  C   UNL     1       0.505  10.488  19.568  0.00  0.00    +0.000 A 
ATOM      6  N   UNL     1      -0.574  10.133  18.741  0.00  0.00    +0.000 NA
ATOM      7  C   UNL     1      -1.200  11.215  18.320  0.00  0.00    +0.000 A 
ATOM      8  S   UNL     1      -0.472  12.694  18.724  0.00  0.00    +0.000 S 
ATOM      9  C   UNL     1       0.768  11.862  19.579  0.00  0.00    +0.000 A 
BRANCH   7  10
ATOM     10  C   UNL     1      -2.450  11.182  17.621  0.00  0.00    +0.000 A 
ATOM     11  N   UNL     1      -3.582  11.566  18.178  0.00  0.00    +0.000 NA
ATOM     12  C   UNL     1      -4.620  11.367  17.298  0.00  0.00    +0.000 A 
ATOM     13  C   UNL     1      -4.269  10.841  16.075  0.00  0.00    +0.000 A 
ATOM     14  S   UNL     1      -2.576  10.586  16.015  0.00  0.00    +0.000 S 
ENDBRANCH   7  10
BRANCH   9  15
ATOM     15  C   UNL     1       1.910  12.638  20.273  0.00  0.00    +0.000 C 
ATOM     16  C   UNL     1       2.749  13.631  19.477  0.00  0.00    +0.000 C 
ATOM     17  C   UNL     1       1.719  14.141  20.424  0.00  0.00    +0.000 C 
ENDBRANCH   9  15
ENDBRANCH   2   5
BRANCH   1  19
ATOM     18  C   UNL     1       1.168   6.143  20.389  0.00  0.00    +0.000 C 
ATOM     19  C   UNL     1       2.274   7.159  20.071  0.00  0.00    +0.000 C 
BRANCH  19  20
ATOM     20  C   UNL     1       3.260   6.487  19.103  0.00  0.00    +0.000 A 
ATOM     21  C   UNL     1       3.472   7.082  17.848  0.00  0.00    +0.000 A 
ATOM     22  C   UNL     1       4.563   6.715  17.049  0.00  0.00    +0.000 A 
ATOM     23  C   UNL     1       5.403   5.660  17.426  0.00  0.00    +0.000 A 
ATOM     24  C   UNL     1       5.117   4.970  18.610  0.00  0.00    +0.000 A 
ATOM     25  C   UNL     1       4.074   5.400  19.454  0.00  0.00    +0.000 A 
BRANCH  23  26
ATOM     26  C   UNL     1       6.583   5.393  16.546  0.00  0.00    +0.000 C 
ATOM     27  O   UNL     1       7.592   4.849  16.982  0.00  0.00    +0.000 OA
ATOM     28  N   UNL     1       6.498   5.758  15.227  0.00  0.00    +0.000 N 
ATOM     29  H   UNL     1       5.763   6.307  14.789  0.00  0.00    +0.000 HD
BRANCH  28  30
ATOM     30  O   UNL     1       7.642   5.489  14.440  0.00  0.00    +0.000 OA
ATOM     31  H   UNL     1       8.342   5.405  15.128  0.00  0.00    +0.000 HD
ENDBRANCH  28  30
ENDBRANCH  23  26
ENDBRANCH  19  20
ENDBRANCH   1  19
TORSDOF 7
ENDMDL
MODEL 6
REMARK VINA RESULT:      -7.5      4.486      9.933
REMARK  Name = 
REMARK  8 active torsions:
REMARK  status: ('A' for Active; 'I' for Inactive)
REMARK    1  A    between atoms: C_1  and  C_2
REMARK    2  A    between atoms: C_2  and  N_3
REMARK    3  A    between atoms: C_2  and  C_19
REMARK    4  A    between atoms: C_4  and  C_6
REMARK    5  A    between atoms: C_8  and  C_9
REMARK    6  A    between atoms: C_15  and  C_16
REMARK    7  A    between atoms: C_22  and  C_23
REMARK    8  A    between atoms: N_25  and  O_26
REMARK                            x       y       z     vdW  Elec       q    Type
REMARK                         _______ _______ _______ _____ _____    ______ ____
ROOT
ATOM      1  N   UNL     1      -0.793  10.548  19.815  0.00  0.00    +0.000 N 
ATOM      2  C   UNL     1      -1.270  11.792  19.363  0.00  0.00    +0.000 C 
ATOM      3  O   UNL     1      -0.607  12.805  19.423  0.00  0.00    +0.000 OA
ATOM      4  H   UNL     1      -1.529   9.888  20.033  0.00  0.00    +0.000 HD
ENDROOT
BRANCH   2   5
ATOM      5  C   UNL     1      -2.679  11.755  18.932  0.00  0.00    +0.000 A 
ATOM      6  N   UNL     1      -3.660  12.134  19.865  0.00  0.00    +0.000 NA
ATOM      7  C   UNL     1      -4.823  12.297  19.263  0.00  0.00    +0.000 A 
ATOM      8  S   UNL     1      -4.873  11.862  17.624  0.00  0.00    +0.000 S 
ATOM      9  C   UNL     1      -3.201  11.457  17.669  0.00  0.00    +0.000 A 
BRANCH   7  10
ATOM     10  C   UNL     1      -5.970  12.866  19.904  0.00  0.00    +0.000 A 
ATOM     11  N   UNL     1      -6.832  12.138  20.588  0.00  0.00    +0.000 NA
ATOM     12  C   UNL     1      -7.858  12.936  21.034  0.00  0.00    +0.000 A 
ATOM     13  C   UNL     1      -7.766  14.267  20.696  0.00  0.00    +0.000 A 
ATOM     14  S   UNL     1      -6.341  14.538  19.785  0.00  0.00    +0.000 S 
ENDBRANCH   7  10
BRANCH   9  15
ATOM     15  C   UNL     1      -2.482  10.919  16.412  0.00  0.00    +0.000 C 
ATOM     16  C   UNL     1      -2.818   9.531  15.877  0.00  0.00    +0.000 C 
ATOM     17  C   UNL     1      -3.336  10.730  15.165  0.00  0.00    +0.000 C 
ENDBRANCH   9  15
ENDBRANCH   2   5
BRANCH   1  19
ATOM     18  C   UNL     1       0.381   9.977  21.890  0.00  0.00    +0.000 C 
ATOM     19  C   UNL     1       0.525  10.330  20.403  0.00  0.00    +0.000 C 
BRANCH  19  20
ATOM     20  C   UNL     1       1.326   9.204  19.731  0.00  0.00    +0.000 A 
ATOM     21  C   UNL     1       1.608   8.049  20.479  0.00  0.00    +0.000 A 
ATOM     22  C   UNL     1       2.052   6.875  19.857  0.00  0.00    +0.000 A 
ATOM     23  C   UNL     1       2.343   6.858  18.487  0.00  0.00    +0.000 A 
ATOM     24  C   UNL     1       2.195   8.044  17.759  0.00  0.00    +0.000 A 
ATOM     25  C   UNL     1       1.663   9.197  18.370  0.00  0.00    +0.000 A 
BRANCH  23  26
ATOM     26  C   UNL     1       2.738   5.539  17.900  0.00  0.00    +0.000 C 
ATOM     27  O   UNL     1       3.901   5.304  17.590  0.00  0.00    +0.000 OA
ATOM     28  N   UNL     1       1.762   4.590  17.735  0.00  0.00    +0.000 N 
ATOM     29  H   UNL     1       0.760   4.714  17.853  0.00  0.00    +0.000 HD
BRANCH  28  30
ATOM     30  O   UNL     1       2.187   3.365  17.171  0.00  0.00    +0.000 OA
ATOM     31  H   UNL     1       2.391   2.835  17.976  0.00  0.00    +0.000 HD
ENDBRANCH  28  30
ENDBRANCH  23  26
ENDBRANCH  19  20
ENDBRANCH   1  19
TORSDOF 7
ENDMDL
MODEL 7
REMARK VINA RESULT:      -7.4      4.017      9.105
REMARK  Name = 
REMARK  8 active torsions:
REMARK  status: ('A' for Active; 'I' for Inactive)
REMARK    1  A    between atoms: C_1  and  C_2
REMARK    2  A    between atoms: C_2  and  N_3
REMARK    3  A    between atoms: C_2  and  C_19
REMARK    4  A    between atoms: C_4  and  C_6
REMARK    5  A    between atoms: C_8  and  C_9
REMARK    6  A    between atoms: C_15  and  C_16
REMARK    7  A    between atoms: C_22  and  C_23
REMARK    8  A    between atoms: N_25  and  O_26
REMARK                            x       y       z     vdW  Elec       q    Type
REMARK                         _______ _______ _______ _____ _____    ______ ____
ROOT
ATOM      1  N   UNL     1       2.039   8.004  18.986  0.00  0.00    +0.000 N 
ATOM      2  C   UNL     1       1.427   8.819  19.955  0.00  0.00    +0.000 C 
ATOM      3  O   UNL     1       1.474   8.569  21.140  0.00  0.00    +0.000 OA
ATOM      4  H   UNL     1       1.645   8.112  18.059  0.00  0.00    +0.000 HD
ENDROOT
BRANCH   2   5
ATOM      5  C   UNL     1       0.634   9.918  19.376  0.00  0.00    +0.000 A 
ATOM      6  N   UNL     1      -0.229   9.613  18.310  0.00  0.00    +0.000 NA
ATOM      7  C   UNL     1      -1.046  10.624  18.081  0.00  0.00    +0.000 A 
ATOM      8  S   UNL     1      -0.744  12.034  18.975  0.00  0.00    +0.000 S 
ATOM      9  C   UNL     1       0.556  11.253  19.788  0.00  0.00    +0.000 A 
BRANCH   7  10
ATOM     10  C   UNL     1      -2.165  10.549  17.190  0.00  0.00    +0.000 A 
ATOM     11  N   UNL     1      -2.125   9.868  16.061  0.00  0.00    +0.000 NA
ATOM     12  C   UNL     1      -3.313  10.025  15.386  0.00  0.00    +0.000 A 
ATOM     13  C   UNL     1      -4.251  10.816  16.010  0.00  0.00    +0.000 A 
ATOM     14  S   UNL     1      -3.630  11.387  17.501  0.00  0.00    +0.000 S 
ENDBRANCH   7  10
BRANCH   9  15
ATOM     15  C   UNL     1       1.393  12.003  20.848  0.00  0.00    +0.000 C 
ATOM     16  C   UNL     1       2.263  13.185  20.435  0.00  0.00    +0.000 C 
ATOM     17  C   UNL     1       0.983  13.439  21.151  0.00  0.00    +0.000 C 
ENDBRANCH   9  15
ENDBRANCH   2   5
BRANCH   1  19
ATOM     18  C   UNL     1       1.824   5.585  19.324  0.00  0.00    +0.000 C 
ATOM     19  C   UNL     1       2.783   6.783  19.280  0.00  0.00    +0.000 C 
BRANCH  19  20
ATOM     20  C   UNL     1       3.882   6.464  18.254  0.00  0.00    +0.000 A 
ATOM     21  C   UNL     1       4.552   5.233  18.356  0.00  0.00    +0.000 A 
ATOM     22  C   UNL     1       5.331   4.744  17.300  0.00  0.00    +0.000 A 
ATOM     23  C   UNL     1       5.561   5.524  16.159  0.00  0.00    +0.000 A 
ATOM     24  C   UNL     1       5.008   6.809  16.108  0.00  0.00    +0.000 A 
ATOM     25  C   UNL     1       4.152   7.261  17.133  0.00  0.00    +0.000 A 
BRANCH  23  26
ATOM     26  C   UNL     1       6.342   4.886  15.054  0.00  0.00    +0.000 C 
ATOM     27  O   UNL     1       7.517   5.173  14.857  0.00  0.00    +0.000 OA
ATOM     28  N   UNL     1       5.708   3.952  14.275  0.00  0.00    +0.000 N 
ATOM     29  H   UNL     1       4.719   3.720  14.278  0.00  0.00    +0.000 HD
BRANCH  28  30
ATOM     30  O   UNL     1       6.489   3.384  13.242  0.00  0.00    +0.000 OA
ATOM     31  H   UNL     1       6.808   4.186  12.768  0.00  0.00    +0.000 HD
ENDBRANCH  28  30
ENDBRANCH  23  26
ENDBRANCH  19  20
ENDBRANCH   1  19
TORSDOF 7
ENDMDL
MODEL 8
REMARK VINA RESULT:      -7.4      3.953      9.425
REMARK  Name = 
REMARK  8 active torsions:
REMARK  status: ('A' for Active; 'I' for Inactive)
REMARK    1  A    between atoms: C_1  and  C_2
REMARK    2  A    between atoms: C_2  and  N_3
REMARK    3  A    between atoms: C_2  and  C_19
REMARK    4  A    between atoms: C_4  and  C_6
REMARK    5  A    between atoms: C_8  and  C_9
REMARK    6  A    between atoms: C_15  and  C_16
REMARK    7  A    between atoms: C_22  and  C_23
REMARK    8  A    between atoms: N_25  and  O_26
REMARK                            x       y       z     vdW  Elec       q    Type
REMARK                         _______ _______ _______ _____ _____    ______ ____
ROOT
ATOM      1  N   UNL     1       1.451   8.680  19.394  0.00  0.00    +0.000 N 
ATOM      2  C   UNL     1       0.983   9.720  20.218  0.00  0.00    +0.000 C 
ATOM      3  O   UNL     1       1.133   9.715  21.421  0.00  0.00    +0.000 OA
ATOM      4  H   UNL     1       0.974   8.625  18.503  0.00  0.00    +0.000 HD
ENDROOT
BRANCH   2   5
ATOM      5  C   UNL     1       0.198  10.733  19.490  0.00  0.00    +0.000 A 
ATOM      6  N   UNL     1      -1.121  10.407  19.132  0.00  0.00    +0.000 NA
ATOM      7  C   UNL     1      -1.764  11.487  18.729  0.00  0.00    +0.000 A 
ATOM      8  S   UNL     1      -0.826  12.895  18.589  0.00  0.00    +0.000 S 
ATOM      9  C   UNL     1       0.558  12.042  19.152  0.00  0.00    +0.000 A 
BRANCH   7  10
ATOM     10  C   UNL     1      -3.174  11.520  18.482  0.00  0.00    +0.000 A 
ATOM     11  N   UNL     1      -3.717  10.974  17.411  0.00  0.00    +0.000 NA
ATOM     12  C   UNL     1      -5.071  11.214  17.407  0.00  0.00    +0.000 A 
ATOM     13  C   UNL     1      -5.550  11.931  18.480  0.00  0.00    +0.000 A 
ATOM     14  S   UNL     1      -4.262  12.324  19.539  0.00  0.00    +0.000 S 
ENDBRANCH   7  10
BRANCH   9  15
ATOM     15  C   UNL     1       1.925  12.750  19.286  0.00  0.00    +0.000 C 
ATOM     16  C   UNL     1       2.849  12.857  18.078  0.00  0.00    +0.000 C 
ATOM     17  C   UNL     1       2.093  14.059  18.525  0.00  0.00    +0.000 C 
ENDBRANCH   9  15
ENDBRANCH   2   5
BRANCH   1  19
ATOM     18  C   UNL     1       1.156   6.533  20.540  0.00  0.00    +0.000 C 
ATOM     19  C   UNL     1       2.151   7.493  19.875  0.00  0.00    +0.000 C 
BRANCH  19  20
ATOM     20  C   UNL     1       2.883   6.715  18.770  0.00  0.00    +0.000 A 
ATOM     21  C   UNL     1       3.485   7.442  17.729  0.00  0.00    +0.000 A 
ATOM     22  C   UNL     1       4.416   6.842  16.872  0.00  0.00    +0.000 A 
ATOM     23  C   UNL     1       4.682   5.469  16.952  0.00  0.00    +0.000 A 
ATOM     24  C   UNL     1       3.983   4.709  17.898  0.00  0.00    +0.000 A 
ATOM     25  C   UNL     1       3.115   5.333  18.817  0.00  0.00    +0.000 A 
BRANCH  23  26
ATOM     26  C   UNL     1       5.745   4.935  16.046  0.00  0.00    +0.000 C 
ATOM     27  O   UNL     1       5.810   3.741  15.774  0.00  0.00    +0.000 OA
ATOM     28  N   UNL     1       6.639   5.826  15.509  0.00  0.00    +0.000 N 
ATOM     29  H   UNL     1       6.745   6.808  15.748  0.00  0.00    +0.000 HD
BRANCH  28  30
ATOM     30  O   UNL     1       7.627   5.270  14.664  0.00  0.00    +0.000 OA
ATOM     31  H   UNL     1       8.389   5.176  15.281  0.00  0.00    +0.000 HD
ENDBRANCH  28  30
ENDBRANCH  23  26
ENDBRANCH  19  20
ENDBRANCH   1  19
TORSDOF 7
ENDMDL
MODEL 9
REMARK VINA RESULT:      -7.3      4.231      8.969
REMARK  Name = 
REMARK  8 active torsions:
REMARK  status: ('A' for Active; 'I' for Inactive)
REMARK    1  A    between atoms: C_1  and  C_2
REMARK    2  A    between atoms: C_2  and  N_3
REMARK    3  A    between atoms: C_2  and  C_19
REMARK    4  A    between atoms: C_4  and  C_6
REMARK    5  A    between atoms: C_8  and  C_9
REMARK    6  A    between atoms: C_15  and  C_16
REMARK    7  A    between atoms: C_22  and  C_23
REMARK    8  A    between atoms: N_25  and  O_26
REMARK                            x       y       z     vdW  Elec       q    Type
REMARK                         _______ _______ _______ _____ _____    ______ ____
ROOT
ATOM      1  N   UNL     1       2.111   8.694  18.627  0.00  0.00    +0.000 N 
ATOM      2  C   UNL     1       1.039   9.578  18.405  0.00  0.00    +0.000 C 
ATOM      3  O   UNL     1       0.237   9.416  17.510  0.00  0.00    +0.000 OA
ATOM      4  H   UNL     1       2.875   9.109  19.145  0.00  0.00    +0.000 HD
ENDROOT
BRANCH   2   5
ATOM      5  C   UNL     1       1.067  10.762  19.281  0.00  0.00    +0.000 A 
ATOM      6  N   UNL     1       1.700  11.920  18.797  0.00  0.00    +0.000 NA
ATOM      7  C   UNL     1       1.419  12.951  19.572  0.00  0.00    +0.000 A 
ATOM      8  S   UNL     1       0.547  12.597  20.984  0.00  0.00    +0.000 S 
ATOM      9  C   UNL     1       0.478  10.937  20.538  0.00  0.00    +0.000 A 
BRANCH   7  10
ATOM     10  C   UNL     1       1.754  14.302  19.239  0.00  0.00    +0.000 A 
ATOM     11  N   UNL     1       0.942  15.313  19.481  0.00  0.00    +0.000 NA
ATOM     12  C   UNL     1       1.497  16.476  19.001  0.00  0.00    +0.000 A 
ATOM     13  C   UNL     1       2.731  16.344  18.406  0.00  0.00    +0.000 A 
ATOM     14  S   UNL     1       3.224  14.704  18.447  0.00  0.00    +0.000 S 
ENDBRANCH   7  10
BRANCH   9  15
ATOM     15  C   UNL     1      -0.224   9.901  21.445  0.00  0.00    +0.000 C 
ATOM     16  C   UNL     1       0.529   9.281  22.617  0.00  0.00    +0.000 C 
ATOM     17  C   UNL     1      -0.497  10.326  22.882  0.00  0.00    +0.000 C 
ENDBRANCH   9  15
ENDBRANCH   2   5
BRANCH   1  19
ATOM     18  C   UNL     1       3.725   7.673  17.090  0.00  0.00    +0.000 C 
ATOM     19  C   UNL     1       2.387   7.508  17.824  0.00  0.00    +0.000 C 
BRANCH  19  20
ATOM     20  C   UNL     1       2.461   6.208  18.641  0.00  0.00    +0.000 A 
ATOM     21  C   UNL     1       3.097   5.095  18.067  0.00  0.00    +0.000 A 
ATOM     22  C   UNL     1       3.472   3.995  18.848  0.00  0.00    +0.000 A 
ATOM     23  C   UNL     1       3.116   3.922  20.201  0.00  0.00    +0.000 A 
ATOM     24  C   UNL     1       2.362   4.966  20.748  0.00  0.00    +0.000 A 
ATOM     25  C   UNL     1       2.064   6.112  19.983  0.00  0.00    +0.000 A 
BRANCH  23  26
ATOM     26  C   UNL     1       3.628   2.745  20.969  0.00  0.00    +0.000 C 
ATOM     27  O   UNL     1       2.964   2.232  21.864  0.00  0.00    +0.000 OA
ATOM     28  N   UNL     1       4.857   2.240  20.630  0.00  0.00    +0.000 N 
ATOM     29  H   UNL     1       5.531   2.648  19.988  0.00  0.00    +0.000 HD
BRANCH  28  30
ATOM     30  O   UNL     1       5.295   1.131  21.390  0.00  0.00    +0.000 OA
ATOM     31  H   UNL     1       6.099   1.495  21.828  0.00  0.00    +0.000 HD
ENDBRANCH  28  30
ENDBRANCH  23  26
ENDBRANCH  19  20
ENDBRANCH   1  19
TORSDOF 7
ENDMDL
