MODEL 1
REMARK VINA RESULT:      -6.8      0.000      0.000
REMARK  Name = 
REMARK  9 active torsions:
REMARK  status: ('A' for Active; 'I' for Inactive)
REMARK    1  A    between atoms: C_1  and  C_2
REMARK    2  A    between atoms: C_2  and  C_3
REMARK    3  A    between atoms: C_3  and  N_4
REMARK    4  A    between atoms: N_4  and  C_5
REMARK    5  A    between atoms: C_5  and  C_6
REMARK    6  A    between atoms: C_6  and  C_7
REMARK    7  A    between atoms: C_12  and  N_13
REMARK    8  A    between atoms: C_14  and  C_15
REMARK    9  A    between atoms: C_15  and  O_17
REMARK                            x       y       z     vdW  Elec       q    Type
REMARK                         _______ _______ _______ _____ _____    ______ ____
ROOT
ATOM      1  N   UNL     1       6.041   5.585  17.680  0.00  0.00    +0.000 N 
ATOM      2  C   UNL     1       5.379   5.046  18.792  0.00  0.00    +0.000 C 
ATOM      3  O   UNL     1       6.005   4.754  19.812  0.00  0.00    +0.000 OA
ATOM      4  N   UNL     1       4.014   4.809  18.757  0.00  0.00    +0.000 N 
ATOM      5  C   UNL     1       2.972   5.193  17.805  0.00  0.00    +0.000 C 
ATOM      6  C   UNL     1       1.766   4.329  18.154  0.00  0.00    +0.000 C 
ATOM      7  C   UNL     1       1.868   4.288  19.675  0.00  0.00    +0.000 C 
ATOM      8  C   UNL     1       3.375   4.193  19.928  0.00  0.00    +0.000 C 
ENDROOT
BRANCH   6   9
ATOM      9  N   UNL     1       1.882   2.987  17.531  0.00  0.00    +0.000 NA
ATOM     10  H   UNL     1       0.933   2.658  17.299  0.00  0.00    +0.000 HD
ATOM     11  H   UNL     1       2.179   2.318  18.252  0.00  0.00    +0.000 HD
ENDBRANCH   6   9
BRANCH   7  12
ATOM     12  C   UNL     1       1.076   3.209  20.373  0.00  0.00    +0.000 C 
ATOM     13  O   UNL     1       1.368   2.803  21.492  0.00  0.00    +0.000 OA
BRANCH  12  14
ATOM     14  O   UNL     1      -0.002   2.738  19.711  0.00  0.00    +0.000 OA
ATOM     15  H   UNL     1      -0.602   2.209  20.296  0.00  0.00    +0.000 HD
ENDBRANCH  12  14
ENDBRANCH   7  12
BRANCH   1  16
ATOM     16  C   UNL     1       7.498   5.770  17.786  0.00  0.00    +0.000 C 
BRANCH  16  18
ATOM     17  C   UNL     1       7.881   8.306  17.612  0.00  0.00    +0.000 C 
ATOM     18  C   UNL     1       7.973   7.060  18.476  0.00  0.00    +0.000 C 
ENDBRANCH  16  18
ENDBRANCH   1  16
BRANCH   1  19
ATOM     19  C   UNL     1       5.359   6.053  16.483  0.00  0.00    +0.000 C 
BRANCH  19  20
ATOM     20  C   UNL     1       5.641   5.505  15.088  0.00  0.00    +0.000 C 
ATOM     21  C   UNL     1       5.746   3.981  15.187  0.00  0.00    +0.000 C 
ENDBRANCH  19  20
ENDBRANCH   1  19
TORSDOF 7
ENDMDL
MODEL 2
REMARK VINA RESULT:      -6.6      1.215      1.448
REMARK  Name = 
REMARK  9 active torsions:
REMARK  status: ('A' for Active; 'I' for Inactive)
REMARK    1  A    between atoms: C_1  and  C_2
REMARK    2  A    between atoms: C_2  and  C_3
REMARK    3  A    between atoms: C_3  and  N_4
REMARK    4  A    between atoms: N_4  and  C_5
REMARK    5  A    between atoms: C_5  and  C_6
REMARK    6  A    between atoms: C_6  and  C_7
REMARK    7  A    between atoms: C_12  and  N_13
REMARK    8  A    between atoms: C_14  and  C_15
REMARK    9  A    between atoms: C_15  and  O_17
REMARK                            x       y       z     vdW  Elec       q    Type
REMARK                         _______ _______ _______ _____ _____    ______ ____
ROOT
ATOM      1  N   UNL     1       6.306   5.069  17.612  0.00  0.00    +0.000 N 
ATOM      2  C   UNL     1       5.174   5.107  18.438  0.00  0.00    +0.000 C 
ATOM      3  O   UNL     1       5.160   5.811  19.449  0.00  0.00    +0.000 OA
ATOM      4  N   UNL     1       4.059   4.336  18.148  0.00  0.00    +0.000 N 
ATOM      5  C   UNL     1       3.682   3.554  16.971  0.00  0.00    +0.000 C 
ATOM      6  C   UNL     1       2.523   2.674  17.423  0.00  0.00    +0.000 C 
ATOM      7  C   UNL     1       1.786   3.624  18.362  0.00  0.00    +0.000 C 
ATOM      8  C   UNL     1       2.918   4.370  19.073  0.00  0.00    +0.000 C 
ENDROOT
BRANCH   6   9
ATOM      9  N   UNL     1       3.023   1.457  18.110  0.00  0.00    +0.000 NA
ATOM     10  H   UNL     1       3.600   0.925  17.441  0.00  0.00    +0.000 HD
ATOM     11  H   UNL     1       2.230   0.825  18.271  0.00  0.00    +0.000 HD
ENDBRANCH   6   9
BRANCH   7  12
ATOM     12  C   UNL     1       0.796   2.996  19.313  0.00  0.00    +0.000 C 
ATOM     13  O   UNL     1       0.136   2.008  19.013  0.00  0.00    +0.000 OA
BRANCH  12  14
ATOM     14  O   UNL     1       0.702   3.562  20.535  0.00  0.00    +0.000 OA
ATOM     15  H   UNL     1       0.324   4.477  20.499  0.00  0.00    +0.000 HD
ENDBRANCH  12  14
ENDBRANCH   7  12
BRANCH   1  16
ATOM     16  C   UNL     1       7.462   5.889  18.012  0.00  0.00    +0.000 C 
BRANCH  16  18
ATOM     17  C   UNL     1       8.299   8.307  18.252  0.00  0.00    +0.000 C 
ATOM     18  C   UNL     1       7.541   7.299  17.405  0.00  0.00    +0.000 C 
ENDBRANCH  16  18
ENDBRANCH   1  16
BRANCH   1  19
ATOM     19  C   UNL     1       6.360   4.347  16.350  0.00  0.00    +0.000 C 
BRANCH  19  20
ATOM     20  C   UNL     1       6.242   5.025  14.989  0.00  0.00    +0.000 C 
ATOM     21  C   UNL     1       6.209   3.933  13.915  0.00  0.00    +0.000 C 
ENDBRANCH  19  20
ENDBRANCH   1  19
TORSDOF 7
ENDMDL
MODEL 3
REMARK VINA RESULT:      -6.6      0.868      1.096
REMARK  Name = 
REMARK  9 active torsions:
REMARK  status: ('A' for Active; 'I' for Inactive)
REMARK    1  A    between atoms: C_1  and  C_2
REMARK    2  A    between atoms: C_2  and  C_3
REMARK    3  A    between atoms: C_3  and  N_4
REMARK    4  A    between atoms: N_4  and  C_5
REMARK    5  A    between atoms: C_5  and  C_6
REMARK    6  A    between atoms: C_6  and  C_7
REMARK    7  A    between atoms: C_12  and  N_13
REMARK    8  A    between atoms: C_14  and  C_15
REMARK    9  A    between atoms: C_15  and  O_17
REMARK                            x       y       z     vdW  Elec       q    Type
REMARK                         _______ _______ _______ _____ _____    ______ ____
ROOT
ATOM      1  N   UNL     1       6.337   4.567  17.668  0.00  0.00    +0.000 N 
ATOM      2  C   UNL     1       5.445   4.539  18.749  0.00  0.00    +0.000 C 
ATOM      3  O   UNL     1       5.814   4.877  19.875  0.00  0.00    +0.000 OA
ATOM      4  N   UNL     1       4.138   4.109  18.577  0.00  0.00    +0.000 N 
ATOM      5  C   UNL     1       3.345   3.819  17.383  0.00  0.00    +0.000 C 
ATOM      6  C   UNL     1       2.123   3.059  17.882  0.00  0.00    +0.000 C 
ATOM      7  C   UNL     1       1.854   3.776  19.201  0.00  0.00    +0.000 C 
ATOM      8  C   UNL     1       3.256   4.047  19.751  0.00  0.00    +0.000 C 
ENDROOT
BRANCH   6   9
ATOM      9  N   UNL     1       2.435   1.619  18.061  0.00  0.00    +0.000 NA
ATOM     10  H   UNL     1       1.618   1.166  18.497  0.00  0.00    +0.000 HD
ATOM     11  H   UNL     1       3.154   1.530  18.789  0.00  0.00    +0.000 HD
ENDBRANCH   6   9
BRANCH   7  12
ATOM     12  C   UNL     1       0.955   3.063  20.182  0.00  0.00    +0.000 C 
ATOM     13  O   UNL     1       1.191   3.034  21.384  0.00  0.00    +0.000 OA
BRANCH  12  14
ATOM     14  O   UNL     1      -0.153   2.489  19.667  0.00  0.00    +0.000 OA
ATOM     15  H   UNL     1      -0.100   2.384  18.683  0.00  0.00    +0.000 HD
ENDBRANCH  12  14
ENDBRANCH   7  12
BRANCH   1  16
ATOM     16  C   UNL     1       7.717   5.000  17.944  0.00  0.00    +0.000 C 
BRANCH  16  18
ATOM     17  C   UNL     1       7.742   7.554  17.650  0.00  0.00    +0.000 C 
ATOM     18  C   UNL     1       7.879   6.380  18.604  0.00  0.00    +0.000 C 
ENDBRANCH  16  18
ENDBRANCH   1  16
BRANCH   1  19
ATOM     19  C   UNL     1       5.951   4.285  16.294  0.00  0.00    +0.000 C 
BRANCH  19  20
ATOM     20  C   UNL     1       5.979   5.329  15.183  0.00  0.00    +0.000 C 
ATOM     21  C   UNL     1       5.087   6.499  15.607  0.00  0.00    +0.000 C 
ENDBRANCH  19  20
ENDBRANCH   1  19
TORSDOF 7
ENDMDL
MODEL 4
REMARK VINA RESULT:      -6.5      1.578      1.843
REMARK  Name = 
REMARK  9 active torsions:
REMARK  status: ('A' for Active; 'I' for Inactive)
REMARK    1  A    between atoms: C_1  and  C_2
REMARK    2  A    between atoms: C_2  and  C_3
REMARK    3  A    between atoms: C_3  and  N_4
REMARK    4  A    between atoms: N_4  and  C_5
REMARK    5  A    between atoms: C_5  and  C_6
REMARK    6  A    between atoms: C_6  and  C_7
REMARK    7  A    between atoms: C_12  and  N_13
REMARK    8  A    between atoms: C_14  and  C_15
REMARK    9  A    between atoms: C_15  and  O_17
REMARK                            x       y       z     vdW  Elec       q    Type
REMARK                         _______ _______ _______ _____ _____    ______ ____
ROOT
ATOM      1  N   UNL     1       5.803   5.665  17.239  0.00  0.00    +0.000 N 
ATOM      2  C   UNL     1       4.800   5.658  18.219  0.00  0.00    +0.000 C 
ATOM      3  O   UNL     1       4.438   6.708  18.752  0.00  0.00    +0.000 OA
ATOM      4  N   UNL     1       4.214   4.468  18.623  0.00  0.00    +0.000 N 
ATOM      5  C   UNL     1       4.276   3.108  18.089  0.00  0.00    +0.000 C 
ATOM      6  C   UNL     1       3.705   2.217  19.185  0.00  0.00    +0.000 C 
ATOM      7  C   UNL     1       2.593   3.105  19.733  0.00  0.00    +0.000 C 
ATOM      8  C   UNL     1       3.205   4.507  19.691  0.00  0.00    +0.000 C 
ENDROOT
BRANCH   6   9
ATOM      9  N   UNL     1       4.742   1.898  20.198  0.00  0.00    +0.000 NA
ATOM     10  H   UNL     1       5.537   1.453  19.714  0.00  0.00    +0.000 HD
ATOM     11  H   UNL     1       4.392   1.139  20.794  0.00  0.00    +0.000 HD
ENDBRANCH   6   9
BRANCH   7  12
ATOM     12  C   UNL     1       2.043   2.734  21.089  0.00  0.00    +0.000 C 
ATOM     13  O   UNL     1       2.769   2.499  22.048  0.00  0.00    +0.000 OA
BRANCH  12  14
ATOM     14  O   UNL     1       0.698   2.713  21.201  0.00  0.00    +0.000 OA
ATOM     15  H   UNL     1       0.277   3.535  20.841  0.00  0.00    +0.000 HD
ENDBRANCH  12  14
ENDBRANCH   7  12
BRANCH   1  16
ATOM     16  C   UNL     1       6.400   6.966  16.894  0.00  0.00    +0.000 C 
BRANCH  16  18
ATOM     17  C   UNL     1       7.932   8.848  17.744  0.00  0.00    +0.000 C 
ATOM     18  C   UNL     1       7.680   7.352  17.654  0.00  0.00    +0.000 C 
ENDBRANCH  16  18
ENDBRANCH   1  16
BRANCH   1  19
ATOM     19  C   UNL     1       6.209   4.485  16.491  0.00  0.00    +0.000 C 
BRANCH  19  20
ATOM     20  C   UNL     1       6.881   4.548  15.123  0.00  0.00    +0.000 C 
ATOM     21  C   UNL     1       5.838   4.177  14.065  0.00  0.00    +0.000 C 
ENDBRANCH  19  20
ENDBRANCH   1  19
TORSDOF 7
ENDMDL
MODEL 5
REMARK VINA RESULT:      -6.5      2.620      6.222
REMARK  Name = 
REMARK  9 active torsions:
REMARK  status: ('A' for Active; 'I' for Inactive)
REMARK    1  A    between atoms: C_1  and  C_2
REMARK    2  A    between atoms: C_2  and  C_3
REMARK    3  A    between atoms: C_3  and  N_4
REMARK    4  A    between atoms: N_4  and  C_5
REMARK    5  A    between atoms: C_5  and  C_6
REMARK    6  A    between atoms: C_6  and  C_7
REMARK    7  A    between atoms: C_12  and  N_13
REMARK    8  A    between atoms: C_14  and  C_15
REMARK    9  A    between atoms: C_15  and  O_17
REMARK                            x       y       z     vdW  Elec       q    Type
REMARK                         _______ _______ _______ _____ _____    ______ ____
ROOT
ATOM      1  N   UNL     1       2.524   4.790  18.922  0.00  0.00    +0.000 N 
ATOM      2  C   UNL     1       3.058   4.313  17.717  0.00  0.00    +0.000 C 
ATOM      3  O   UNL     1       2.585   3.313  17.174  0.00  0.00    +0.000 OA
ATOM      4  N   UNL     1       4.143   4.942  17.126  0.00  0.00    +0.000 N 
ATOM      5  C   UNL     1       4.812   6.214  17.397  0.00  0.00    +0.000 C 
ATOM      6  C   UNL     1       6.131   6.148  16.637  0.00  0.00    +0.000 C 
ATOM      7  C   UNL     1       5.703   5.408  15.375  0.00  0.00    +0.000 C 
ATOM      8  C   UNL     1       4.701   4.372  15.891  0.00  0.00    +0.000 C 
ENDROOT
BRANCH   6   9
ATOM      9  N   UNL     1       7.153   5.409  17.421  0.00  0.00    +0.000 NA
ATOM     10  H   UNL     1       7.218   5.843  18.354  0.00  0.00    +0.000 HD
ATOM     11  H   UNL     1       8.078   5.608  17.020  0.00  0.00    +0.000 HD
ENDBRANCH   6   9
BRANCH   7  12
ATOM     12  C   UNL     1       6.808   4.805  14.541  0.00  0.00    +0.000 C 
ATOM     13  O   UNL     1       7.887   5.363  14.381  0.00  0.00    +0.000 OA
BRANCH  12  14
ATOM     14  O   UNL     1       6.558   3.589  14.010  0.00  0.00    +0.000 OA
ATOM     15  H   UNL     1       6.995   2.858  14.518  0.00  0.00    +0.000 HD
ENDBRANCH  12  14
ENDBRANCH   7  12
BRANCH   1  16
ATOM     16  C   UNL     1       1.396   4.042  19.502  0.00  0.00    +0.000 C 
BRANCH  16  18
ATOM     17  C   UNL     1       2.435   2.764  21.476  0.00  0.00    +0.000 C 
ATOM     18  C   UNL     1       1.438   3.817  21.023  0.00  0.00    +0.000 C 
ENDBRANCH  16  18
ENDBRANCH   1  16
BRANCH   1  19
ATOM     19  C   UNL     1       2.957   6.020  19.566  0.00  0.00    +0.000 C 
BRANCH  19  20
ATOM     20  C   UNL     1       2.180   7.330  19.485  0.00  0.00    +0.000 C 
ATOM     21  C   UNL     1       1.544   7.591  20.853  0.00  0.00    +0.000 C 
ENDBRANCH  19  20
ENDBRANCH   1  19
TORSDOF 7
ENDMDL
MODEL 6
REMARK VINA RESULT:      -6.4      2.646      6.190
REMARK  Name = 
REMARK  9 active torsions:
REMARK  status: ('A' for Active; 'I' for Inactive)
REMARK    1  A    between atoms: C_1  and  C_2
REMARK    2  A    between atoms: C_2  and  C_3
REMARK    3  A    between atoms: C_3  and  N_4
REMARK    4  A    between atoms: N_4  and  C_5
REMARK    5  A    between atoms: C_5  and  C_6
REMARK    6  A    between atoms: C_6  and  C_7
REMARK    7  A    between atoms: C_12  and  N_13
REMARK    8  A    between atoms: C_14  and  C_15
REMARK    9  A    between atoms: C_15  and  O_17
REMARK                            x       y       z     vdW  Elec       q    Type
REMARK                         _______ _______ _______ _____ _____    ______ ____
ROOT
ATOM      1  N   UNL     1       3.577   4.190  19.356  0.00  0.00    +0.000 N 
ATOM      2  C   UNL     1       4.063   3.652  18.156  0.00  0.00    +0.000 C 
ATOM      3  O   UNL     1       3.964   2.446  17.925  0.00  0.00    +0.000 OA
ATOM      4  N   UNL     1       4.683   4.462  17.217  0.00  0.00    +0.000 N 
ATOM      5  C   UNL     1       4.802   5.914  17.094  0.00  0.00    +0.000 C 
ATOM      6  C   UNL     1       5.893   6.145  16.055  0.00  0.00    +0.000 C 
ATOM      7  C   UNL     1       5.613   5.005  15.082  0.00  0.00    +0.000 C 
ATOM      8  C   UNL     1       5.223   3.842  15.999  0.00  0.00    +0.000 C 
ENDROOT
BRANCH   6   9
ATOM      9  N   UNL     1       7.238   6.057  16.677  0.00  0.00    +0.000 NA
ATOM     10  H   UNL     1       7.494   5.061  16.748  0.00  0.00    +0.000 HD
ATOM     11  H   UNL     1       7.161   6.338  17.662  0.00  0.00    +0.000 HD
ENDBRANCH   6   9
BRANCH   7  12
ATOM     12  C   UNL     1       6.722   4.657  14.117  0.00  0.00    +0.000 C 
ATOM     13  O   UNL     1       7.735   5.338  14.011  0.00  0.00    +0.000 OA
BRANCH  12  14
ATOM     14  O   UNL     1       6.554   3.526  13.399  0.00  0.00    +0.000 OA
ATOM     15  H   UNL     1       7.401   3.207  12.995  0.00  0.00    +0.000 HD
ENDBRANCH  12  14
ENDBRANCH   7  12
BRANCH   1  16
ATOM     16  C   UNL     1       2.966   3.255  20.315  0.00  0.00    +0.000 C 
BRANCH  16  18
ATOM     17  C   UNL     1       0.708   2.770  19.185  0.00  0.00    +0.000 C 
ATOM     18  C   UNL     1       1.431   3.288  20.417  0.00  0.00    +0.000 C 
ENDBRANCH  16  18
ENDBRANCH   1  16
BRANCH   1  19
ATOM     19  C   UNL     1       3.561   5.613  19.655  0.00  0.00    +0.000 C 
BRANCH  19  20
ATOM     20  C   UNL     1       2.377   6.524  19.345  0.00  0.00    +0.000 C 
ATOM     21  C   UNL     1       1.764   6.974  20.673  0.00  0.00    +0.000 C 
ENDBRANCH  19  20
ENDBRANCH   1  19
TORSDOF 7
ENDMDL
MODEL 7
REMARK VINA RESULT:      -6.4      1.735      1.839
REMARK  Name = 
REMARK  9 active torsions:
REMARK  status: ('A' for Active; 'I' for Inactive)
REMARK    1  A    between atoms: C_1  and  C_2
REMARK    2  A    between atoms: C_2  and  C_3
REMARK    3  A    between atoms: C_3  and  N_4
REMARK    4  A    between atoms: N_4  and  C_5
REMARK    5  A    between atoms: C_5  and  C_6
REMARK    6  A    between atoms: C_6  and  C_7
REMARK    7  A    between atoms: C_12  and  N_13
REMARK    8  A    between atoms: C_14  and  C_15
REMARK    9  A    between atoms: C_15  and  O_17
REMARK                            x       y       z     vdW  Elec       q    Type
REMARK                         _______ _______ _______ _____ _____    ______ ____
ROOT
ATOM      1  N   UNL     1       5.929   5.873  16.964  0.00  0.00    +0.000 N 
ATOM      2  C   UNL     1       4.668   5.776  17.570  0.00  0.00    +0.000 C 
ATOM      3  O   UNL     1       4.116   6.776  18.031  0.00  0.00    +0.000 OA
ATOM      4  N   UNL     1       4.030   4.550  17.684  0.00  0.00    +0.000 N 
ATOM      5  C   UNL     1       4.310   3.237  17.104  0.00  0.00    +0.000 C 
ATOM      6  C   UNL     1       3.457   2.255  17.897  0.00  0.00    +0.000 C 
ATOM      7  C   UNL     1       2.195   3.082  18.122  0.00  0.00    +0.000 C 
ATOM      8  C   UNL     1       2.735   4.492  18.375  0.00  0.00    +0.000 C 
ENDROOT
BRANCH   6   9
ATOM      9  N   UNL     1       4.131   1.873  19.163  0.00  0.00    +0.000 NA
ATOM     10  H   UNL     1       3.407   1.745  19.886  0.00  0.00    +0.000 HD
ATOM     11  H   UNL     1       4.652   2.687  19.512  0.00  0.00    +0.000 HD
ENDBRANCH   6   9
BRANCH   7  12
ATOM     12  C   UNL     1       1.259   2.599  19.204  0.00  0.00    +0.000 C 
ATOM     13  O   UNL     1       1.507   2.738  20.395  0.00  0.00    +0.000 OA
BRANCH  12  14
ATOM     14  O   UNL     1       0.106   2.035  18.785  0.00  0.00    +0.000 OA
ATOM     15  H   UNL     1      -0.270   1.406  19.453  0.00  0.00    +0.000 HD
ENDBRANCH  12  14
ENDBRANCH   7  12
BRANCH   1  16
ATOM     16  C   UNL     1       6.554   7.206  16.918  0.00  0.00    +0.000 C 
BRANCH  16  18
ATOM     17  C   UNL     1       8.196   8.884  17.964  0.00  0.00    +0.000 C 
ATOM     18  C   UNL     1       7.731   7.440  17.880  0.00  0.00    +0.000 C 
ENDBRANCH  16  18
ENDBRANCH   1  16
BRANCH   1  19
ATOM     19  C   UNL     1       6.596   4.761  16.305  0.00  0.00    +0.000 C 
BRANCH  19  20
ATOM     20  C   UNL     1       7.067   4.805  14.855  0.00  0.00    +0.000 C 
ATOM     21  C   UNL     1       6.067   4.014  14.006  0.00  0.00    +0.000 C 
ENDBRANCH  19  20
ENDBRANCH   1  19
TORSDOF 7
ENDMDL
MODEL 8
REMARK VINA RESULT:      -6.4      1.413      1.522
REMARK  Name = 
REMARK  9 active torsions:
REMARK  status: ('A' for Active; 'I' for Inactive)
REMARK    1  A    between atoms: C_1  and  C_2
REMARK    2  A    between atoms: C_2  and  C_3
REMARK    3  A    between atoms: C_3  and  N_4
REMARK    4  A    between atoms: N_4  and  C_5
REMARK    5  A    between atoms: C_5  and  C_6
REMARK    6  A    between atoms: C_6  and  C_7
REMARK    7  A    between atoms: C_12  and  N_13
REMARK    8  A    between atoms: C_14  and  C_15
REMARK    9  A    between atoms: C_15  and  O_17
REMARK                            x       y       z     vdW  Elec       q    Type
REMARK                         _______ _______ _______ _____ _____    ______ ____
ROOT
ATOM      1  N   UNL     1       6.570   5.106  17.921  0.00  0.00    +0.000 N 
ATOM      2  C   UNL     1       5.379   5.071  18.660  0.00  0.00    +0.000 C 
ATOM      3  O   UNL     1       5.217   5.822  19.623  0.00  0.00    +0.000 OA
ATOM      4  N   UNL     1       4.370   4.177  18.335  0.00  0.00    +0.000 N 
ATOM      5  C   UNL     1       4.165   3.301  17.182  0.00  0.00    +0.000 C 
ATOM      6  C   UNL     1       3.065   2.333  17.600  0.00  0.00    +0.000 C 
ATOM      7  C   UNL     1       2.168   3.250  18.425  0.00  0.00    +0.000 C 
ATOM      8  C   UNL     1       3.163   4.143  19.171  0.00  0.00    +0.000 C 
ENDROOT
BRANCH   6   9
ATOM      9  N   UNL     1       3.626   1.210  18.392  0.00  0.00    +0.000 NA
ATOM     10  H   UNL     1       4.609   1.431  18.611  0.00  0.00    +0.000 HD
ATOM     11  H   UNL     1       3.715   0.391  17.778  0.00  0.00    +0.000 HD
ENDBRANCH   6   9
BRANCH   7  12
ATOM     12  C   UNL     1       1.172   2.574  19.336  0.00  0.00    +0.000 C 
ATOM     13  O   UNL     1       1.040   2.892  20.512  0.00  0.00    +0.000 OA
BRANCH  12  14
ATOM     14  O   UNL     1       0.401   1.620  18.773  0.00  0.00    +0.000 OA
ATOM     15  H   UNL     1      -0.283   1.999  18.163  0.00  0.00    +0.000 HD
ENDBRANCH  12  14
ENDBRANCH   7  12
BRANCH   1  16
ATOM     16  C   UNL     1       7.606   6.058  18.356  0.00  0.00    +0.000 C 
BRANCH  16  18
ATOM     17  C   UNL     1       8.398   8.504  18.357  0.00  0.00    +0.000 C 
ATOM     18  C   UNL     1       7.638   7.411  17.625  0.00  0.00    +0.000 C 
ENDBRANCH  16  18
ENDBRANCH   1  16
BRANCH   1  19
ATOM     19  C   UNL     1       6.793   4.330  16.712  0.00  0.00    +0.000 C 
BRANCH  19  20
ATOM     20  C   UNL     1       6.907   4.951  15.324  0.00  0.00    +0.000 C 
ATOM     21  C   UNL     1       5.578   5.640  15.000  0.00  0.00    +0.000 C 
ENDBRANCH  19  20
ENDBRANCH   1  19
TORSDOF 7
ENDMDL
MODEL 9
REMARK VINA RESULT:      -6.3      2.668      6.243
REMARK  Name = 
REMARK  9 active torsions:
REMARK  status: ('A' for Active; 'I' for Inactive)
REMARK    1  A    between atoms: C_1  and  C_2
REMARK    2  A    between atoms: C_2  and  C_3
REMARK    3  A    between atoms: C_3  and  N_4
REMARK    4  A    between atoms: N_4  and  C_5
REMARK    5  A    between atoms: C_5  and  C_6
REMARK    6  A    between atoms: C_6  and  C_7
REMARK    7  A    between atoms: C_12  and  N_13
REMARK    8  A    between atoms: C_14  and  C_15
REMARK    9  A    between atoms: C_15  and  O_17
REMARK                            x       y       z     vdW  Elec       q    Type
REMARK                         _______ _______ _______ _____ _____    ______ ____
ROOT
ATOM      1  N   UNL     1       2.767   4.885  18.886  0.00  0.00    +0.000 N 
ATOM      2  C   UNL     1       3.254   4.358  17.682  0.00  0.00    +0.000 C 
ATOM      3  O   UNL     1       2.788   3.315  17.221  0.00  0.00    +0.000 OA
ATOM      4  N   UNL     1       4.283   4.987  16.999  0.00  0.00    +0.000 N 
ATOM      5  C   UNL     1       4.921   6.293  17.163  0.00  0.00    +0.000 C 
ATOM      6  C   UNL     1       6.199   6.226  16.338  0.00  0.00    +0.000 C 
ATOM      7  C   UNL     1       5.732   5.403  15.143  0.00  0.00    +0.000 C 
ATOM      8  C   UNL     1       4.795   4.366  15.769  0.00  0.00    +0.000 C 
ENDROOT
BRANCH   6   9
ATOM      9  N   UNL     1       7.286   5.567  17.104  0.00  0.00    +0.000 NA
ATOM     10  H   UNL     1       6.854   4.990  17.842  0.00  0.00    +0.000 HD
ATOM     11  H   UNL     1       7.785   6.283  17.645  0.00  0.00    +0.000 HD
ENDBRANCH   6   9
BRANCH   7  12
ATOM     12  C   UNL     1       6.812   4.789  14.285  0.00  0.00    +0.000 C 
ATOM     13  O   UNL     1       6.648   3.738  13.678  0.00  0.00    +0.000 OA
BRANCH  12  14
ATOM     14  O   UNL     1       7.965   5.486  14.189  0.00  0.00    +0.000 OA
ATOM     15  H   UNL     1       8.172   5.746  13.255  0.00  0.00    +0.000 HD
ENDBRANCH  12  14
ENDBRANCH   7  12
BRANCH   1  16
ATOM     16  C   UNL     1       1.698   4.135  19.568  0.00  0.00    +0.000 C 
BRANCH  16  18
ATOM     17  C   UNL     1       1.530   2.589  21.614  0.00  0.00    +0.000 C 
ATOM     18  C   UNL     1       1.838   3.982  21.091  0.00  0.00    +0.000 C 
ENDBRANCH  16  18
ENDBRANCH   1  16
BRANCH   1  19
ATOM     19  C   UNL     1       3.190   6.163  19.438  0.00  0.00    +0.000 C 
BRANCH  19  20
ATOM     20  C   UNL     1       2.238   7.331  19.678  0.00  0.00    +0.000 C 
ATOM     21  C   UNL     1       2.149   8.145  18.385  0.00  0.00    +0.000 C 
ENDBRANCH  19  20
ENDBRANCH   1  19
TORSDOF 7
ENDMDL
