MODEL 1
REMARK VINA RESULT:      -7.9      0.000      0.000
REMARK  Name = 
REMARK  5 active torsions:
REMARK  status: ('A' for Active; 'I' for Inactive)
REMARK    1  A    between atoms: C_5  and  C_7
REMARK    2  A    between atoms: C_7  and  C_8
REMARK    3  A    between atoms: C_8  and  C_9
REMARK    4  A    between atoms: C_9  and  C_10
REMARK    5  A    between atoms: C_13  and  C_14
REMARK                            x       y       z     vdW  Elec       q    Type
REMARK                         _______ _______ _______ _____ _____    ______ ____
ROOT
ATOM      1  C   UNL     1       2.381   5.875  18.560  0.00  0.00    +0.000 C 
ENDROOT
BRANCH   1   2
ATOM      2  C   UNL     1       3.429   4.812  18.899  0.00  0.00    +0.000 C 
BRANCH   2   7
ATOM      3  O   UNL     1       7.884   7.206  17.953  0.00  0.00    +0.000 OA
ATOM      4  C   UNL     1       7.227   6.321  17.406  0.00  0.00    +0.000 C 
ATOM      5  C   UNL     1       6.226   5.447  18.189  0.00  0.00    +0.000 C 
ATOM      6  N   UNL     1       5.376   4.583  17.362  0.00  0.00    +0.000 N 
ATOM      7  C   UNL     1       4.064   4.242  17.634  0.00  0.00    +0.000 C 
ATOM      8  O   UNL     1       3.425   3.507  16.878  0.00  0.00    +0.000 OA
ATOM      9  C   UNL     1       6.032   4.015  16.184  0.00  0.00    +0.000 C 
ATOM     10  C   UNL     1       6.583   5.148  15.323  0.00  0.00    +0.000 C 
ATOM     11  N   UNL     1       7.456   6.017  16.088  0.00  0.00    +0.000 N 
ATOM     12  H   UNL     1       8.081   6.653  15.606  0.00  0.00    +0.000 HD
ENDBRANCH   2   7
ENDBRANCH   1   2
BRANCH   1  13
ATOM     13  C   UNL     1       2.976   7.113  17.883  0.00  0.00    +0.000 C 
BRANCH  13  14
ATOM     14  C   UNL     1       2.228   8.345  18.262  0.00  0.00    +0.000 A 
ATOM     15  N   UNL     1       1.960   9.403  17.525  0.00  0.00    +0.000 NA
ATOM     16  C   UNL     1       1.237  10.210  18.362  0.00  0.00    +0.000 A 
ATOM     17  C   UNL     1       1.070   9.608  19.590  0.00  0.00    +0.000 A 
ATOM     18  O   UNL     1       1.719   8.398  19.533  0.00  0.00    +0.000 OA
BRANCH  17  19
ATOM     19  C   UNL     1       0.380   9.953  20.827  0.00  0.00    +0.000 A 
ATOM     20  C   UNL     1      -0.484  11.060  20.871  0.00  0.00    +0.000 A 
ATOM     21  C   UNL     1      -1.181  11.383  22.041  0.00  0.00    +0.000 A 
ATOM     22  C   UNL     1      -1.021  10.605  23.184  0.00  0.00    +0.000 A 
ATOM     23  C   UNL     1      -0.161   9.511  23.162  0.00  0.00    +0.000 A 
ATOM     24  C   UNL     1       0.536   9.189  21.992  0.00  0.00    +0.000 A 
ENDBRANCH  17  19
ENDBRANCH  13  14
ENDBRANCH   1  13
TORSDOF 5
ENDMDL
MODEL 2
REMARK VINA RESULT:      -7.8      0.525      1.103
REMARK  Name = 
REMARK  5 active torsions:
REMARK  status: ('A' for Active; 'I' for Inactive)
REMARK    1  A    between atoms: C_5  and  C_7
REMARK    2  A    between atoms: C_7  and  C_8
REMARK    3  A    between atoms: C_8  and  C_9
REMARK    4  A    between atoms: C_9  and  C_10
REMARK    5  A    between atoms: C_13  and  C_14
REMARK                            x       y       z     vdW  Elec       q    Type
REMARK                         _______ _______ _______ _____ _____    ______ ____
ROOT
ATOM      1  C   UNL     1       2.818   5.723  19.246  0.00  0.00    +0.000 C 
ENDROOT
BRANCH   1   2
ATOM      2  C   UNL     1       4.030   4.823  19.501  0.00  0.00    +0.000 C 
BRANCH   2   7
ATOM      3  O   UNL     1       7.996   7.725  17.976  0.00  0.00    +0.000 OA
ATOM      4  C   UNL     1       7.408   6.737  17.537  0.00  0.00    +0.000 C 
ATOM      5  C   UNL     1       6.623   5.780  18.458  0.00  0.00    +0.000 C 
ATOM      6  N   UNL     1       5.813   4.774  17.762  0.00  0.00    +0.000 N 
ATOM      7  C   UNL     1       4.595   4.279  18.192  0.00  0.00    +0.000 C 
ATOM      8  O   UNL     1       3.983   3.432  17.538  0.00  0.00    +0.000 OA
ATOM      9  C   UNL     1       6.408   4.239  16.537  0.00  0.00    +0.000 C 
ATOM     10  C   UNL     1       6.707   5.390  15.581  0.00  0.00    +0.000 C 
ATOM     11  N   UNL     1       7.533   6.402  16.213  0.00  0.00    +0.000 N 
ATOM     12  H   UNL     1       8.011   7.089  15.642  0.00  0.00    +0.000 HD
ENDBRANCH   2   7
ENDBRANCH   1   2
BRANCH   1  13
ATOM     13  C   UNL     1       3.034   6.717  18.102  0.00  0.00    +0.000 C 
BRANCH  13  14
ATOM     14  C   UNL     1       2.340   8.008  18.371  0.00  0.00    +0.000 A 
ATOM     15  N   UNL     1       2.174   9.036  17.565  0.00  0.00    +0.000 NA
ATOM     16  C   UNL     1       1.455   9.928  18.315  0.00  0.00    +0.000 A 
ATOM     17  C   UNL     1       1.187   9.406  19.562  0.00  0.00    +0.000 A 
ATOM     18  O   UNL     1       1.767   8.160  19.607  0.00  0.00    +0.000 OA
BRANCH  17  19
ATOM     19  C   UNL     1       0.453   9.857  20.737  0.00  0.00    +0.000 A 
ATOM     20  C   UNL     1       0.205   8.974  21.802  0.00  0.00    +0.000 A 
ATOM     21  C   UNL     1      -0.467   9.404  22.951  0.00  0.00    +0.000 A 
ATOM     22  C   UNL     1      -0.905  10.721  23.052  0.00  0.00    +0.000 A 
ATOM     23  C   UNL     1      -0.677  11.608  22.002  0.00  0.00    +0.000 A 
ATOM     24  C   UNL     1      -0.005  11.178  20.853  0.00  0.00    +0.000 A 
ENDBRANCH  17  19
ENDBRANCH  13  14
ENDBRANCH   1  13
TORSDOF 5
ENDMDL
MODEL 3
REMARK VINA RESULT:      -7.8      1.965      3.618
REMARK  Name = 
REMARK  5 active torsions:
REMARK  status: ('A' for Active; 'I' for Inactive)
REMARK    1  A    between atoms: C_5  and  C_7
REMARK    2  A    between atoms: C_7  and  C_8
REMARK    3  A    between atoms: C_8  and  C_9
REMARK    4  A    between atoms: C_9  and  C_10
REMARK    5  A    between atoms: C_13  and  C_14
REMARK                            x       y       z     vdW  Elec       q    Type
REMARK                         _______ _______ _______ _____ _____    ______ ____
ROOT
ATOM      1  C   UNL     1       4.155   6.538  17.416  0.00  0.00    +0.000 C 
ENDROOT
BRANCH   1   2
ATOM      2  C   UNL     1       4.716   5.158  17.061  0.00  0.00    +0.000 C 
BRANCH   2   7
ATOM      3  O   UNL     1       0.547   2.417  18.318  0.00  0.00    +0.000 OA
ATOM      4  C   UNL     1       1.674   2.571  18.787  0.00  0.00    +0.000 C 
ATOM      5  C   UNL     1       2.866   3.020  17.917  0.00  0.00    +0.000 C 
ATOM      6  N   UNL     1       4.086   3.355  18.660  0.00  0.00    +0.000 N 
ATOM      7  C   UNL     1       4.996   4.338  18.317  0.00  0.00    +0.000 C 
ATOM      8  O   UNL     1       5.997   4.551  19.004  0.00  0.00    +0.000 OA
ATOM      9  C   UNL     1       4.347   2.517  19.831  0.00  0.00    +0.000 C 
ATOM     10  C   UNL     1       3.151   2.588  20.774  0.00  0.00    +0.000 C 
ATOM     11  N   UNL     1       1.919   2.235  20.095  0.00  0.00    +0.000 N 
ATOM     12  H   UNL     1       1.096   1.998  20.636  0.00  0.00    +0.000 HD
ENDBRANCH   2   7
ENDBRANCH   1   2
BRANCH   1  13
ATOM     13  C   UNL     1       2.933   6.473  18.335  0.00  0.00    +0.000 C 
BRANCH  13  14
ATOM     14  C   UNL     1       2.311   7.817  18.498  0.00  0.00    +0.000 A 
ATOM     15  N   UNL     1       2.197   8.784  17.611  0.00  0.00    +0.000 NA
ATOM     16  C   UNL     1       1.529   9.771  18.286  0.00  0.00    +0.000 A 
ATOM     17  C   UNL     1       1.238   9.366  19.571  0.00  0.00    +0.000 A 
ATOM     18  O   UNL     1       1.750   8.099  19.717  0.00  0.00    +0.000 OA
BRANCH  17  19
ATOM     19  C   UNL     1       0.533   9.950  20.705  0.00  0.00    +0.000 A 
ATOM     20  C   UNL     1       0.219  11.320  20.716  0.00  0.00    +0.000 A 
ATOM     21  C   UNL     1      -0.490  11.887  21.781  0.00  0.00    +0.000 A 
ATOM     22  C   UNL     1      -0.892  11.094  22.852  0.00  0.00    +0.000 A 
ATOM     23  C   UNL     1      -0.581   9.737  22.863  0.00  0.00    +0.000 A 
ATOM     24  C   UNL     1       0.128   9.170  21.798  0.00  0.00    +0.000 A 
ENDBRANCH  17  19
ENDBRANCH  13  14
ENDBRANCH   1  13
TORSDOF 5
ENDMDL
MODEL 4
REMARK VINA RESULT:      -7.6      1.418      2.021
REMARK  Name = 
REMARK  5 active torsions:
REMARK  status: ('A' for Active; 'I' for Inactive)
REMARK    1  A    between atoms: C_5  and  C_7
REMARK    2  A    between atoms: C_7  and  C_8
REMARK    3  A    between atoms: C_8  and  C_9
REMARK    4  A    between atoms: C_9  and  C_10
REMARK    5  A    between atoms: C_13  and  C_14
REMARK                            x       y       z     vdW  Elec       q    Type
REMARK                         _______ _______ _______ _____ _____    ______ ____
ROOT
ATOM      1  C   UNL     1       2.173   6.442  18.112  0.00  0.00    +0.000 C 
ENDROOT
BRANCH   1   2
ATOM      2  C   UNL     1       3.027   5.190  17.890  0.00  0.00    +0.000 C 
BRANCH   2   7
ATOM      3  O   UNL     1       6.654   4.502  14.306  0.00  0.00    +0.000 OA
ATOM      4  C   UNL     1       6.643   4.742  15.513  0.00  0.00    +0.000 C 
ATOM      5  C   UNL     1       5.439   5.419  16.199  0.00  0.00    +0.000 C 
ATOM      6  N   UNL     1       5.494   5.448  17.665  0.00  0.00    +0.000 N 
ATOM      7  C   UNL     1       4.409   5.350  18.516  0.00  0.00    +0.000 C 
ATOM      8  O   UNL     1       4.552   5.383  19.740  0.00  0.00    +0.000 OA
ATOM      9  C   UNL     1       6.829   5.651  18.229  0.00  0.00    +0.000 C 
ATOM     10  C   UNL     1       7.762   4.559  17.714  0.00  0.00    +0.000 C 
ATOM     11  N   UNL     1       7.767   4.508  16.265  0.00  0.00    +0.000 N 
ATOM     12  H   UNL     1       8.508   4.014  15.782  0.00  0.00    +0.000 HD
ENDBRANCH   2   7
ENDBRANCH   1   2
BRANCH   1  13
ATOM     13  C   UNL     1       2.823   7.718  17.573  0.00  0.00    +0.000 C 
BRANCH  13  14
ATOM     14  C   UNL     1       2.163   8.934  18.127  0.00  0.00    +0.000 A 
ATOM     15  N   UNL     1       2.052  10.129  17.585  0.00  0.00    +0.000 NA
ATOM     16  C   UNL     1       1.341  10.844  18.511  0.00  0.00    +0.000 A 
ATOM     17  C   UNL     1       1.022  10.052  19.593  0.00  0.00    +0.000 A 
ATOM     18  O   UNL     1       1.561   8.811  19.352  0.00  0.00    +0.000 OA
BRANCH  17  19
ATOM     19  C   UNL     1       0.270  10.241  20.827  0.00  0.00    +0.000 A 
ATOM     20  C   UNL     1       0.428   9.345  21.898  0.00  0.00    +0.000 A 
ATOM     21  C   UNL     1      -0.259   9.533  23.101  0.00  0.00    +0.000 A 
ATOM     22  C   UNL     1      -1.118  10.618  23.251  0.00  0.00    +0.000 A 
ATOM     23  C   UNL     1      -1.294  11.511  22.198  0.00  0.00    +0.000 A 
ATOM     24  C   UNL     1      -0.607  11.322  20.994  0.00  0.00    +0.000 A 
ENDBRANCH  17  19
ENDBRANCH  13  14
ENDBRANCH   1  13
TORSDOF 5
ENDMDL
MODEL 5
REMARK VINA RESULT:      -7.6      4.777      9.061
REMARK  Name = 
REMARK  5 active torsions:
REMARK  status: ('A' for Active; 'I' for Inactive)
REMARK    1  A    between atoms: C_5  and  C_7
REMARK    2  A    between atoms: C_7  and  C_8
REMARK    3  A    between atoms: C_8  and  C_9
REMARK    4  A    between atoms: C_9  and  C_10
REMARK    5  A    between atoms: C_13  and  C_14
REMARK                            x       y       z     vdW  Elec       q    Type
REMARK                         _______ _______ _______ _____ _____    ______ ____
ROOT
ATOM      1  C   UNL     1       6.185   5.252  17.931  0.00  0.00    +0.000 C 
ENDROOT
BRANCH   1   2
ATOM      2  C   UNL     1       5.274   4.356  18.774  0.00  0.00    +0.000 C 
BRANCH   2   7
ATOM      3  O   UNL     1       1.805   2.967  22.312  0.00  0.00    +0.000 OA
ATOM      4  C   UNL     1       1.791   3.176  21.100  0.00  0.00    +0.000 C 
ATOM      5  C   UNL     1       2.833   4.086  20.416  0.00  0.00    +0.000 C 
ATOM      6  N   UNL     1       2.805   4.068  18.950  0.00  0.00    +0.000 N 
ATOM      7  C   UNL     1       3.905   4.193  18.120  0.00  0.00    +0.000 C 
ATOM      8  O   UNL     1       3.786   4.166  16.893  0.00  0.00    +0.000 OA
ATOM      9  C   UNL     1       1.472   3.959  18.356  0.00  0.00    +0.000 C 
ATOM     10  C   UNL     1       0.791   2.701  18.885  0.00  0.00    +0.000 C 
ATOM     11  N   UNL     1       0.764   2.682  20.335  0.00  0.00    +0.000 N 
ATOM     12  H   UNL     1       0.139   2.049  20.819  0.00  0.00    +0.000 HD
ENDBRANCH   2   7
ENDBRANCH   1   2
BRANCH   1  13
ATOM     13  C   UNL     1       7.278   4.477  17.194  0.00  0.00    +0.000 C 
BRANCH  13  14
ATOM     14  C   UNL     1       7.190   4.688  15.721  0.00  0.00    +0.000 A 
ATOM     15  N   UNL     1       7.762   5.620  14.988  0.00  0.00    +0.000 NA
ATOM     16  C   UNL     1       7.359   5.327  13.712  0.00  0.00    +0.000 A 
ATOM     17  C   UNL     1       6.559   4.205  13.704  0.00  0.00    +0.000 A 
ATOM     18  O   UNL     1       6.440   3.789  15.008  0.00  0.00    +0.000 OA
BRANCH  17  19
ATOM     19  C   UNL     1       5.891   3.419  12.674  0.00  0.00    +0.000 A 
ATOM     20  C   UNL     1       4.625   3.802  12.199  0.00  0.00    +0.000 A 
ATOM     21  C   UNL     1       3.988   3.078  11.186  0.00  0.00    +0.000 A 
ATOM     22  C   UNL     1       4.604   1.959  10.635  0.00  0.00    +0.000 A 
ATOM     23  C   UNL     1       5.854   1.558  11.100  0.00  0.00    +0.000 A 
ATOM     24  C   UNL     1       6.491   2.282  12.114  0.00  0.00    +0.000 A 
ENDBRANCH  17  19
ENDBRANCH  13  14
ENDBRANCH   1  13
TORSDOF 5
ENDMDL
MODEL 6
REMARK VINA RESULT:      -7.5      1.759      2.225
REMARK  Name = 
REMARK  5 active torsions:
REMARK  status: ('A' for Active; 'I' for Inactive)
REMARK    1  A    between atoms: C_5  and  C_7
REMARK    2  A    between atoms: C_7  and  C_8
REMARK    3  A    between atoms: C_8  and  C_9
REMARK    4  A    between atoms: C_9  and  C_10
REMARK    5  A    between atoms: C_13  and  C_14
REMARK                            x       y       z     vdW  Elec       q    Type
REMARK                         _______ _______ _______ _____ _____    ______ ____
ROOT
ATOM      1  C   UNL     1       1.270   3.964  20.020  0.00  0.00    +0.000 C 
ENDROOT
BRANCH   1   2
ATOM      2  C   UNL     1       2.138   2.895  19.350  0.00  0.00    +0.000 C 
BRANCH   2   7
ATOM      3  O   UNL     1       6.674   5.265  19.876  0.00  0.00    +0.000 OA
ATOM      4  C   UNL     1       5.917   5.012  18.941  0.00  0.00    +0.000 C 
ATOM      5  C   UNL     1       4.914   3.841  18.997  0.00  0.00    +0.000 C 
ATOM      6  N   UNL     1       3.947   3.799  17.895  0.00  0.00    +0.000 N 
ATOM      7  C   UNL     1       2.636   3.366  17.987  0.00  0.00    +0.000 C 
ATOM      8  O   UNL     1       1.892   3.367  17.004  0.00  0.00    +0.000 OA
ATOM      9  C   UNL     1       4.472   4.211  16.593  0.00  0.00    +0.000 C 
ATOM     10  C   UNL     1       5.040   5.622  16.707  0.00  0.00    +0.000 C 
ATOM     11  N   UNL     1       6.028   5.712  17.766  0.00  0.00    +0.000 N 
ATOM     12  H   UNL     1       6.660   6.503  17.798  0.00  0.00    +0.000 HD
ENDBRANCH   2   7
ENDBRANCH   1   2
BRANCH   1  13
ATOM     13  C   UNL     1       2.078   4.963  20.851  0.00  0.00    +0.000 C 
BRANCH  13  14
ATOM     14  C   UNL     1       2.018   6.329  20.260  0.00  0.00    +0.000 A 
ATOM     15  N   UNL     1       2.654   6.798  19.206  0.00  0.00    +0.000 NA
ATOM     16  C   UNL     1       2.213   8.091  19.106  0.00  0.00    +0.000 A 
ATOM     17  C   UNL     1       1.300   8.369  20.101  0.00  0.00    +0.000 A 
ATOM     18  O   UNL     1       1.175   7.229  20.859  0.00  0.00    +0.000 OA
BRANCH  17  19
ATOM     19  C   UNL     1       0.489   9.523  20.467  0.00  0.00    +0.000 A 
ATOM     20  C   UNL     1      -0.309  10.163  19.503  0.00  0.00    +0.000 A 
ATOM     21  C   UNL     1      -1.121  11.249  19.848  0.00  0.00    +0.000 A 
ATOM     22  C   UNL     1      -1.145  11.713  21.160  0.00  0.00    +0.000 A 
ATOM     23  C   UNL     1      -0.354  11.098  22.126  0.00  0.00    +0.000 A 
ATOM     24  C   UNL     1       0.458  10.012  21.781  0.00  0.00    +0.000 A 
ENDBRANCH  17  19
ENDBRANCH  13  14
ENDBRANCH   1  13
TORSDOF 5
ENDMDL
MODEL 7
REMARK VINA RESULT:      -7.3      1.613      2.102
REMARK  Name = 
REMARK  5 active torsions:
REMARK  status: ('A' for Active; 'I' for Inactive)
REMARK    1  A    between atoms: C_5  and  C_7
REMARK    2  A    between atoms: C_7  and  C_8
REMARK    3  A    between atoms: C_8  and  C_9
REMARK    4  A    between atoms: C_9  and  C_10
REMARK    5  A    between atoms: C_13  and  C_14
REMARK                            x       y       z     vdW  Elec       q    Type
REMARK                         _______ _______ _______ _____ _____    ______ ____
ROOT
ATOM      1  C   UNL     1       1.750   4.497  19.570  0.00  0.00    +0.000 C 
ENDROOT
BRANCH   1   2
ATOM      2  C   UNL     1       2.569   4.094  18.341  0.00  0.00    +0.000 C 
BRANCH   2   7
ATOM      3  O   UNL     1       5.314   6.870  14.989  0.00  0.00    +0.000 OA
ATOM      4  C   UNL     1       5.569   6.155  15.957  0.00  0.00    +0.000 C 
ATOM      5  C   UNL     1       4.537   5.897  17.075  0.00  0.00    +0.000 C 
ATOM      6  N   UNL     1       4.919   4.866  18.046  0.00  0.00    +0.000 N 
ATOM      7  C   UNL     1       4.053   3.992  18.679  0.00  0.00    +0.000 C 
ATOM      8  O   UNL     1       4.466   3.155  19.484  0.00  0.00    +0.000 OA
ATOM      9  C   UNL     1       6.343   4.830  18.383  0.00  0.00    +0.000 C 
ATOM     10  C   UNL     1       7.154   4.639  17.106  0.00  0.00    +0.000 C 
ATOM     11  N   UNL     1       6.836   5.654  16.120  0.00  0.00    +0.000 N 
ATOM     12  H   UNL     1       7.458   5.806  15.335  0.00  0.00    +0.000 HD
ENDBRANCH   2   7
ENDBRANCH   1   2
BRANCH   1  13
ATOM     13  C   UNL     1       2.450   5.536  20.447  0.00  0.00    +0.000 C 
BRANCH  13  14
ATOM     14  C   UNL     1       2.009   6.917  20.103  0.00  0.00    +0.000 A 
ATOM     15  N   UNL     1       2.203   7.589  18.987  0.00  0.00    +0.000 NA
ATOM     16  C   UNL     1       1.570   8.783  19.208  0.00  0.00    +0.000 A 
ATOM     17  C   UNL     1       0.990   8.799  20.458  0.00  0.00    +0.000 A 
ATOM     18  O   UNL     1       1.278   7.590  21.048  0.00  0.00    +0.000 OA
BRANCH  17  19
ATOM     19  C   UNL     1       0.179   9.747  21.210  0.00  0.00    +0.000 A 
ATOM     20  C   UNL     1      -0.159   9.486  22.549  0.00  0.00    +0.000 A 
ATOM     21  C   UNL     1      -0.907  10.403  23.294  0.00  0.00    +0.000 A 
ATOM     22  C   UNL     1      -1.332  11.594  22.712  0.00  0.00    +0.000 A 
ATOM     23  C   UNL     1      -1.015  11.865  21.383  0.00  0.00    +0.000 A 
ATOM     24  C   UNL     1      -0.267  10.947  20.638  0.00  0.00    +0.000 A 
ENDBRANCH  17  19
ENDBRANCH  13  14
ENDBRANCH   1  13
TORSDOF 5
ENDMDL
MODEL 8
REMARK VINA RESULT:      -7.3      4.644      7.812
REMARK  Name = 
REMARK  5 active torsions:
REMARK  status: ('A' for Active; 'I' for Inactive)
REMARK    1  A    between atoms: C_5  and  C_7
REMARK    2  A    between atoms: C_7  and  C_8
REMARK    3  A    between atoms: C_8  and  C_9
REMARK    4  A    between atoms: C_9  and  C_10
REMARK    5  A    between atoms: C_13  and  C_14
REMARK                            x       y       z     vdW  Elec       q    Type
REMARK                         _______ _______ _______ _____ _____    ______ ____
ROOT
ATOM      1  C   UNL     1       8.096   8.599  17.925  0.00  0.00    +0.000 C 
ENDROOT
BRANCH   1   2
ATOM      2  C   UNL     1       8.961   9.235  19.016  0.00  0.00    +0.000 C 
BRANCH   2   7
ATOM      3  O   UNL     1       8.330  11.889  23.379  0.00  0.00    +0.000 OA
ATOM      4  C   UNL     1       8.589  12.167  22.209  0.00  0.00    +0.000 C 
ATOM      5  C   UNL     1       9.238  11.146  21.252  0.00  0.00    +0.000 C 
ATOM      6  N   UNL     1       9.293  11.560  19.846  0.00  0.00    +0.000 N 
ATOM      7  C   UNL     1       9.174  10.723  18.751  0.00  0.00    +0.000 C 
ATOM      8  O   UNL     1       9.232  11.162  17.601  0.00  0.00    +0.000 OA
ATOM      9  C   UNL     1       9.547  12.985  19.629  0.00  0.00    +0.000 C 
ATOM     10  C   UNL     1       8.477  13.799  20.350  0.00  0.00    +0.000 C 
ATOM     11  N   UNL     1       8.402  13.449  21.756  0.00  0.00    +0.000 N 
ATOM     12  H   UNL     1       7.924  14.065  22.403  0.00  0.00    +0.000 HD
ENDBRANCH   2   7
ENDBRANCH   1   2
BRANCH   1  13
ATOM     13  C   UNL     1       7.838   7.108  18.152  0.00  0.00    +0.000 C 
BRANCH  13  14
ATOM     14  C   UNL     1       6.644   6.645  17.391  0.00  0.00    +0.000 A 
ATOM     15  N   UNL     1       6.298   6.928  16.152  0.00  0.00    +0.000 NA
ATOM     16  C   UNL     1       5.138   6.223  15.967  0.00  0.00    +0.000 A 
ATOM     17  C   UNL     1       4.817   5.512  17.104  0.00  0.00    +0.000 A 
ATOM     18  O   UNL     1       5.790   5.789  18.036  0.00  0.00    +0.000 OA
BRANCH  17  19
ATOM     19  C   UNL     1       3.759   4.584  17.479  0.00  0.00    +0.000 A 
ATOM     20  C   UNL     1       3.987   3.197  17.444  0.00  0.00    +0.000 A 
ATOM     21  C   UNL     1       2.992   2.295  17.836  0.00  0.00    +0.000 A 
ATOM     22  C   UNL     1       1.754   2.764  18.265  0.00  0.00    +0.000 A 
ATOM     23  C   UNL     1       1.507   4.134  18.296  0.00  0.00    +0.000 A 
ATOM     24  C   UNL     1       2.502   5.037  17.904  0.00  0.00    +0.000 A 
ENDBRANCH  17  19
ENDBRANCH  13  14
ENDBRANCH   1  13
TORSDOF 5
ENDMDL
MODEL 9
REMARK VINA RESULT:      -7.3      2.569      3.301
REMARK  Name = 
REMARK  5 active torsions:
REMARK  status: ('A' for Active; 'I' for Inactive)
REMARK    1  A    between atoms: C_5  and  C_7
REMARK    2  A    between atoms: C_7  and  C_8
REMARK    3  A    between atoms: C_8  and  C_9
REMARK    4  A    between atoms: C_9  and  C_10
REMARK    5  A    between atoms: C_13  and  C_14
REMARK                            x       y       z     vdW  Elec       q    Type
REMARK                         _______ _______ _______ _____ _____    ______ ____
ROOT
ATOM      1  C   UNL     1       2.158   6.874  18.232  0.00  0.00    +0.000 C 
ENDROOT
BRANCH   1   2
ATOM      2  C   UNL     1       2.964   5.660  17.761  0.00  0.00    +0.000 C 
BRANCH   2   7
ATOM      3  O   UNL     1       6.795   5.199  14.357  0.00  0.00    +0.000 OA
ATOM      4  C   UNL     1       6.706   5.236  15.584  0.00  0.00    +0.000 C 
ATOM      5  C   UNL     1       5.517   5.912  16.296  0.00  0.00    +0.000 C 
ATOM      6  N   UNL     1       5.455   5.691  17.745  0.00  0.00    +0.000 N 
ATOM      7  C   UNL     1       4.298   5.568  18.494  0.00  0.00    +0.000 C 
ATOM      8  O   UNL     1       4.343   5.383  19.712  0.00  0.00    +0.000 OA
ATOM      9  C   UNL     1       6.751   5.657  18.423  0.00  0.00    +0.000 C 
ATOM     10  C   UNL     1       7.619   4.574  17.789  0.00  0.00    +0.000 C 
ATOM     11  N   UNL     1       7.738   4.763  16.355  0.00  0.00    +0.000 N 
ATOM     12  H   UNL     1       8.468   4.282  15.844  0.00  0.00    +0.000 HD
ENDBRANCH   2   7
ENDBRANCH   1   2
BRANCH   1  13
ATOM     13  C   UNL     1       2.757   8.207  17.779  0.00  0.00    +0.000 C 
BRANCH  13  14
ATOM     14  C   UNL     1       1.847   9.343  18.098  0.00  0.00    +0.000 A 
ATOM     15  N   UNL     1       2.144  10.510  18.631  0.00  0.00    +0.000 NA
ATOM     16  C   UNL     1       0.942  11.165  18.677  0.00  0.00    +0.000 A 
ATOM     17  C   UNL     1      -0.059  10.376  18.151  0.00  0.00    +0.000 A 
ATOM     18  O   UNL     1       0.523   9.188  17.780  0.00  0.00    +0.000 OA
BRANCH  17  19
ATOM     19  C   UNL     1      -1.485  10.543  17.905  0.00  0.00    +0.000 A 
ATOM     20  C   UNL     1      -2.251  11.397  18.718  0.00  0.00    +0.000 A 
ATOM     21  C   UNL     1      -3.613  11.595  18.471  0.00  0.00    +0.000 A 
ATOM     22  C   UNL     1      -4.233  10.939  17.411  0.00  0.00    +0.000 A 
ATOM     23  C   UNL     1      -3.493  10.081  16.602  0.00  0.00    +0.000 A 
ATOM     24  C   UNL     1      -2.130   9.883  16.849  0.00  0.00    +0.000 A 
ENDBRANCH  17  19
ENDBRANCH  13  14
ENDBRANCH   1  13
TORSDOF 5
ENDMDL
