MODEL 1
REMARK VINA RESULT:      -8.8      0.000      0.000
REMARK  Name = 
REMARK  10 active torsions:
REMARK  status: ('A' for Active; 'I' for Inactive)
REMARK    1  A    between atoms: C_1  and  C_2
REMARK    2  A    between atoms: C_5  and  O_6
REMARK    3  A    between atoms: O_6  and  C_7
REMARK    4  A    between atoms: C_7  and  C_8
REMARK    5  A    between atoms: C_8  and  N_9
REMARK    6  A    between atoms: C_11  and  C_12
REMARK    7  A    between atoms: C_13  and  C_14
REMARK    8  A    between atoms: C_13  and  C_16
REMARK    9  A    between atoms: N_18  and  C_19
REMARK   10  A    between atoms: C_19  and  C_20
REMARK                            x       y       z     vdW  Elec       q    Type
REMARK                         _______ _______ _______ _____ _____    ______ ____
ROOT
ATOM      1  N   UNL     1       2.371   6.845  19.330  0.00  0.00    +0.000 N 
ATOM      2  C   UNL     1       3.318   6.914  18.324  0.00  0.00    +0.000 A 
ATOM      3  C   UNL     1       3.686   5.633  17.978  0.00  0.00    +0.000 A 
ATOM      4  C   UNL     1       2.935   4.738  18.789  0.00  0.00    +0.000 A 
ATOM      5  C   UNL     1       2.887   3.327  18.888  0.00  0.00    +0.000 A 
ATOM      6  C   UNL     1       2.032   2.712  19.804  0.00  0.00    +0.000 A 
ATOM      7  C   UNL     1       1.221   3.478  20.625  0.00  0.00    +0.000 A 
ATOM      8  C   UNL     1       1.252   4.875  20.549  0.00  0.00    +0.000 A 
ATOM      9  C   UNL     1       2.113   5.512  19.630  0.00  0.00    +0.000 A 
ENDROOT
BRANCH   3  10
ATOM     10  C   UNL     1       4.668   5.300  16.985  0.00  0.00    +0.000 C 
ATOM     11  C   UNL     1       5.977   5.071  17.229  0.00  0.00    +0.000 C 
BRANCH  11  12
ATOM     12  C   UNL     1       6.892   4.724  16.107  0.00  0.00    +0.000 C 
ATOM     13  O   UNL     1       7.919   4.078  16.305  0.00  0.00    +0.000 OA
ATOM     14  N   UNL     1       6.533   5.167  14.857  0.00  0.00    +0.000 N 
ATOM     15  H   UNL     1       5.728   5.766  14.711  0.00  0.00    +0.000 HD
BRANCH  14  16
ATOM     16  C   UNL     1       7.327   4.867  13.672  0.00  0.00    +0.000 C 
BRANCH  16  17
ATOM     17  C   UNL     1       6.521   4.296  12.500  0.00  0.00    +0.000 C 
ATOM     18  C   UNL     1       5.132   3.770  12.825  0.00  0.00    +0.000 C 
ATOM     19  C   UNL     1       4.903   2.801  11.692  0.00  0.00    +0.000 C 
ATOM     20  C   UNL     1       6.280   2.199  11.507  0.00  0.00    +0.000 C 
ATOM     21  O   UNL     1       7.234   3.205  11.880  0.00  0.00    +0.000 OA
ENDBRANCH  16  17
ENDBRANCH  14  16
ENDBRANCH  11  12
BRANCH  11  22
ATOM     22  C   UNL     1       6.473   5.197  18.661  0.00  0.00    +0.000 C 
ATOM     23  N   UNL     1       6.883   5.301  19.849  0.00  0.00    +0.000 NA
ENDBRANCH  11  22
ENDBRANCH   3  10
BRANCH   1  24
ATOM     24  C   UNL     1       1.800   8.066  19.907  0.00  0.00    +0.000 C 
BRANCH  24  25
ATOM     25  C   UNL     1       1.359   9.143  18.927  0.00  0.00    +0.000 C 
BRANCH  25  26
ATOM     26  O   UNL     1       0.665  10.225  19.559  0.00  0.00    +0.000 OA
BRANCH  26  31
ATOM     27  C   UNL     1      -4.234  11.261  16.844  0.00  0.00    +0.000 C 
ATOM     28  C   UNL     1      -2.946  10.992  17.561  0.00  0.00    +0.000 A 
ATOM     29  C   UNL     1      -2.006  10.079  17.069  0.00  0.00    +0.000 A 
ATOM     30  C   UNL     1      -0.813   9.840  17.763  0.00  0.00    +0.000 A 
ATOM     31  C   UNL     1      -0.537  10.519  18.950  0.00  0.00    +0.000 A 
ATOM     32  C   UNL     1      -1.485  11.418  19.450  0.00  0.00    +0.000 A 
ATOM     33  C   UNL     1      -2.676  11.657  18.759  0.00  0.00    +0.000 A 
ENDBRANCH  26  31
ENDBRANCH  25  26
ENDBRANCH  24  25
ENDBRANCH   1  24
TORSDOF 9
ENDMDL
MODEL 2
REMARK VINA RESULT:      -8.6      1.691      8.809
REMARK  Name = 
REMARK  10 active torsions:
REMARK  status: ('A' for Active; 'I' for Inactive)
REMARK    1  A    between atoms: C_1  and  C_2
REMARK    2  A    between atoms: C_5  and  O_6
REMARK    3  A    between atoms: O_6  and  C_7
REMARK    4  A    between atoms: C_7  and  C_8
REMARK    5  A    between atoms: C_8  and  N_9
REMARK    6  A    between atoms: C_11  and  C_12
REMARK    7  A    between atoms: C_13  and  C_14
REMARK    8  A    between atoms: C_13  and  C_16
REMARK    9  A    between atoms: N_18  and  C_19
REMARK   10  A    between atoms: C_19  and  C_20
REMARK                            x       y       z     vdW  Elec       q    Type
REMARK                         _______ _______ _______ _____ _____    ______ ____
ROOT
ATOM      1  N   UNL     1       5.306   5.791  17.909  0.00  0.00    +0.000 N 
ATOM      2  C   UNL     1       4.850   7.098  17.905  0.00  0.00    +0.000 A 
ATOM      3  C   UNL     1       3.475   7.084  17.851  0.00  0.00    +0.000 A 
ATOM      4  C   UNL     1       3.061   5.722  17.832  0.00  0.00    +0.000 A 
ATOM      5  C   UNL     1       1.795   5.094  17.776  0.00  0.00    +0.000 A 
ATOM      6  C   UNL     1       1.696   3.703  17.765  0.00  0.00    +0.000 A 
ATOM      7  C   UNL     1       2.839   2.922  17.811  0.00  0.00    +0.000 A 
ATOM      8  C   UNL     1       4.103   3.517  17.862  0.00  0.00    +0.000 A 
ATOM      9  C   UNL     1       4.220   4.924  17.871  0.00  0.00    +0.000 A 
ENDROOT
BRANCH   3  10
ATOM     10  C   UNL     1       2.642   8.251  17.806  0.00  0.00    +0.000 C 
ATOM     11  C   UNL     1       1.831   8.670  18.803  0.00  0.00    +0.000 C 
BRANCH  11  12
ATOM     12  C   UNL     1       1.022   9.908  18.632  0.00  0.00    +0.000 C 
ATOM     13  O   UNL     1       1.540  10.954  18.246  0.00  0.00    +0.000 OA
ATOM     14  N   UNL     1      -0.316   9.818  18.932  0.00  0.00    +0.000 N 
ATOM     15  H   UNL     1      -0.722   8.977  19.325  0.00  0.00    +0.000 HD
BRANCH  14  16
ATOM     16  C   UNL     1      -1.221  10.950  18.777  0.00  0.00    +0.000 C 
BRANCH  16  17
ATOM     17  C   UNL     1      -1.864  11.059  17.389  0.00  0.00    +0.000 C 
ATOM     18  C   UNL     1      -3.329  11.464  17.351  0.00  0.00    +0.000 C 
ATOM     19  C   UNL     1      -3.762  10.906  16.018  0.00  0.00    +0.000 C 
ATOM     20  C   UNL     1      -2.990   9.605  15.955  0.00  0.00    +0.000 C 
ATOM     21  O   UNL     1      -1.772   9.800  16.689  0.00  0.00    +0.000 OA
ENDBRANCH  16  17
ENDBRANCH  14  16
ENDBRANCH  11  12
BRANCH  11  22
ATOM     22  C   UNL     1       1.766   7.835  20.073  0.00  0.00    +0.000 C 
ATOM     23  N   UNL     1       1.712   7.142  21.125  0.00  0.00    +0.000 NA
ENDBRANCH  11  22
ENDBRANCH   3  10
BRANCH   1  24
ATOM     24  C   UNL     1       6.742   5.499  17.953  0.00  0.00    +0.000 C 
BRANCH  24  25
ATOM     25  C   UNL     1       7.315   4.709  16.786  0.00  0.00    +0.000 C 
BRANCH  25  26
ATOM     26  O   UNL     1       7.421   5.481  15.584  0.00  0.00    +0.000 OA
BRANCH  26  31
ATOM     27  C   UNL     1       4.948   2.794  11.212  0.00  0.00    +0.000 C 
ATOM     28  C   UNL     1       5.602   3.501  12.360  0.00  0.00    +0.000 A 
ATOM     29  C   UNL     1       4.974   3.622  13.605  0.00  0.00    +0.000 A 
ATOM     30  C   UNL     1       5.604   4.296  14.660  0.00  0.00    +0.000 A 
ATOM     31  C   UNL     1       6.876   4.844  14.489  0.00  0.00    +0.000 A 
ATOM     32  C   UNL     1       7.495   4.738  13.238  0.00  0.00    +0.000 A 
ATOM     33  C   UNL     1       6.866   4.067  12.186  0.00  0.00    +0.000 A 
ENDBRANCH  26  31
ENDBRANCH  25  26
ENDBRANCH  24  25
ENDBRANCH   1  24
TORSDOF 9
ENDMDL
MODEL 3
REMARK VINA RESULT:      -8.6      1.688      8.931
REMARK  Name = 
REMARK  10 active torsions:
REMARK  status: ('A' for Active; 'I' for Inactive)
REMARK    1  A    between atoms: C_1  and  C_2
REMARK    2  A    between atoms: C_5  and  O_6
REMARK    3  A    between atoms: O_6  and  C_7
REMARK    4  A    between atoms: C_7  and  C_8
REMARK    5  A    between atoms: C_8  and  N_9
REMARK    6  A    between atoms: C_11  and  C_12
REMARK    7  A    between atoms: C_13  and  C_14
REMARK    8  A    between atoms: C_13  and  C_16
REMARK    9  A    between atoms: N_18  and  C_19
REMARK   10  A    between atoms: C_19  and  C_20
REMARK                            x       y       z     vdW  Elec       q    Type
REMARK                         _______ _______ _______ _____ _____    ______ ____
ROOT
ATOM      1  N   UNL     1       5.429   5.759  17.933  0.00  0.00    +0.000 N 
ATOM      2  C   UNL     1       4.967   7.062  17.858  0.00  0.00    +0.000 A 
ATOM      3  C   UNL     1       3.593   7.038  17.784  0.00  0.00    +0.000 A 
ATOM      4  C   UNL     1       3.185   5.676  17.825  0.00  0.00    +0.000 A 
ATOM      5  C   UNL     1       1.923   5.039  17.781  0.00  0.00    +0.000 A 
ATOM      6  C   UNL     1       1.830   3.648  17.837  0.00  0.00    +0.000 A 
ATOM      7  C   UNL     1       2.976   2.876  17.938  0.00  0.00    +0.000 A 
ATOM      8  C   UNL     1       4.237   3.480  17.980  0.00  0.00    +0.000 A 
ATOM      9  C   UNL     1       4.347   4.886  17.921  0.00  0.00    +0.000 A 
ENDROOT
BRANCH   3  10
ATOM     10  C   UNL     1       2.756   8.198  17.668  0.00  0.00    +0.000 C 
ATOM     11  C   UNL     1       1.921   8.656  18.628  0.00  0.00    +0.000 C 
BRANCH  11  12
ATOM     12  C   UNL     1       1.111   9.880  18.385  0.00  0.00    +0.000 C 
ATOM     13  O   UNL     1       1.644  10.984  18.286  0.00  0.00    +0.000 OA
ATOM     14  N   UNL     1      -0.249   9.711  18.285  0.00  0.00    +0.000 N 
ATOM     15  H   UNL     1      -0.692   8.814  18.446  0.00  0.00    +0.000 HD
BRANCH  14  16
ATOM     16  C   UNL     1      -1.150  10.826  18.017  0.00  0.00    +0.000 C 
BRANCH  16  17
ATOM     17  C   UNL     1      -2.463  10.426  17.332  0.00  0.00    +0.000 C 
ATOM     18  C   UNL     1      -2.586  10.763  15.855  0.00  0.00    +0.000 C 
ATOM     19  C   UNL     1      -4.084  10.809  15.679  0.00  0.00    +0.000 C 
ATOM     20  C   UNL     1      -4.535  11.436  16.981  0.00  0.00    +0.000 C 
ATOM     21  O   UNL     1      -3.586  11.052  17.987  0.00  0.00    +0.000 OA
ENDBRANCH  16  17
ENDBRANCH  14  16
ENDBRANCH  11  12
BRANCH  11  22
ATOM     22  C   UNL     1       1.832   7.878  19.932  0.00  0.00    +0.000 C 
ATOM     23  N   UNL     1       1.759   7.233  21.012  0.00  0.00    +0.000 NA
ENDBRANCH  11  22
ENDBRANCH   3  10
BRANCH   1  24
ATOM     24  C   UNL     1       6.865   5.477  18.014  0.00  0.00    +0.000 C 
BRANCH  24  25
ATOM     25  C   UNL     1       7.474   4.696  16.859  0.00  0.00    +0.000 C 
BRANCH  25  26
ATOM     26  O   UNL     1       7.499   5.436  15.633  0.00  0.00    +0.000 OA
BRANCH  26  31
ATOM     27  C   UNL     1       4.918   2.870  11.251  0.00  0.00    +0.000 C 
ATOM     28  C   UNL     1       5.594   3.545  12.406  0.00  0.00    +0.000 A 
ATOM     29  C   UNL     1       6.875   4.095  12.290  0.00  0.00    +0.000 A 
ATOM     30  C   UNL     1       7.488   4.714  13.388  0.00  0.00    +0.000 A 
ATOM     31  C   UNL     1       6.822   4.803  14.611  0.00  0.00    +0.000 A 
ATOM     32  C   UNL     1       5.548   4.237  14.730  0.00  0.00    +0.000 A 
ATOM     33  C   UNL     1       4.937   3.619  13.636  0.00  0.00    +0.000 A 
ENDBRANCH  26  31
ENDBRANCH  25  26
ENDBRANCH  24  25
ENDBRANCH   1  24
TORSDOF 9
ENDMDL
MODEL 4
REMARK VINA RESULT:      -8.5      0.602      1.168
REMARK  Name = 
REMARK  10 active torsions:
REMARK  status: ('A' for Active; 'I' for Inactive)
REMARK    1  A    between atoms: C_1  and  C_2
REMARK    2  A    between atoms: C_5  and  O_6
REMARK    3  A    between atoms: O_6  and  C_7
REMARK    4  A    between atoms: C_7  and  C_8
REMARK    5  A    between atoms: C_8  and  N_9
REMARK    6  A    between atoms: C_11  and  C_12
REMARK    7  A    between atoms: C_13  and  C_14
REMARK    8  A    between atoms: C_13  and  C_16
REMARK    9  A    between atoms: N_18  and  C_19
REMARK   10  A    between atoms: C_19  and  C_20
REMARK                            x       y       z     vdW  Elec       q    Type
REMARK                         _______ _______ _______ _____ _____    ______ ____
ROOT
ATOM      1  N   UNL     1       2.327   6.921  19.551  0.00  0.00    +0.000 N 
ATOM      2  C   UNL     1       3.220   7.015  18.497  0.00  0.00    +0.000 A 
ATOM      3  C   UNL     1       3.560   5.744  18.093  0.00  0.00    +0.000 A 
ATOM      4  C   UNL     1       2.847   4.828  18.916  0.00  0.00    +0.000 A 
ATOM      5  C   UNL     1       2.794   3.416  18.975  0.00  0.00    +0.000 A 
ATOM      6  C   UNL     1       1.986   2.777  19.916  0.00  0.00    +0.000 A 
ATOM      7  C   UNL     1       1.225   3.522  20.803  0.00  0.00    +0.000 A 
ATOM      8  C   UNL     1       1.262   4.920  20.768  0.00  0.00    +0.000 A 
ATOM      9  C   UNL     1       2.077   5.580  19.823  0.00  0.00    +0.000 A 
ENDROOT
BRANCH   3  10
ATOM     10  C   UNL     1       4.484   5.436  17.039  0.00  0.00    +0.000 C 
ATOM     11  C   UNL     1       5.808   5.218  17.202  0.00  0.00    +0.000 C 
BRANCH  11  12
ATOM     12  C   UNL     1       6.658   4.898  16.023  0.00  0.00    +0.000 C 
ATOM     13  O   UNL     1       7.833   4.563  16.162  0.00  0.00    +0.000 OA
ATOM     14  N   UNL     1       6.066   5.003  14.787  0.00  0.00    +0.000 N 
ATOM     15  H   UNL     1       5.122   5.355  14.672  0.00  0.00    +0.000 HD
BRANCH  14  16
ATOM     16  C   UNL     1       6.782   4.687  13.557  0.00  0.00    +0.000 C 
BRANCH  16  17
ATOM     17  C   UNL     1       6.395   3.344  12.928  0.00  0.00    +0.000 C 
ATOM     18  C   UNL     1       7.159   2.935  11.679  0.00  0.00    +0.000 C 
ATOM     19  C   UNL     1       6.188   1.979  11.030  0.00  0.00    +0.000 C 
ATOM     20  C   UNL     1       4.855   2.634  11.326  0.00  0.00    +0.000 C 
ATOM     21  O   UNL     1       4.997   3.336  12.570  0.00  0.00    +0.000 OA
ENDBRANCH  16  17
ENDBRANCH  14  16
ENDBRANCH  11  12
BRANCH  11  22
ATOM     22  C   UNL     1       6.386   5.328  18.604  0.00  0.00    +0.000 C 
ATOM     23  N   UNL     1       6.864   5.419  19.767  0.00  0.00    +0.000 NA
ENDBRANCH  11  22
ENDBRANCH   3  10
BRANCH   1  24
ATOM     24  C   UNL     1       1.797   8.127  20.194  0.00  0.00    +0.000 C 
BRANCH  24  25
ATOM     25  C   UNL     1       1.277   9.220  19.274  0.00  0.00    +0.000 C 
BRANCH  25  26
ATOM     26  O   UNL     1       0.226   9.996  19.862  0.00  0.00    +0.000 OA
BRANCH  26  31
ATOM     27  C   UNL     1      -4.019  11.439  16.347  0.00  0.00    +0.000 C 
ATOM     28  C   UNL     1      -2.901  11.056  17.270  0.00  0.00    +0.000 A 
ATOM     29  C   UNL     1      -2.714  11.690  18.503  0.00  0.00    +0.000 A 
ATOM     30  C   UNL     1      -1.656  11.318  19.344  0.00  0.00    +0.000 A 
ATOM     31  C   UNL     1      -0.780  10.299  18.969  0.00  0.00    +0.000 A 
ATOM     32  C   UNL     1      -0.957   9.678  17.727  0.00  0.00    +0.000 A 
ATOM     33  C   UNL     1      -2.011  10.049  16.889  0.00  0.00    +0.000 A 
ENDBRANCH  26  31
ENDBRANCH  25  26
ENDBRANCH  24  25
ENDBRANCH   1  24
TORSDOF 9
ENDMDL
MODEL 5
REMARK VINA RESULT:      -8.4      1.301      1.801
REMARK  Name = 
REMARK  10 active torsions:
REMARK  status: ('A' for Active; 'I' for Inactive)
REMARK    1  A    between atoms: C_1  and  C_2
REMARK    2  A    between atoms: C_5  and  O_6
REMARK    3  A    between atoms: O_6  and  C_7
REMARK    4  A    between atoms: C_7  and  C_8
REMARK    5  A    between atoms: C_8  and  N_9
REMARK    6  A    between atoms: C_11  and  C_12
REMARK    7  A    between atoms: C_13  and  C_14
REMARK    8  A    between atoms: C_13  and  C_16
REMARK    9  A    between atoms: N_18  and  C_19
REMARK   10  A    between atoms: C_19  and  C_20
REMARK                            x       y       z     vdW  Elec       q    Type
REMARK                         _______ _______ _______ _____ _____    ______ ____
ROOT
ATOM      1  N   UNL     1       2.123   6.414  19.727  0.00  0.00    +0.000 N 
ATOM      2  C   UNL     1       3.037   6.751  18.744  0.00  0.00    +0.000 A 
ATOM      3  C   UNL     1       3.429   5.602  18.095  0.00  0.00    +0.000 A 
ATOM      4  C   UNL     1       2.727   4.515  18.687  0.00  0.00    +0.000 A 
ATOM      5  C   UNL     1       2.719   3.121  18.450  0.00  0.00    +0.000 A 
ATOM      6  C   UNL     1       1.910   2.278  19.213  0.00  0.00    +0.000 A 
ATOM      7  C   UNL     1       1.104   2.801  20.211  0.00  0.00    +0.000 A 
ATOM      8  C   UNL     1       1.096   4.176  20.469  0.00  0.00    +0.000 A 
ATOM      9  C   UNL     1       1.911   5.041  19.707  0.00  0.00    +0.000 A 
ENDROOT
BRANCH   3  10
ATOM     10  C   UNL     1       4.388   5.546  17.029  0.00  0.00    +0.000 C 
ATOM     11  C   UNL     1       5.720   5.380  17.186  0.00  0.00    +0.000 C 
BRANCH  11  12
ATOM     12  C   UNL     1       6.608   5.331  15.993  0.00  0.00    +0.000 C 
ATOM     13  O   UNL     1       7.540   6.122  15.863  0.00  0.00    +0.000 OA
ATOM     14  N   UNL     1       6.328   4.368  15.053  0.00  0.00    +0.000 N 
ATOM     15  H   UNL     1       5.513   3.769  15.125  0.00  0.00    +0.000 HD
BRANCH  14  16
ATOM     16  C   UNL     1       7.140   4.195  13.855  0.00  0.00    +0.000 C 
BRANCH  16  17
ATOM     17  C   UNL     1       6.333   3.951  12.575  0.00  0.00    +0.000 C 
ATOM     18  C   UNL     1       4.832   3.782  12.742  0.00  0.00    +0.000 C 
ATOM     19  C   UNL     1       4.475   3.001  11.501  0.00  0.00    +0.000 C 
ATOM     20  C   UNL     1       5.667   2.078  11.355  0.00  0.00    +0.000 C 
ATOM     21  O   UNL     1       6.804   2.767  11.898  0.00  0.00    +0.000 OA
ENDBRANCH  16  17
ENDBRANCH  14  16
ENDBRANCH  11  12
BRANCH  11  22
ATOM     22  C   UNL     1       6.267   5.269  18.601  0.00  0.00    +0.000 C 
ATOM     23  N   UNL     1       6.720   5.176  19.773  0.00  0.00    +0.000 NA
ENDBRANCH  11  22
ENDBRANCH   3  10
BRANCH   1  24
ATOM     24  C   UNL     1       1.538   7.445  20.590  0.00  0.00    +0.000 C 
BRANCH  24  25
ATOM     25  C   UNL     1       1.445   8.849  20.012  0.00  0.00    +0.000 C 
BRANCH  25  26
ATOM     26  O   UNL     1       0.153   9.443  20.189  0.00  0.00    +0.000 OA
BRANCH  26  31
ATOM     27  C   UNL     1      -0.148  14.942  18.733  0.00  0.00    +0.000 C 
ATOM     28  C   UNL     1      -0.065  13.496  19.118  0.00  0.00    +0.000 A 
ATOM     29  C   UNL     1      -0.985  12.554  18.644  0.00  0.00    +0.000 A 
ATOM     30  C   UNL     1      -0.890  11.209  19.025  0.00  0.00    +0.000 A 
ATOM     31  C   UNL     1       0.133  10.786  19.874  0.00  0.00    +0.000 A 
ATOM     32  C   UNL     1       1.041  11.732  20.363  0.00  0.00    +0.000 A 
ATOM     33  C   UNL     1       0.946  13.073  19.983  0.00  0.00    +0.000 A 
ENDBRANCH  26  31
ENDBRANCH  25  26
ENDBRANCH  24  25
ENDBRANCH   1  24
TORSDOF 9
ENDMDL
MODEL 6
REMARK VINA RESULT:      -8.4      2.189      9.247
REMARK  Name = 
REMARK  10 active torsions:
REMARK  status: ('A' for Active; 'I' for Inactive)
REMARK    1  A    between atoms: C_1  and  C_2
REMARK    2  A    between atoms: C_5  and  O_6
REMARK    3  A    between atoms: O_6  and  C_7
REMARK    4  A    between atoms: C_7  and  C_8
REMARK    5  A    between atoms: C_8  and  N_9
REMARK    6  A    between atoms: C_11  and  C_12
REMARK    7  A    between atoms: C_13  and  C_14
REMARK    8  A    between atoms: C_13  and  C_16
REMARK    9  A    between atoms: N_18  and  C_19
REMARK   10  A    between atoms: C_19  and  C_20
REMARK                            x       y       z     vdW  Elec       q    Type
REMARK                         _______ _______ _______ _____ _____    ______ ____
ROOT
ATOM      1  N   UNL     1       5.285   5.695  17.966  0.00  0.00    +0.000 N 
ATOM      2  C   UNL     1       4.799   6.986  17.849  0.00  0.00    +0.000 A 
ATOM      3  C   UNL     1       3.426   6.934  17.778  0.00  0.00    +0.000 A 
ATOM      4  C   UNL     1       3.043   5.566  17.863  0.00  0.00    +0.000 A 
ATOM      5  C   UNL     1       1.793   4.905  17.842  0.00  0.00    +0.000 A 
ATOM      6  C   UNL     1       1.726   3.515  17.943  0.00  0.00    +0.000 A 
ATOM      7  C   UNL     1       2.886   2.768  18.068  0.00  0.00    +0.000 A 
ATOM      8  C   UNL     1       4.135   3.396  18.088  0.00  0.00    +0.000 A 
ATOM      9  C   UNL     1       4.219   4.802  17.984  0.00  0.00    +0.000 A 
ENDROOT
BRANCH   3  10
ATOM     10  C   UNL     1       2.567   8.074  17.626  0.00  0.00    +0.000 C 
ATOM     11  C   UNL     1       1.782   8.593  18.596  0.00  0.00    +0.000 C 
BRANCH  11  12
ATOM     12  C   UNL     1       0.941   9.788  18.311  0.00  0.00    +0.000 C 
ATOM     13  O   UNL     1      -0.080   9.696  17.632  0.00  0.00    +0.000 OA
ATOM     14  N   UNL     1       1.369  10.984  18.834  0.00  0.00    +0.000 N 
ATOM     15  H   UNL     1       2.251  11.071  19.325  0.00  0.00    +0.000 HD
BRANCH  14  16
ATOM     16  C   UNL     1       0.618  12.221  18.652  0.00  0.00    +0.000 C 
BRANCH  16  17
ATOM     17  C   UNL     1      -0.208  12.643  19.873  0.00  0.00    +0.000 C 
ATOM     18  C   UNL     1       0.559  12.867  21.166  0.00  0.00    +0.000 C 
ATOM     19  C   UNL     1      -0.523  12.663  22.198  0.00  0.00    +0.000 C 
ATOM     20  C   UNL     1      -1.330  11.535  21.591  0.00  0.00    +0.000 C 
ATOM     21  O   UNL     1      -1.220  11.656  20.164  0.00  0.00    +0.000 OA
ENDBRANCH  16  17
ENDBRANCH  14  16
ENDBRANCH  11  12
BRANCH  11  22
ATOM     22  C   UNL     1       1.778   7.913  19.956  0.00  0.00    +0.000 C 
ATOM     23  N   UNL     1       1.774   7.350  21.084  0.00  0.00    +0.000 NA
ENDBRANCH  11  22
ENDBRANCH   3  10
BRANCH   1  24
ATOM     24  C   UNL     1       6.726   5.442  18.053  0.00  0.00    +0.000 C 
BRANCH  24  25
ATOM     25  C   UNL     1       7.372   4.749  16.863  0.00  0.00    +0.000 C 
BRANCH  25  26
ATOM     26  O   UNL     1       7.370   5.553  15.677  0.00  0.00    +0.000 OA
BRANCH  26  31
ATOM     27  C   UNL     1       5.075   2.737  11.289  0.00  0.00    +0.000 C 
ATOM     28  C   UNL     1       5.682   3.478  12.442  0.00  0.00    +0.000 A 
ATOM     29  C   UNL     1       5.022   3.599  13.670  0.00  0.00    +0.000 A 
ATOM     30  C   UNL     1       5.609   4.304  14.729  0.00  0.00    +0.000 A 
ATOM     31  C   UNL     1       6.868   4.886  14.579  0.00  0.00    +0.000 A 
ATOM     32  C   UNL     1       7.519   4.780  13.345  0.00  0.00    +0.000 A 
ATOM     33  C   UNL     1       6.934   4.078  12.288  0.00  0.00    +0.000 A 
ENDBRANCH  26  31
ENDBRANCH  25  26
ENDBRANCH  24  25
ENDBRANCH   1  24
TORSDOF 9
ENDMDL
MODEL 7
REMARK VINA RESULT:      -8.3      1.737      2.326
REMARK  Name = 
REMARK  10 active torsions:
REMARK  status: ('A' for Active; 'I' for Inactive)
REMARK    1  A    between atoms: C_1  and  C_2
REMARK    2  A    between atoms: C_5  and  O_6
REMARK    3  A    between atoms: O_6  and  C_7
REMARK    4  A    between atoms: C_7  and  C_8
REMARK    5  A    between atoms: C_8  and  N_9
REMARK    6  A    between atoms: C_11  and  C_12
REMARK    7  A    between atoms: C_13  and  C_14
REMARK    8  A    between atoms: C_13  and  C_16
REMARK    9  A    between atoms: N_18  and  C_19
REMARK   10  A    between atoms: C_19  and  C_20
REMARK                            x       y       z     vdW  Elec       q    Type
REMARK                         _______ _______ _______ _____ _____    ______ ____
ROOT
ATOM      1  N   UNL     1       2.218   6.089  19.992  0.00  0.00    +0.000 N 
ATOM      2  C   UNL     1       2.922   6.477  18.865  0.00  0.00    +0.000 A 
ATOM      3  C   UNL     1       3.720   5.431  18.462  0.00  0.00    +0.000 A 
ATOM      4  C   UNL     1       3.498   4.352  19.363  0.00  0.00    +0.000 A 
ATOM      5  C   UNL     1       4.028   3.044  19.458  0.00  0.00    +0.000 A 
ATOM      6  C   UNL     1       3.614   2.186  20.478  0.00  0.00    +0.000 A 
ATOM      7  C   UNL     1       2.679   2.609  21.409  0.00  0.00    +0.000 A 
ATOM      8  C   UNL     1       2.143   3.899  21.340  0.00  0.00    +0.000 A 
ATOM      9  C   UNL     1       2.553   4.779  20.315  0.00  0.00    +0.000 A 
ENDROOT
BRANCH   3  10
ATOM     10  C   UNL     1       4.616   5.464  17.342  0.00  0.00    +0.000 C 
ATOM     11  C   UNL     1       5.965   5.468  17.421  0.00  0.00    +0.000 C 
BRANCH  11  12
ATOM     12  C   UNL     1       6.782   5.495  16.178  0.00  0.00    +0.000 C 
ATOM     13  O   UNL     1       7.655   6.345  16.013  0.00  0.00    +0.000 OA
ATOM     14  N   UNL     1       6.505   4.535  15.234  0.00  0.00    +0.000 N 
ATOM     15  H   UNL     1       5.733   3.887  15.339  0.00  0.00    +0.000 HD
BRANCH  14  16
ATOM     16  C   UNL     1       7.254   4.436  13.988  0.00  0.00    +0.000 C 
BRANCH  16  17
ATOM     17  C   UNL     1       6.389   4.164  12.751  0.00  0.00    +0.000 C 
ATOM     18  C   UNL     1       4.920   3.867  13.004  0.00  0.00    +0.000 C 
ATOM     19  C   UNL     1       4.549   3.097  11.761  0.00  0.00    +0.000 C 
ATOM     20  C   UNL     1       5.799   2.279  11.511  0.00  0.00    +0.000 C 
ATOM     21  O   UNL     1       6.910   3.043  12.007  0.00  0.00    +0.000 OA
ENDBRANCH  16  17
ENDBRANCH  14  16
ENDBRANCH  11  12
BRANCH  11  22
ATOM     22  C   UNL     1       6.602   5.461  18.803  0.00  0.00    +0.000 C 
ATOM     23  N   UNL     1       7.130   5.455  19.947  0.00  0.00    +0.000 NA
ENDBRANCH  11  22
ENDBRANCH   3  10
BRANCH   1  24
ATOM     24  C   UNL     1       1.289   7.012  20.650  0.00  0.00    +0.000 C 
BRANCH  24  25
ATOM     25  C   UNL     1       1.687   8.480  20.675  0.00  0.00    +0.000 C 
BRANCH  25  26
ATOM     26  O   UNL     1       0.740   9.329  20.013  0.00  0.00    +0.000 OA
BRANCH  26  31
ATOM     27  C   UNL     1      -2.484  12.539  23.442  0.00  0.00    +0.000 C 
ATOM     28  C   UNL     1      -1.634  11.692  22.543  0.00  0.00    +0.000 A 
ATOM     29  C   UNL     1      -1.476  11.989  21.185  0.00  0.00    +0.000 A 
ATOM     30  C   UNL     1      -0.682  11.177  20.364  0.00  0.00    +0.000 A 
ATOM     31  C   UNL     1      -0.025  10.065  20.894  0.00  0.00    +0.000 A 
ATOM     32  C   UNL     1      -0.199   9.759  22.248  0.00  0.00    +0.000 A 
ATOM     33  C   UNL     1      -0.991  10.568  23.066  0.00  0.00    +0.000 A 
ENDBRANCH  26  31
ENDBRANCH  25  26
ENDBRANCH  24  25
ENDBRANCH   1  24
TORSDOF 9
ENDMDL
MODEL 8
REMARK VINA RESULT:      -8.3      2.314      8.986
REMARK  Name = 
REMARK  10 active torsions:
REMARK  status: ('A' for Active; 'I' for Inactive)
REMARK    1  A    between atoms: C_1  and  C_2
REMARK    2  A    between atoms: C_5  and  O_6
REMARK    3  A    between atoms: O_6  and  C_7
REMARK    4  A    between atoms: C_7  and  C_8
REMARK    5  A    between atoms: C_8  and  N_9
REMARK    6  A    between atoms: C_11  and  C_12
REMARK    7  A    between atoms: C_13  and  C_14
REMARK    8  A    between atoms: C_13  and  C_16
REMARK    9  A    between atoms: N_18  and  C_19
REMARK   10  A    between atoms: C_19  and  C_20
REMARK                            x       y       z     vdW  Elec       q    Type
REMARK                         _______ _______ _______ _____ _____    ______ ____
ROOT
ATOM      1  N   UNL     1       5.371   5.632  18.058  0.00  0.00    +0.000 N 
ATOM      2  C   UNL     1       4.897   6.928  17.947  0.00  0.00    +0.000 A 
ATOM      3  C   UNL     1       3.526   6.887  17.837  0.00  0.00    +0.000 A 
ATOM      4  C   UNL     1       3.132   5.521  17.891  0.00  0.00    +0.000 A 
ATOM      5  C   UNL     1       1.878   4.870  17.824  0.00  0.00    +0.000 A 
ATOM      6  C   UNL     1       1.799   3.479  17.902  0.00  0.00    +0.000 A 
ATOM      7  C   UNL     1       2.950   2.721  18.047  0.00  0.00    +0.000 A 
ATOM      8  C   UNL     1       4.203   3.340  18.112  0.00  0.00    +0.000 A 
ATOM      9  C   UNL     1       4.299   4.746  18.032  0.00  0.00    +0.000 A 
ENDROOT
BRANCH   3  10
ATOM     10  C   UNL     1       2.680   8.035  17.679  0.00  0.00    +0.000 C 
ATOM     11  C   UNL     1       1.853   8.531  18.627  0.00  0.00    +0.000 C 
BRANCH  11  12
ATOM     12  C   UNL     1       1.032   9.738  18.337  0.00  0.00    +0.000 C 
ATOM     13  O   UNL     1       0.004   9.658  17.666  0.00  0.00    +0.000 OA
ATOM     14  N   UNL     1       1.483  10.931  18.849  0.00  0.00    +0.000 N 
ATOM     15  H   UNL     1       2.370  11.006  19.334  0.00  0.00    +0.000 HD
BRANCH  14  16
ATOM     16  C   UNL     1       0.752  12.179  18.662  0.00  0.00    +0.000 C 
BRANCH  16  17
ATOM     17  C   UNL     1       1.537  13.435  19.060  0.00  0.00    +0.000 C 
ATOM     18  C   UNL     1       2.835  13.688  18.311  0.00  0.00    +0.000 C 
ATOM     19  C   UNL     1       3.586  14.555  19.291  0.00  0.00    +0.000 C 
ATOM     20  C   UNL     1       3.196  13.941  20.619  0.00  0.00    +0.000 C 
ATOM     21  O   UNL     1       1.876  13.396  20.462  0.00  0.00    +0.000 OA
ENDBRANCH  16  17
ENDBRANCH  14  16
ENDBRANCH  11  12
BRANCH  11  22
ATOM     22  C   UNL     1       1.784   7.813  19.965  0.00  0.00    +0.000 C 
ATOM     23  N   UNL     1       1.727   7.217  21.075  0.00  0.00    +0.000 NA
ENDBRANCH  11  22
ENDBRANCH   3  10
BRANCH   1  24
ATOM     24  C   UNL     1       6.807   5.367  18.181  0.00  0.00    +0.000 C 
BRANCH  24  25
ATOM     25  C   UNL     1       7.494   4.746  16.974  0.00  0.00    +0.000 C 
BRANCH  25  26
ATOM     26  O   UNL     1       7.386   5.550  15.793  0.00  0.00    +0.000 OA
BRANCH  26  31
ATOM     27  C   UNL     1       5.083   2.864  11.328  0.00  0.00    +0.000 C 
ATOM     28  C   UNL     1       5.685   3.571  12.504  0.00  0.00    +0.000 A 
ATOM     29  C   UNL     1       6.957   4.152  12.443  0.00  0.00    +0.000 A 
ATOM     30  C   UNL     1       7.500   4.800  13.560  0.00  0.00    +0.000 A 
ATOM     31  C   UNL     1       6.775   4.887  14.749  0.00  0.00    +0.000 A 
ATOM     32  C   UNL     1       5.512   4.290  14.815  0.00  0.00    +0.000 A 
ATOM     33  C   UNL     1       4.969   3.643  13.701  0.00  0.00    +0.000 A 
ENDBRANCH  26  31
ENDBRANCH  25  26
ENDBRANCH  24  25
ENDBRANCH   1  24
TORSDOF 9
ENDMDL
MODEL 9
REMARK VINA RESULT:      -8.2      1.819      2.358
REMARK  Name = 
REMARK  10 active torsions:
REMARK  status: ('A' for Active; 'I' for Inactive)
REMARK    1  A    between atoms: C_1  and  C_2
REMARK    2  A    between atoms: C_5  and  O_6
REMARK    3  A    between atoms: O_6  and  C_7
REMARK    4  A    between atoms: C_7  and  C_8
REMARK    5  A    between atoms: C_8  and  N_9
REMARK    6  A    between atoms: C_11  and  C_12
REMARK    7  A    between atoms: C_13  and  C_14
REMARK    8  A    between atoms: C_13  and  C_16
REMARK    9  A    between atoms: N_18  and  C_19
REMARK   10  A    between atoms: C_19  and  C_20
REMARK                            x       y       z     vdW  Elec       q    Type
REMARK                         _______ _______ _______ _____ _____    ______ ____
ROOT
ATOM      1  N   UNL     1       2.177   6.627  19.681  0.00  0.00    +0.000 N 
ATOM      2  C   UNL     1       3.077   6.952  18.681  0.00  0.00    +0.000 A 
ATOM      3  C   UNL     1       3.493   5.792  18.069  0.00  0.00    +0.000 A 
ATOM      4  C   UNL     1       2.821   4.709  18.702  0.00  0.00    +0.000 A 
ATOM      5  C   UNL     1       2.847   3.308  18.512  0.00  0.00    +0.000 A 
ATOM      6  C   UNL     1       2.062   2.472  19.308  0.00  0.00    +0.000 A 
ATOM      7  C   UNL     1       1.249   3.009  20.293  0.00  0.00    +0.000 A 
ATOM      8  C   UNL     1       1.209   4.391  20.505  0.00  0.00    +0.000 A 
ATOM      9  C   UNL     1       1.998   5.249  19.709  0.00  0.00    +0.000 A 
ENDROOT
BRANCH   3  10
ATOM     10  C   UNL     1       4.448   5.723  17.000  0.00  0.00    +0.000 C 
ATOM     11  C   UNL     1       5.778   5.535  17.152  0.00  0.00    +0.000 C 
BRANCH  11  12
ATOM     12  C   UNL     1       6.660   5.474  15.955  0.00  0.00    +0.000 C 
ATOM     13  O   UNL     1       7.648   6.200  15.860  0.00  0.00    +0.000 OA
ATOM     14  N   UNL     1       6.310   4.579  14.973  0.00  0.00    +0.000 N 
ATOM     15  H   UNL     1       5.453   4.040  15.020  0.00  0.00    +0.000 HD
BRANCH  14  16
ATOM     16  C   UNL     1       7.109   4.402  13.767  0.00  0.00    +0.000 C 
BRANCH  16  17
ATOM     17  C   UNL     1       6.296   4.044  12.518  0.00  0.00    +0.000 C 
ATOM     18  C   UNL     1       4.789   3.938  12.698  0.00  0.00    +0.000 C 
ATOM     19  C   UNL     1       4.410   3.038  11.547  0.00  0.00    +0.000 C 
ATOM     20  C   UNL     1       5.574   2.070  11.507  0.00  0.00    +0.000 C 
ATOM     21  O   UNL     1       6.731   2.779  11.976  0.00  0.00    +0.000 OA
ENDBRANCH  16  17
ENDBRANCH  14  16
ENDBRANCH  11  12
BRANCH  11  22
ATOM     22  C   UNL     1       6.327   5.410  18.565  0.00  0.00    +0.000 C 
ATOM     23  N   UNL     1       6.782   5.305  19.735  0.00  0.00    +0.000 NA
ENDBRANCH  11  22
ENDBRANCH   3  10
BRANCH   1  24
ATOM     24  C   UNL     1       1.572   7.672  20.513  0.00  0.00    +0.000 C 
BRANCH  24  25
ATOM     25  C   UNL     1       1.454   9.056  19.893  0.00  0.00    +0.000 C 
BRANCH  25  26
ATOM     26  O   UNL     1       0.106   9.540  19.854  0.00  0.00    +0.000 OA
BRANCH  26  31
ATOM     27  C   UNL     1      -0.804  14.082  23.170  0.00  0.00    +0.000 C 
ATOM     28  C   UNL     1      -0.563  12.889  22.295  0.00  0.00    +0.000 A 
ATOM     29  C   UNL     1      -1.101  11.633  22.597  0.00  0.00    +0.000 A 
ATOM     30  C   UNL     1      -0.854  10.533  21.766  0.00  0.00    +0.000 A 
ATOM     31  C   UNL     1      -0.077  10.676  20.615  0.00  0.00    +0.000 A 
ATOM     32  C   UNL     1       0.475  11.928  20.325  0.00  0.00    +0.000 A 
ATOM     33  C   UNL     1       0.229  13.026  21.153  0.00  0.00    +0.000 A 
ENDBRANCH  26  31
ENDBRANCH  25  26
ENDBRANCH  24  25
ENDBRANCH   1  24
TORSDOF 9
ENDMDL
