MODEL 1
REMARK VINA RESULT:      -7.4      0.000      0.000
REMARK  Name = 
REMARK  5 active torsions:
REMARK  status: ('A' for Active; 'I' for Inactive)
REMARK    1  A    between atoms: C_4  and  C_5
REMARK    2  A    between atoms: C_5  and  C_6
REMARK    3  A    between atoms: C_6  and  C_7
REMARK    4  A    between atoms: C_7  and  N_8
REMARK    5  A    between atoms: N_8  and  C_9
REMARK                            x       y       z     vdW  Elec       q    Type
REMARK                         _______ _______ _______ _____ _____    ______ ____
ROOT
ATOM      1  C   UNL     1       3.247   4.117  18.597  0.00  0.00    +0.000 C 
ATOM      2  C   UNL     1       1.801   4.107  18.008  0.00  0.00    +0.000 C 
ATOM      3  C   UNL     1       1.063   3.011  18.822  0.00  0.00    +0.000 C 
ATOM      4  C   UNL     1       0.711   3.582  20.201  0.00  0.00    +0.000 C 
ATOM      5  C   UNL     1       2.083   3.655  20.885  0.00  0.00    +0.000 C 
ATOM      6  C   UNL     1       3.054   3.106  19.801  0.00  0.00    +0.000 C 
ATOM      7  C   UNL     1       2.166   2.021  19.187  0.00  0.00    +0.000 C 
ENDROOT
BRANCH   1   8
ATOM      8  C   UNL     1       3.704   5.501  19.161  0.00  0.00    +0.000 C 
BRANCH   8  12
ATOM      9  C   UNL     1       1.447   9.186  18.890  0.00  0.00    +0.000 A 
ATOM     10  C   UNL     1       2.181   8.760  17.782  0.00  0.00    +0.000 A 
ATOM     11  C   UNL     1       2.911   7.563  17.829  0.00  0.00    +0.000 A 
ATOM     12  C   UNL     1       2.942   6.799  18.996  0.00  0.00    +0.000 A 
ATOM     13  C   UNL     1       2.148   7.220  20.085  0.00  0.00    +0.000 A 
ATOM     14  C   UNL     1       1.411   8.404  20.036  0.00  0.00    +0.000 A 
ENDBRANCH   8  12
ENDBRANCH   1   8
BRANCH   1  15
ATOM     15  C   UNL     1       4.230   3.560  17.507  0.00  0.00    +0.000 C 
BRANCH  15  16
ATOM     16  N   UNL     1       5.626   3.951  17.690  0.00  0.00    +0.000 NA
ATOM     17  H   UNL     1       6.187   3.127  17.899  0.00  0.00    +0.000 HD
BRANCH  16  18
ATOM     18  C   UNL     1       6.197   4.655  16.532  0.00  0.00    +0.000 C 
ATOM     19  C   UNL     1       5.489   5.780  15.828  0.00  0.00    +0.000 C 
ATOM     20  C   UNL     1       6.618   6.082  16.764  0.00  0.00    +0.000 C 
ENDBRANCH  16  18
ENDBRANCH  15  16
ENDBRANCH   1  15
TORSDOF 5
ENDMDL
MODEL 2
REMARK VINA RESULT:      -7.3      0.570      1.293
REMARK  Name = 
REMARK  5 active torsions:
REMARK  status: ('A' for Active; 'I' for Inactive)
REMARK    1  A    between atoms: C_4  and  C_5
REMARK    2  A    between atoms: C_5  and  C_6
REMARK    3  A    between atoms: C_6  and  C_7
REMARK    4  A    between atoms: C_7  and  N_8
REMARK    5  A    between atoms: N_8  and  C_9
REMARK                            x       y       z     vdW  Elec       q    Type
REMARK                         _______ _______ _______ _____ _____    ______ ____
ROOT
ATOM      1  C   UNL     1       3.259   4.489  18.240  0.00  0.00    +0.000 C 
ATOM      2  C   UNL     1       1.770   4.424  17.773  0.00  0.00    +0.000 C 
ATOM      3  C   UNL     1       1.184   3.201  18.527  0.00  0.00    +0.000 C 
ATOM      4  C   UNL     1       0.918   3.606  19.982  0.00  0.00    +0.000 C 
ATOM      5  C   UNL     1       2.338   3.719  20.555  0.00  0.00    +0.000 C 
ATOM      6  C   UNL     1       3.243   3.354  19.344  0.00  0.00    +0.000 C 
ATOM      7  C   UNL     1       2.381   2.269  18.697  0.00  0.00    +0.000 C 
ENDROOT
BRANCH   1   8
ATOM      8  C   UNL     1       3.667   5.843  18.904  0.00  0.00    +0.000 C 
BRANCH   8  12
ATOM      9  C   UNL     1       1.214   9.410  18.939  0.00  0.00    +0.000 A 
ATOM     10  C   UNL     1       1.245   8.600  20.075  0.00  0.00    +0.000 A 
ATOM     11  C   UNL     1       2.041   7.445  20.104  0.00  0.00    +0.000 A 
ATOM     12  C   UNL     1       2.786   7.070  18.986  0.00  0.00    +0.000 A 
ATOM     13  C   UNL     1       2.784   7.933  17.869  0.00  0.00    +0.000 A 
ATOM     14  C   UNL     1       2.003   9.090  17.842  0.00  0.00    +0.000 A 
ENDBRANCH   8  12
ENDBRANCH   1   8
BRANCH   1  15
ATOM     15  C   UNL     1       4.176   4.118  17.022  0.00  0.00    +0.000 C 
BRANCH  15  16
ATOM     16  N   UNL     1       5.507   3.639  17.386  0.00  0.00    +0.000 NA
ATOM     17  H   UNL     1       5.611   2.666  17.102  0.00  0.00    +0.000 HD
BRANCH  16  18
ATOM     18  C   UNL     1       6.600   4.439  16.812  0.00  0.00    +0.000 C 
ATOM     19  C   UNL     1       6.646   5.940  16.895  0.00  0.00    +0.000 C 
ATOM     20  C   UNL     1       7.516   5.117  17.795  0.00  0.00    +0.000 C 
ENDBRANCH  16  18
ENDBRANCH  15  16
ENDBRANCH   1  15
TORSDOF 5
ENDMDL
MODEL 3
REMARK VINA RESULT:      -7.2      1.973      3.057
REMARK  Name = 
REMARK  5 active torsions:
REMARK  status: ('A' for Active; 'I' for Inactive)
REMARK    1  A    between atoms: C_4  and  C_5
REMARK    2  A    between atoms: C_5  and  C_6
REMARK    3  A    between atoms: C_6  and  C_7
REMARK    4  A    between atoms: C_7  and  N_8
REMARK    5  A    between atoms: N_8  and  C_9
REMARK                            x       y       z     vdW  Elec       q    Type
REMARK                         _______ _______ _______ _____ _____    ______ ____
ROOT
ATOM      1  C   UNL     1       3.108   4.191  18.095  0.00  0.00    +0.000 C 
ATOM      2  C   UNL     1       1.551   4.186  17.980  0.00  0.00    +0.000 C 
ATOM      3  C   UNL     1       1.106   2.976  18.845  0.00  0.00    +0.000 C 
ATOM      4  C   UNL     1       1.195   3.375  20.323  0.00  0.00    +0.000 C 
ATOM      5  C   UNL     1       2.710   3.430  20.557  0.00  0.00    +0.000 C 
ATOM      6  C   UNL     1       3.301   3.046  19.171  0.00  0.00    +0.000 C 
ATOM      7  C   UNL     1       2.273   1.999  18.735  0.00  0.00    +0.000 C 
ENDROOT
BRANCH   1   8
ATOM      8  C   UNL     1       3.708   5.521  18.652  0.00  0.00    +0.000 C 
BRANCH   8  12
ATOM      9  C   UNL     1       7.803   6.842  18.158  0.00  0.00    +0.000 A 
ATOM     10  C   UNL     1       7.526   5.822  19.071  0.00  0.00    +0.000 A 
ATOM     11  C   UNL     1       6.213   5.359  19.245  0.00  0.00    +0.000 A 
ATOM     12  C   UNL     1       5.160   5.935  18.534  0.00  0.00    +0.000 A 
ATOM     13  C   UNL     1       5.469   6.925  17.577  0.00  0.00    +0.000 A 
ATOM     14  C   UNL     1       6.776   7.379  17.392  0.00  0.00    +0.000 A 
ENDBRANCH   8  12
ENDBRANCH   1   8
BRANCH   1  15
ATOM     15  C   UNL     1       3.708   3.800  16.698  0.00  0.00    +0.000 C 
BRANCH  15  16
ATOM     16  N   UNL     1       5.097   3.347  16.739  0.00  0.00    +0.000 NA
ATOM     17  H   UNL     1       5.130   2.372  17.033  0.00  0.00    +0.000 HD
BRANCH  16  18
ATOM     18  C   UNL     1       5.805   3.499  15.459  0.00  0.00    +0.000 C 
ATOM     19  C   UNL     1       5.809   4.782  14.674  0.00  0.00    +0.000 C 
ATOM     20  C   UNL     1       7.015   4.394  15.471  0.00  0.00    +0.000 C 
ENDBRANCH  16  18
ENDBRANCH  15  16
ENDBRANCH   1  15
TORSDOF 5
ENDMDL
MODEL 4
REMARK VINA RESULT:      -7.1      1.960      2.893
REMARK  Name = 
REMARK  5 active torsions:
REMARK  status: ('A' for Active; 'I' for Inactive)
REMARK    1  A    between atoms: C_4  and  C_5
REMARK    2  A    between atoms: C_5  and  C_6
REMARK    3  A    between atoms: C_6  and  C_7
REMARK    4  A    between atoms: C_7  and  N_8
REMARK    5  A    between atoms: N_8  and  C_9
REMARK                            x       y       z     vdW  Elec       q    Type
REMARK                         _______ _______ _______ _____ _____    ______ ____
ROOT
ATOM      1  C   UNL     1       3.051   4.131  18.134  0.00  0.00    +0.000 C 
ATOM      2  C   UNL     1       1.493   4.099  18.027  0.00  0.00    +0.000 C 
ATOM      3  C   UNL     1       1.071   2.907  18.928  0.00  0.00    +0.000 C 
ATOM      4  C   UNL     1       1.160   3.350  20.394  0.00  0.00    +0.000 C 
ATOM      5  C   UNL     1       2.676   3.434  20.619  0.00  0.00    +0.000 C 
ATOM      6  C   UNL     1       3.267   3.020  19.241  0.00  0.00    +0.000 C 
ATOM      7  C   UNL     1       2.253   1.946  18.840  0.00  0.00    +0.000 C 
ENDROOT
BRANCH   1   8
ATOM      8  C   UNL     1       3.633   5.486  18.650  0.00  0.00    +0.000 C 
BRANCH   8  12
ATOM      9  C   UNL     1       7.755   6.718  18.163  0.00  0.00    +0.000 A 
ATOM     10  C   UNL     1       6.771   7.326  17.382  0.00  0.00    +0.000 A 
ATOM     11  C   UNL     1       5.423   6.962  17.524  0.00  0.00    +0.000 A 
ATOM     12  C   UNL     1       5.052   5.963  18.424  0.00  0.00    +0.000 A 
ATOM     13  C   UNL     1       6.055   5.402  19.243  0.00  0.00    +0.000 A 
ATOM     14  C   UNL     1       7.395   5.771  19.112  0.00  0.00    +0.000 A 
ENDBRANCH   8  12
ENDBRANCH   1   8
BRANCH   1  15
ATOM     15  C   UNL     1       3.651   3.710  16.746  0.00  0.00    +0.000 C 
BRANCH  15  16
ATOM     16  N   UNL     1       5.057   3.315  16.787  0.00  0.00    +0.000 NA
ATOM     17  H   UNL     1       5.133   2.348  17.099  0.00  0.00    +0.000 HD
BRANCH  16  18
ATOM     18  C   UNL     1       5.751   3.471  15.499  0.00  0.00    +0.000 C 
ATOM     19  C   UNL     1       5.806   4.775  14.752  0.00  0.00    +0.000 C 
ATOM     20  C   UNL     1       7.004   4.305  15.517  0.00  0.00    +0.000 C 
ENDBRANCH  16  18
ENDBRANCH  15  16
ENDBRANCH   1  15
TORSDOF 5
ENDMDL
MODEL 5
REMARK VINA RESULT:      -7.1      0.661      1.374
REMARK  Name = 
REMARK  5 active torsions:
REMARK  status: ('A' for Active; 'I' for Inactive)
REMARK    1  A    between atoms: C_4  and  C_5
REMARK    2  A    between atoms: C_5  and  C_6
REMARK    3  A    between atoms: C_6  and  C_7
REMARK    4  A    between atoms: C_7  and  N_8
REMARK    5  A    between atoms: N_8  and  C_9
REMARK                            x       y       z     vdW  Elec       q    Type
REMARK                         _______ _______ _______ _____ _____    ______ ____
ROOT
ATOM      1  C   UNL     1       3.119   3.768  18.584  0.00  0.00    +0.000 C 
ATOM      2  C   UNL     1       1.617   3.833  18.164  0.00  0.00    +0.000 C 
ATOM      3  C   UNL     1       0.905   2.849  19.130  0.00  0.00    +0.000 C 
ATOM      4  C   UNL     1       0.758   3.529  20.497  0.00  0.00    +0.000 C 
ATOM      5  C   UNL     1       2.203   3.539  21.015  0.00  0.00    +0.000 C 
ATOM      6  C   UNL     1       2.999   2.851  19.869  0.00  0.00    +0.000 C 
ATOM      7  C   UNL     1       1.972   1.802  19.437  0.00  0.00    +0.000 C 
ENDROOT
BRANCH   1   8
ATOM      8  C   UNL     1       3.733   5.145  18.994  0.00  0.00    +0.000 C 
BRANCH   8  12
ATOM      9  C   UNL     1       1.710   8.963  18.707  0.00  0.00    +0.000 A 
ATOM     10  C   UNL     1       1.602   8.226  19.889  0.00  0.00    +0.000 A 
ATOM     11  C   UNL     1       2.257   6.993  20.022  0.00  0.00    +0.000 A 
ATOM     12  C   UNL     1       2.997   6.467  18.963  0.00  0.00    +0.000 A 
ATOM     13  C   UNL     1       3.140   7.253  17.799  0.00  0.00    +0.000 A 
ATOM     14  C   UNL     1       2.499   8.486  17.668  0.00  0.00    +0.000 A 
ENDBRANCH   8  12
ENDBRANCH   1   8
BRANCH   1  15
ATOM     15  C   UNL     1       3.926   3.071  17.432  0.00  0.00    +0.000 C 
BRANCH  15  16
ATOM     16  N   UNL     1       5.163   3.752  17.058  0.00  0.00    +0.000 NA
ATOM     17  H   UNL     1       5.943   3.098  17.113  0.00  0.00    +0.000 HD
BRANCH  16  18
ATOM     18  C   UNL     1       5.122   4.356  15.718  0.00  0.00    +0.000 C 
ATOM     19  C   UNL     1       5.995   5.514  15.316  0.00  0.00    +0.000 C 
ATOM     20  C   UNL     1       6.332   4.132  14.850  0.00  0.00    +0.000 C 
ENDBRANCH  16  18
ENDBRANCH  15  16
ENDBRANCH   1  15
TORSDOF 5
ENDMDL
MODEL 6
REMARK VINA RESULT:      -6.9      1.231      4.319
REMARK  Name = 
REMARK  5 active torsions:
REMARK  status: ('A' for Active; 'I' for Inactive)
REMARK    1  A    between atoms: C_4  and  C_5
REMARK    2  A    between atoms: C_5  and  C_6
REMARK    3  A    between atoms: C_6  and  C_7
REMARK    4  A    between atoms: C_7  and  N_8
REMARK    5  A    between atoms: N_8  and  C_9
REMARK                            x       y       z     vdW  Elec       q    Type
REMARK                         _______ _______ _______ _____ _____    ______ ____
ROOT
ATOM      1  C   UNL     1       4.220   4.667  18.057  0.00  0.00    +0.000 C 
ATOM      2  C   UNL     1       5.188   5.462  18.989  0.00  0.00    +0.000 C 
ATOM      3  C   UNL     1       6.454   5.691  18.122  0.00  0.00    +0.000 C 
ATOM      4  C   UNL     1       6.165   6.821  17.126  0.00  0.00    +0.000 C 
ATOM      5  C   UNL     1       5.191   6.153  16.146  0.00  0.00    +0.000 C 
ATOM      6  C   UNL     1       5.050   4.710  16.709  0.00  0.00    +0.000 C 
ATOM      7  C   UNL     1       6.484   4.482  17.191  0.00  0.00    +0.000 C 
ENDROOT
BRANCH   1   8
ATOM      8  C   UNL     1       2.836   5.355  17.827  0.00  0.00    +0.000 C 
BRANCH   8  12
ATOM      9  C   UNL     1       1.502   9.047  19.654  0.00  0.00    +0.000 A 
ATOM     10  C   UNL     1       1.641   7.909  20.451  0.00  0.00    +0.000 A 
ATOM     11  C   UNL     1       2.086   6.700  19.895  0.00  0.00    +0.000 A 
ATOM     12  C   UNL     1       2.362   6.608  18.531  0.00  0.00    +0.000 A 
ATOM     13  C   UNL     1       2.269   7.783  17.755  0.00  0.00    +0.000 A 
ATOM     14  C   UNL     1       1.838   8.990  18.308  0.00  0.00    +0.000 A 
ENDBRANCH   8  12
ENDBRANCH   1   8
BRANCH   1  15
ATOM     15  C   UNL     1       4.079   3.208  18.619  0.00  0.00    +0.000 C 
BRANCH  15  16
ATOM     16  N   UNL     1       2.712   2.692  18.635  0.00  0.00    +0.000 NA
ATOM     17  H   UNL     1       2.652   1.864  18.045  0.00  0.00    +0.000 HD
BRANCH  16  18
ATOM     18  C   UNL     1       2.216   2.373  19.982  0.00  0.00    +0.000 C 
ATOM     19  C   UNL     1       2.412   3.285  21.162  0.00  0.00    +0.000 C 
ATOM     20  C   UNL     1       1.077   3.216  20.488  0.00  0.00    +0.000 C 
ENDBRANCH  16  18
ENDBRANCH  15  16
ENDBRANCH   1  15
TORSDOF 5
ENDMDL
MODEL 7
REMARK VINA RESULT:      -6.9      1.874      4.697
REMARK  Name = 
REMARK  5 active torsions:
REMARK  status: ('A' for Active; 'I' for Inactive)
REMARK    1  A    between atoms: C_4  and  C_5
REMARK    2  A    between atoms: C_5  and  C_6
REMARK    3  A    between atoms: C_6  and  C_7
REMARK    4  A    between atoms: C_7  and  N_8
REMARK    5  A    between atoms: N_8  and  C_9
REMARK                            x       y       z     vdW  Elec       q    Type
REMARK                         _______ _______ _______ _____ _____    ______ ____
ROOT
ATOM      1  C   UNL     1       1.918   4.835  19.832  0.00  0.00    +0.000 C 
ATOM      2  C   UNL     1       3.194   4.166  20.433  0.00  0.00    +0.000 C 
ATOM      3  C   UNL     1       2.730   2.739  20.828  0.00  0.00    +0.000 C 
ATOM      4  C   UNL     1       2.640   1.887  19.556  0.00  0.00    +0.000 C 
ATOM      5  C   UNL     1       1.405   2.471  18.857  0.00  0.00    +0.000 C 
ATOM      6  C   UNL     1       0.939   3.591  19.830  0.00  0.00    +0.000 C 
ATOM      7  C   UNL     1       1.252   2.916  21.167  0.00  0.00    +0.000 C 
ENDROOT
BRANCH   1   8
ATOM      8  C   UNL     1       2.090   5.351  18.367  0.00  0.00    +0.000 C 
BRANCH   8  12
ATOM      9  C   UNL     1       5.829   5.556  16.192  0.00  0.00    +0.000 A 
ATOM     10  C   UNL     1       5.144   4.341  16.247  0.00  0.00    +0.000 A 
ATOM     11  C   UNL     1       3.922   4.242  16.930  0.00  0.00    +0.000 A 
ATOM     12  C   UNL     1       3.391   5.348  17.594  0.00  0.00    +0.000 A 
ATOM     13  C   UNL     1       4.071   6.580  17.478  0.00  0.00    +0.000 A 
ATOM     14  C   UNL     1       5.281   6.684  16.790  0.00  0.00    +0.000 A 
ENDBRANCH   8  12
ENDBRANCH   1   8
BRANCH   1  15
ATOM     15  C   UNL     1       1.441   5.963  20.813  0.00  0.00    +0.000 C 
BRANCH  15  16
ATOM     16  N   UNL     1       2.170   7.223  20.692  0.00  0.00    +0.000 NA
ATOM     17  H   UNL     1       2.709   7.225  19.828  0.00  0.00    +0.000 HD
BRANCH  16  18
ATOM     18  C   UNL     1       1.306   8.412  20.736  0.00  0.00    +0.000 C 
ATOM     19  C   UNL     1       0.051   8.482  21.562  0.00  0.00    +0.000 C 
ATOM     20  C   UNL     1       1.291   9.176  22.033  0.00  0.00    +0.000 C 
ENDBRANCH  16  18
ENDBRANCH  15  16
ENDBRANCH   1  15
TORSDOF 5
ENDMDL
MODEL 8
REMARK VINA RESULT:      -6.9      0.818      1.046
REMARK  Name = 
REMARK  5 active torsions:
REMARK  status: ('A' for Active; 'I' for Inactive)
REMARK    1  A    between atoms: C_4  and  C_5
REMARK    2  A    between atoms: C_5  and  C_6
REMARK    3  A    between atoms: C_6  and  C_7
REMARK    4  A    between atoms: C_7  and  N_8
REMARK    5  A    between atoms: N_8  and  C_9
REMARK                            x       y       z     vdW  Elec       q    Type
REMARK                         _______ _______ _______ _____ _____    ______ ____
ROOT
ATOM      1  C   UNL     1       3.240   4.335  18.926  0.00  0.00    +0.000 C 
ATOM      2  C   UNL     1       1.981   4.150  18.021  0.00  0.00    +0.000 C 
ATOM      3  C   UNL     1       1.366   2.804  18.488  0.00  0.00    +0.000 C 
ATOM      4  C   UNL     1       0.626   3.040  19.810  0.00  0.00    +0.000 C 
ATOM      5  C   UNL     1       1.781   3.254  20.798  0.00  0.00    +0.000 C 
ATOM      6  C   UNL     1       3.047   3.107  19.907  0.00  0.00    +0.000 C 
ATOM      7  C   UNL     1       2.570   1.998  18.966  0.00  0.00    +0.000 C 
ENDROOT
BRANCH   1   8
ATOM      8  C   UNL     1       3.247   5.657  19.759  0.00  0.00    +0.000 C 
BRANCH   8  12
ATOM      9  C   UNL     1       1.381   9.414  18.685  0.00  0.00    +0.000 A 
ATOM     10  C   UNL     1       2.135   8.735  17.726  0.00  0.00    +0.000 A 
ATOM     11  C   UNL     1       2.741   7.507  18.035  0.00  0.00    +0.000 A 
ATOM     12  C   UNL     1       2.627   6.965  19.315  0.00  0.00    +0.000 A 
ATOM     13  C   UNL     1       1.815   7.640  20.251  0.00  0.00    +0.000 A 
ATOM     14  C   UNL     1       1.201   8.855  19.943  0.00  0.00    +0.000 A 
ENDBRANCH   8  12
ENDBRANCH   1   8
BRANCH   1  15
ATOM     15  C   UNL     1       4.520   4.182  18.031  0.00  0.00    +0.000 C 
BRANCH  15  16
ATOM     16  N   UNL     1       4.266   4.228  16.593  0.00  0.00    +0.000 NA
ATOM     17  H   UNL     1       3.361   4.662  16.419  0.00  0.00    +0.000 HD
BRANCH  16  18
ATOM     18  C   UNL     1       5.305   4.939  15.833  0.00  0.00    +0.000 C 
ATOM     19  C   UNL     1       6.661   4.349  15.553  0.00  0.00    +0.000 C 
ATOM     20  C   UNL     1       5.628   4.384  14.470  0.00  0.00    +0.000 C 
ENDBRANCH  16  18
ENDBRANCH  15  16
ENDBRANCH   1  15
TORSDOF 5
ENDMDL
MODEL 9
REMARK VINA RESULT:      -6.8      0.890      1.065
REMARK  Name = 
REMARK  5 active torsions:
REMARK  status: ('A' for Active; 'I' for Inactive)
REMARK    1  A    between atoms: C_4  and  C_5
REMARK    2  A    between atoms: C_5  and  C_6
REMARK    3  A    between atoms: C_6  and  C_7
REMARK    4  A    between atoms: C_7  and  N_8
REMARK    5  A    between atoms: N_8  and  C_9
REMARK                            x       y       z     vdW  Elec       q    Type
REMARK                         _______ _______ _______ _____ _____    ______ ____
ROOT
ATOM      1  C   UNL     1       3.127   4.476  18.669  0.00  0.00    +0.000 C 
ATOM      2  C   UNL     1       1.702   4.331  18.047  0.00  0.00    +0.000 C 
ATOM      3  C   UNL     1       1.149   3.015  18.657  0.00  0.00    +0.000 C 
ATOM      4  C   UNL     1       0.709   3.294  20.099  0.00  0.00    +0.000 C 
ATOM      5  C   UNL     1       2.051   3.473  20.822  0.00  0.00    +0.000 C 
ATOM      6  C   UNL     1       3.098   3.267  19.691  0.00  0.00    +0.000 C 
ATOM      7  C   UNL     1       2.397   2.168  18.890  0.00  0.00    +0.000 C 
ENDROOT
BRANCH   1   8
ATOM      8  C   UNL     1       3.355   5.805  19.457  0.00  0.00    +0.000 C 
BRANCH   8  12
ATOM      9  C   UNL     1       1.121   9.484  18.979  0.00  0.00    +0.000 A 
ATOM     10  C   UNL     1       1.815   8.966  17.883  0.00  0.00    +0.000 A 
ATOM     11  C   UNL     1       2.536   7.769  17.998  0.00  0.00    +0.000 A 
ATOM     12  C   UNL     1       2.599   7.096  19.218  0.00  0.00    +0.000 A 
ATOM     13  C   UNL     1       1.846   7.606  20.297  0.00  0.00    +0.000 A 
ATOM     14  C   UNL     1       1.118   8.791  20.182  0.00  0.00    +0.000 A 
ENDBRANCH   8  12
ENDBRANCH   1   8
BRANCH   1  15
ATOM     15  C   UNL     1       4.187   4.264  17.531  0.00  0.00    +0.000 C 
BRANCH  15  16
ATOM     16  N   UNL     1       5.110   5.381  17.343  0.00  0.00    +0.000 NA
ATOM     17  H   UNL     1       4.778   6.190  17.865  0.00  0.00    +0.000 HD
BRANCH  16  18
ATOM     18  C   UNL     1       6.494   5.076  17.738  0.00  0.00    +0.000 C 
ATOM     19  C   UNL     1       7.547   6.136  17.912  0.00  0.00    +0.000 C 
ATOM     20  C   UNL     1       6.905   5.519  19.116  0.00  0.00    +0.000 C 
ENDBRANCH  16  18
ENDBRANCH  15  16
ENDBRANCH   1  15
TORSDOF 5
ENDMDL
