MODEL 1
REMARK VINA RESULT:      -7.2      0.000      0.000
REMARK  Name = 
REMARK  11 active torsions:
REMARK  status: ('A' for Active; 'I' for Inactive)
REMARK    1  A    between atoms: C_2  and  C_3
REMARK    2  A    between atoms: N_5  and  C_6
REMARK    3  A    between atoms: C_6  and  C_7
REMARK    4  A    between atoms: C_7  and  C_8
REMARK    5  A    between atoms: C_8  and  C_9
REMARK    6  A    between atoms: C_9  and  C_10
REMARK    7  A    between atoms: C_10  and  N_11
REMARK    8  A    between atoms: C_10  and  C_21
REMARK    9  A    between atoms: C_12  and  C_14
REMARK   10  A    between atoms: C_14  and  C_15
REMARK   11  A    between atoms: C_31  and  C_32
REMARK                            x       y       z     vdW  Elec       q    Type
REMARK                         _______ _______ _______ _____ _____    ______ ____
ROOT
ATOM      1  C   UNL     1       1.804   8.253  20.256  0.00  0.00    +0.000 C 
ENDROOT
BRANCH   1   2
ATOM      2  C   UNL     1       1.202   9.089  21.431  0.00  0.00    +0.000 C 
ATOM      3  O   UNL     1       1.774   9.064  22.528  0.00  0.00    +0.000 OA
ATOM      4  N   UNL     1       0.016   9.787  21.286  0.00  0.00    +0.000 N 
ATOM      5  C   UNL     1      -0.409  10.756  22.310  0.00  0.00    +0.000 C 
ATOM      6  C   UNL     1      -0.738  12.163  21.730  0.00  0.00    +0.000 C 
ATOM      7  N   UNL     1      -1.423  12.120  20.420  0.00  0.00    +0.000 N 
ATOM      8  C   UNL     1      -2.730  12.555  20.279  0.00  0.00    +0.000 A 
ATOM      9  C   UNL     1      -3.176  13.726  20.887  0.00  0.00    +0.000 A 
ATOM     10  C   UNL     1      -4.479  14.174  20.672  0.00  0.00    +0.000 A 
ATOM     11  C   UNL     1      -5.320  13.447  19.844  0.00  0.00    +0.000 A 
ATOM     12  C   UNL     1      -4.824  12.295  19.257  0.00  0.00    +0.000 A 
ATOM     13  C   UNL     1      -5.674  11.461  18.348  0.00  0.00    +0.000 C 
ATOM     14  N   UNL     1      -3.559  11.855  19.470  0.00  0.00    +0.000 NA
ATOM     15  C   UNL     1      -0.961  11.092  19.474  0.00  0.00    +0.000 C 
ATOM     16  C   UNL     1      -0.918   9.724  20.164  0.00  0.00    +0.000 C 
ENDBRANCH   1   2
BRANCH   1  17
ATOM     17  N   UNL     1       1.271   6.885  20.234  0.00  0.00    +0.000 N 
ATOM     18  C   UNL     1       2.117   5.798  20.303  0.00  0.00    +0.000 C 
ATOM     19  O   UNL     1       3.336   5.906  20.376  0.00  0.00    +0.000 OA
ATOM     20  H   UNL     1       0.270   6.747  20.267  0.00  0.00    +0.000 HD
BRANCH  18  21
ATOM     21  C   UNL     1       1.440   4.442  20.287  0.00  0.00    +0.000 C 
BRANCH  21  22
ATOM     22  C   UNL     1       0.993   3.967  18.891  0.00  0.00    +0.000 C 
ATOM     23  C   UNL     1       1.979   4.335  17.768  0.00  0.00    +0.000 C 
ATOM     24  C   UNL     1       3.298   3.571  17.866  0.00  0.00    +0.000 C 
ATOM     25  C   UNL     1       3.072   2.062  17.889  0.00  0.00    +0.000 C 
ATOM     26  C   UNL     1       2.062   1.637  18.951  0.00  0.00    +0.000 C 
ATOM     27  C   UNL     1       0.763   2.443  18.879  0.00  0.00    +0.000 C 
ENDBRANCH  21  22
ENDBRANCH  18  21
ENDBRANCH   1  17
BRANCH   1  28
ATOM     28  C   UNL     1       1.758   8.871  18.845  0.00  0.00    +0.000 C 
BRANCH  28  29
ATOM     29  C   UNL     1       2.332   8.020  17.714  0.00  0.00    +0.000 C 
BRANCH  29  30
ATOM     30  C   UNL     1       3.823   7.703  17.818  0.00  0.00    +0.000 C 
BRANCH  30  31
ATOM     31  C   UNL     1       4.371   6.977  16.592  0.00  0.00    +0.000 C 
BRANCH  31  34
ATOM     32  C   UNL     1       6.234   5.486  15.980  0.00  0.00    +0.000 C 
ATOM     33  O   UNL     1       6.050   5.582  14.775  0.00  0.00    +0.000 OA
ATOM     34  N   UNL     1       5.488   6.125  16.937  0.00  0.00    +0.000 N 
ATOM     35  H   UNL     1       5.713   6.022  17.917  0.00  0.00    +0.000 HD
BRANCH  32  37
ATOM     36  C   UNL     1       7.589   4.707  17.871  0.00  0.00    +0.000 C 
ATOM     37  C   UNL     1       7.309   4.642  16.565  0.00  0.00    +0.000 C 
ENDBRANCH  32  37
ENDBRANCH  31  34
ENDBRANCH  30  31
ENDBRANCH  29  30
ENDBRANCH  28  29
ENDBRANCH   1  28
TORSDOF 10
ENDMDL
MODEL 2
REMARK VINA RESULT:      -7.1      2.667      6.442
REMARK  Name = 
REMARK  11 active torsions:
REMARK  status: ('A' for Active; 'I' for Inactive)
REMARK    1  A    between atoms: C_2  and  C_3
REMARK    2  A    between atoms: N_5  and  C_6
REMARK    3  A    between atoms: C_6  and  C_7
REMARK    4  A    between atoms: C_7  and  C_8
REMARK    5  A    between atoms: C_8  and  C_9
REMARK    6  A    between atoms: C_9  and  C_10
REMARK    7  A    between atoms: C_10  and  N_11
REMARK    8  A    between atoms: C_10  and  C_21
REMARK    9  A    between atoms: C_12  and  C_14
REMARK   10  A    between atoms: C_14  and  C_15
REMARK   11  A    between atoms: C_31  and  C_32
REMARK                            x       y       z     vdW  Elec       q    Type
REMARK                         _______ _______ _______ _____ _____    ______ ____
ROOT
ATOM      1  C   UNL     1       1.284   8.896  19.255  0.00  0.00    +0.000 C 
ENDROOT
BRANCH   1   2
ATOM      2  C   UNL     1       0.836  10.358  18.928  0.00  0.00    +0.000 C 
ATOM      3  O   UNL     1       1.707  11.227  18.798  0.00  0.00    +0.000 OA
ATOM      4  N   UNL     1      -0.501  10.704  18.855  0.00  0.00    +0.000 N 
ATOM      5  C   UNL     1      -0.905  12.012  18.313  0.00  0.00    +0.000 C 
ATOM      6  C   UNL     1      -1.958  11.909  17.171  0.00  0.00    +0.000 C 
ATOM      7  N   UNL     1      -2.970  10.852  17.390  0.00  0.00    +0.000 N 
ATOM      8  C   UNL     1      -4.302  11.167  17.606  0.00  0.00    +0.000 A 
ATOM      9  C   UNL     1      -4.949  12.143  16.851  0.00  0.00    +0.000 A 
ATOM     10  C   UNL     1      -6.306  12.392  17.046  0.00  0.00    +0.000 A 
ATOM     11  C   UNL     1      -7.005  11.654  17.989  0.00  0.00    +0.000 A 
ATOM     12  C   UNL     1      -6.315  10.690  18.706  0.00  0.00    +0.000 A 
ATOM     13  C   UNL     1      -7.006   9.853  19.739  0.00  0.00    +0.000 C 
ATOM     14  N   UNL     1      -4.993  10.451  18.522  0.00  0.00    +0.000 NA
ATOM     15  C   UNL     1      -2.484   9.593  17.976  0.00  0.00    +0.000 C 
ATOM     16  C   UNL     1      -1.651   9.883  19.229  0.00  0.00    +0.000 C 
ENDBRANCH   1   2
BRANCH   1  17
ATOM     17  N   UNL     1       2.509   8.530  18.534  0.00  0.00    +0.000 N 
ATOM     18  C   UNL     1       2.734   7.226  18.143  0.00  0.00    +0.000 C 
ATOM     19  O   UNL     1       1.947   6.316  18.377  0.00  0.00    +0.000 OA
ATOM     20  H   UNL     1       3.143   9.260  18.238  0.00  0.00    +0.000 HD
BRANCH  18  21
ATOM     21  C   UNL     1       4.027   6.983  17.393  0.00  0.00    +0.000 C 
BRANCH  21  22
ATOM     22  C   UNL     1       4.788   5.714  17.823  0.00  0.00    +0.000 C 
ATOM     23  C   UNL     1       4.695   4.564  16.805  0.00  0.00    +0.000 C 
ATOM     24  C   UNL     1       5.446   4.861  15.508  0.00  0.00    +0.000 C 
ATOM     25  C   UNL     1       6.909   5.207  15.774  0.00  0.00    +0.000 C 
ATOM     26  C   UNL     1       7.070   6.309  16.817  0.00  0.00    +0.000 C 
ATOM     27  C   UNL     1       6.272   6.029  18.092  0.00  0.00    +0.000 C 
ENDBRANCH  21  22
ENDBRANCH  18  21
ENDBRANCH   1  17
BRANCH   1  28
ATOM     28  C   UNL     1       1.395   8.502  20.740  0.00  0.00    +0.000 C 
BRANCH  28  29
ATOM     29  C   UNL     1       0.101   8.545  21.551  0.00  0.00    +0.000 C 
BRANCH  29  30
ATOM     30  C   UNL     1       0.129   9.442  22.788  0.00  0.00    +0.000 C 
BRANCH  30  31
ATOM     31  C   UNL     1      -0.259  10.889  22.490  0.00  0.00    +0.000 C 
BRANCH  31  34
ATOM     32  C   UNL     1      -2.007  12.410  23.326  0.00  0.00    +0.000 C 
ATOM     33  O   UNL     1      -1.272  13.385  23.389  0.00  0.00    +0.000 OA
ATOM     34  N   UNL     1      -1.619  11.166  22.897  0.00  0.00    +0.000 N 
ATOM     35  H   UNL     1      -2.288  10.410  22.844  0.00  0.00    +0.000 HD
BRANCH  32  37
ATOM     36  C   UNL     1      -4.350  13.013  22.916  0.00  0.00    +0.000 C 
ATOM     37  C   UNL     1      -3.440  12.455  23.721  0.00  0.00    +0.000 C 
ENDBRANCH  32  37
ENDBRANCH  31  34
ENDBRANCH  30  31
ENDBRANCH  29  30
ENDBRANCH  28  29
ENDBRANCH   1  28
TORSDOF 10
ENDMDL
MODEL 3
REMARK VINA RESULT:      -7.1      3.425     10.173
REMARK  Name = 
REMARK  11 active torsions:
REMARK  status: ('A' for Active; 'I' for Inactive)
REMARK    1  A    between atoms: C_2  and  C_3
REMARK    2  A    between atoms: N_5  and  C_6
REMARK    3  A    between atoms: C_6  and  C_7
REMARK    4  A    between atoms: C_7  and  C_8
REMARK    5  A    between atoms: C_8  and  C_9
REMARK    6  A    between atoms: C_9  and  C_10
REMARK    7  A    between atoms: C_10  and  N_11
REMARK    8  A    between atoms: C_10  and  C_21
REMARK    9  A    between atoms: C_12  and  C_14
REMARK   10  A    between atoms: C_14  and  C_15
REMARK   11  A    between atoms: C_31  and  C_32
REMARK                            x       y       z     vdW  Elec       q    Type
REMARK                         _______ _______ _______ _____ _____    ______ ____
ROOT
ATOM      1  C   UNL     1      -0.450  10.546  18.774  0.00  0.00    +0.000 C 
ENDROOT
BRANCH   1   2
ATOM      2  C   UNL     1       0.144   9.726  19.965  0.00  0.00    +0.000 C 
ATOM      3  O   UNL     1      -0.347   9.880  21.090  0.00  0.00    +0.000 OA
ATOM      4  N   UNL     1       1.241   8.901  19.797  0.00  0.00    +0.000 N 
ATOM      5  C   UNL     1       1.635   7.959  20.859  0.00  0.00    +0.000 C 
ATOM      6  C   UNL     1       1.781   6.492  20.359  0.00  0.00    +0.000 C 
ATOM      7  N   UNL     1       2.377   6.380  19.009  0.00  0.00    +0.000 N 
ATOM      8  C   UNL     1       3.622   5.803  18.820  0.00  0.00    +0.000 A 
ATOM      9  C   UNL     1       3.988   4.632  19.479  0.00  0.00    +0.000 A 
ATOM     10  C   UNL     1       5.222   4.038  19.218  0.00  0.00    +0.000 A 
ATOM     11  C   UNL     1       6.073   4.619  18.291  0.00  0.00    +0.000 A 
ATOM     12  C   UNL     1       5.657   5.778  17.657  0.00  0.00    +0.000 A 
ATOM     13  C   UNL     1       6.523   6.459  16.641  0.00  0.00    +0.000 C 
ATOM     14  N   UNL     1       4.459   6.360  17.915  0.00  0.00    +0.000 NA
ATOM     15  C   UNL     1       1.957   7.390  18.024  0.00  0.00    +0.000 C 
ATOM     16  C   UNL     1       2.099   8.795  18.619  0.00  0.00    +0.000 C 
ENDBRANCH   1   2
BRANCH   1  17
ATOM     17  N   UNL     1       0.328  11.762  18.510  0.00  0.00    +0.000 N 
ATOM     18  C   UNL     1      -0.191  13.007  18.800  0.00  0.00    +0.000 C 
ATOM     19  O   UNL     1      -1.309  13.168  19.276  0.00  0.00    +0.000 OA
ATOM     20  H   UNL     1       1.288  11.676  18.205  0.00  0.00    +0.000 HD
BRANCH  18  21
ATOM     21  C   UNL     1       0.718  14.180  18.496  0.00  0.00    +0.000 C 
BRANCH  21  22
ATOM     22  C   UNL     1       2.029  14.201  19.306  0.00  0.00    +0.000 C 
ATOM     23  C   UNL     1       3.295  14.135  18.433  0.00  0.00    +0.000 C 
ATOM     24  C   UNL     1       3.509  15.402  17.606  0.00  0.00    +0.000 C 
ATOM     25  C   UNL     1       3.545  16.648  18.487  0.00  0.00    +0.000 C 
ATOM     26  C   UNL     1       2.338  16.744  19.416  0.00  0.00    +0.000 C 
ATOM     27  C   UNL     1       2.101  15.453  20.202  0.00  0.00    +0.000 C 
ENDBRANCH  21  22
ENDBRANCH  18  21
ENDBRANCH   1  17
BRANCH   1  28
ATOM     28  C   UNL     1      -0.729   9.791  17.460  0.00  0.00    +0.000 C 
BRANCH  28  29
ATOM     29  C   UNL     1      -2.116   9.986  16.848  0.00  0.00    +0.000 C 
BRANCH  29  30
ATOM     30  C   UNL     1      -3.259  10.155  17.847  0.00  0.00    +0.000 C 
BRANCH  30  31
ATOM     31  C   UNL     1      -3.994  11.485  17.700  0.00  0.00    +0.000 C 
BRANCH  31  34
ATOM     32  C   UNL     1      -5.104  12.427  19.687  0.00  0.00    +0.000 C 
ATOM     33  O   UNL     1      -6.207  11.974  19.411  0.00  0.00    +0.000 OA
ATOM     34  N   UNL     1      -3.974  12.240  18.933  0.00  0.00    +0.000 N 
ATOM     35  H   UNL     1      -3.087  12.620  19.235  0.00  0.00    +0.000 HD
BRANCH  32  37
ATOM     36  C   UNL     1      -3.982  12.857  21.826  0.00  0.00    +0.000 C 
ATOM     37  C   UNL     1      -4.854  13.258  20.894  0.00  0.00    +0.000 C 
ENDBRANCH  32  37
ENDBRANCH  31  34
ENDBRANCH  30  31
ENDBRANCH  29  30
ENDBRANCH  28  29
ENDBRANCH   1  28
TORSDOF 10
ENDMDL
MODEL 4
REMARK VINA RESULT:      -7.1      3.194      7.047
REMARK  Name = 
REMARK  11 active torsions:
REMARK  status: ('A' for Active; 'I' for Inactive)
REMARK    1  A    between atoms: C_2  and  C_3
REMARK    2  A    between atoms: N_5  and  C_6
REMARK    3  A    between atoms: C_6  and  C_7
REMARK    4  A    between atoms: C_7  and  C_8
REMARK    5  A    between atoms: C_8  and  C_9
REMARK    6  A    between atoms: C_9  and  C_10
REMARK    7  A    between atoms: C_10  and  N_11
REMARK    8  A    between atoms: C_10  and  C_21
REMARK    9  A    between atoms: C_12  and  C_14
REMARK   10  A    between atoms: C_14  and  C_15
REMARK   11  A    between atoms: C_31  and  C_32
REMARK                            x       y       z     vdW  Elec       q    Type
REMARK                         _______ _______ _______ _____ _____    ______ ____
ROOT
ATOM      1  C   UNL     1       1.129  10.673  18.859  0.00  0.00    +0.000 C 
ENDROOT
BRANCH   1   2
ATOM      2  C   UNL     1       0.724  10.064  20.241  0.00  0.00    +0.000 C 
ATOM      3  O   UNL     1       1.466   9.217  20.753  0.00  0.00    +0.000 OA
ATOM      4  N   UNL     1      -0.471  10.396  20.854  0.00  0.00    +0.000 N 
ATOM      5  C   UNL     1      -0.726  10.008  22.251  0.00  0.00    +0.000 C 
ATOM      6  C   UNL     1      -1.147  11.203  23.157  0.00  0.00    +0.000 C 
ATOM      7  N   UNL     1      -2.035  12.175  22.483  0.00  0.00    +0.000 N 
ATOM      8  C   UNL     1      -3.349  12.346  22.887  0.00  0.00    +0.000 A 
ATOM      9  C   UNL     1      -3.692  12.410  24.235  0.00  0.00    +0.000 A 
ATOM     10  C   UNL     1      -5.013  12.649  24.611  0.00  0.00    +0.000 A 
ATOM     11  C   UNL     1      -5.977  12.831  23.630  0.00  0.00    +0.000 A 
ATOM     12  C   UNL     1      -5.580  12.766  22.305  0.00  0.00    +0.000 A 
ATOM     13  C   UNL     1      -6.566  12.957  21.192  0.00  0.00    +0.000 C 
ATOM     14  N   UNL     1      -4.297  12.527  21.938  0.00  0.00    +0.000 NA
ATOM     15  C   UNL     1      -1.732  12.471  21.074  0.00  0.00    +0.000 C 
ATOM     16  C   UNL     1      -1.575  11.166  20.285  0.00  0.00    +0.000 C 
ENDBRANCH   1   2
BRANCH   1  17
ATOM     17  N   UNL     1       1.655  12.036  19.001  0.00  0.00    +0.000 N 
ATOM     18  C   UNL     1       0.955  13.117  18.507  0.00  0.00    +0.000 C 
ATOM     19  O   UNL     1      -0.118  13.005  17.925  0.00  0.00    +0.000 OA
ATOM     20  H   UNL     1       2.489  12.187  19.553  0.00  0.00    +0.000 HD
BRANCH  18  21
ATOM     21  C   UNL     1       1.598  14.470  18.732  0.00  0.00    +0.000 C 
BRANCH  21  22
ATOM     22  C   UNL     1       0.902  15.341  19.795  0.00  0.00    +0.000 C 
ATOM     23  C   UNL     1       1.739  16.551  20.246  0.00  0.00    +0.000 C 
ATOM     24  C   UNL     1       1.897  17.601  19.148  0.00  0.00    +0.000 C 
ATOM     25  C   UNL     1       0.545  18.069  18.619  0.00  0.00    +0.000 C 
ATOM     26  C   UNL     1      -0.354  16.909  18.201  0.00  0.00    +0.000 C 
ATOM     27  C   UNL     1      -0.466  15.836  19.287  0.00  0.00    +0.000 C 
ENDBRANCH  21  22
ENDBRANCH  18  21
ENDBRANCH   1  17
BRANCH   1  28
ATOM     28  C   UNL     1       2.050   9.833  17.953  0.00  0.00    +0.000 C 
BRANCH  28  29
ATOM     29  C   UNL     1       1.930   8.315  18.088  0.00  0.00    +0.000 C 
BRANCH  29  30
ATOM     30  C   UNL     1       3.224   7.531  17.876  0.00  0.00    +0.000 C 
BRANCH  30  31
ATOM     31  C   UNL     1       3.019   6.018  17.887  0.00  0.00    +0.000 C 
BRANCH  31  34
ATOM     32  C   UNL     1       1.700   4.387  19.178  0.00  0.00    +0.000 C 
ATOM     33  O   UNL     1       1.597   3.588  18.258  0.00  0.00    +0.000 OA
ATOM     34  N   UNL     1       2.372   5.581  19.104  0.00  0.00    +0.000 N 
ATOM     35  H   UNL     1       2.441   6.182  19.914  0.00  0.00    +0.000 HD
BRANCH  32  37
ATOM     36  C   UNL     1       1.285   3.006  21.163  0.00  0.00    +0.000 C 
ATOM     37  C   UNL     1       1.089   4.159  20.514  0.00  0.00    +0.000 C 
ENDBRANCH  32  37
ENDBRANCH  31  34
ENDBRANCH  30  31
ENDBRANCH  29  30
ENDBRANCH  28  29
ENDBRANCH   1  28
TORSDOF 10
ENDMDL
MODEL 5
REMARK VINA RESULT:      -7.1      3.567      7.187
REMARK  Name = 
REMARK  11 active torsions:
REMARK  status: ('A' for Active; 'I' for Inactive)
REMARK    1  A    between atoms: C_2  and  C_3
REMARK    2  A    between atoms: N_5  and  C_6
REMARK    3  A    between atoms: C_6  and  C_7
REMARK    4  A    between atoms: C_7  and  C_8
REMARK    5  A    between atoms: C_8  and  C_9
REMARK    6  A    between atoms: C_9  and  C_10
REMARK    7  A    between atoms: C_10  and  N_11
REMARK    8  A    between atoms: C_10  and  C_21
REMARK    9  A    between atoms: C_12  and  C_14
REMARK   10  A    between atoms: C_14  and  C_15
REMARK   11  A    between atoms: C_31  and  C_32
REMARK                            x       y       z     vdW  Elec       q    Type
REMARK                         _______ _______ _______ _____ _____    ______ ____
ROOT
ATOM      1  C   UNL     1       0.459   9.249  20.424  0.00  0.00    +0.000 C 
ENDROOT
BRANCH   1   2
ATOM      2  C   UNL     1      -0.374  10.220  19.526  0.00  0.00    +0.000 C 
ATOM      3  O   UNL     1      -1.516   9.882  19.192  0.00  0.00    +0.000 OA
ATOM      4  N   UNL     1       0.166  11.400  19.045  0.00  0.00    +0.000 N 
ATOM      5  C   UNL     1      -0.697  12.410  18.410  0.00  0.00    +0.000 C 
ATOM      6  C   UNL     1      -0.546  13.830  19.032  0.00  0.00    +0.000 C 
ATOM      7  N   UNL     1       0.844  14.170  19.406  0.00  0.00    +0.000 N 
ATOM      8  C   UNL     1       1.537  15.175  18.752  0.00  0.00    +0.000 A 
ATOM      9  C   UNL     1       0.933  16.391  18.442  0.00  0.00    +0.000 A 
ATOM     10  C   UNL     1       1.675  17.408  17.843  0.00  0.00    +0.000 A 
ATOM     11  C   UNL     1       3.018  17.199  17.568  0.00  0.00    +0.000 A 
ATOM     12  C   UNL     1       3.571  15.975  17.905  0.00  0.00    +0.000 A 
ATOM     13  C   UNL     1       5.016  15.680  17.642  0.00  0.00    +0.000 C 
ATOM     14  N   UNL     1       2.849  14.983  18.482  0.00  0.00    +0.000 NA
ATOM     15  C   UNL     1       1.647  13.086  19.995  0.00  0.00    +0.000 C 
ATOM     16  C   UNL     1       1.560  11.832  19.119  0.00  0.00    +0.000 C 
ENDBRANCH   1   2
BRANCH   1  17
ATOM     17  N   UNL     1       1.507   8.564  19.658  0.00  0.00    +0.000 N 
ATOM     18  C   UNL     1       1.901   7.285  19.990  0.00  0.00    +0.000 C 
ATOM     19  O   UNL     1       1.418   6.662  20.929  0.00  0.00    +0.000 OA
ATOM     20  H   UNL     1       1.869   9.001  18.820  0.00  0.00    +0.000 HD
BRANCH  18  21
ATOM     21  C   UNL     1       2.979   6.685  19.111  0.00  0.00    +0.000 C 
BRANCH  21  22
ATOM     22  C   UNL     1       3.440   5.277  19.534  0.00  0.00    +0.000 C 
ATOM     23  C   UNL     1       2.588   4.143  18.938  0.00  0.00    +0.000 C 
ATOM     24  C   UNL     1       2.763   4.005  17.426  0.00  0.00    +0.000 C 
ATOM     25  C   UNL     1       4.229   3.811  17.047  0.00  0.00    +0.000 C 
ATOM     26  C   UNL     1       5.136   4.879  17.652  0.00  0.00    +0.000 C 
ATOM     27  C   UNL     1       4.917   5.047  19.158  0.00  0.00    +0.000 C 
ENDBRANCH  21  22
ENDBRANCH  18  21
ENDBRANCH   1  17
BRANCH   1  28
ATOM     28  C   UNL     1       1.035   9.813  21.738  0.00  0.00    +0.000 C 
BRANCH  28  29
ATOM     29  C   UNL     1       0.249   9.501  23.011  0.00  0.00    +0.000 C 
BRANCH  29  30
ATOM     30  C   UNL     1      -1.091  10.222  23.151  0.00  0.00    +0.000 C 
BRANCH  30  31
ATOM     31  C   UNL     1      -0.989  11.730  22.933  0.00  0.00    +0.000 C 
BRANCH  31  34
ATOM     32  C   UNL     1      -3.228  12.413  22.167  0.00  0.00    +0.000 C 
ATOM     33  O   UNL     1      -3.754  12.287  23.264  0.00  0.00    +0.000 OA
ATOM     34  N   UNL     1      -1.902  12.179  21.906  0.00  0.00    +0.000 N 
ATOM     35  H   UNL     1      -1.527  12.330  20.979  0.00  0.00    +0.000 HD
BRANCH  32  37
ATOM     36  C   UNL     1      -5.310  12.697  20.901  0.00  0.00    +0.000 C 
ATOM     37  C   UNL     1      -3.981  12.837  20.958  0.00  0.00    +0.000 C 
ENDBRANCH  32  37
ENDBRANCH  31  34
ENDBRANCH  30  31
ENDBRANCH  29  30
ENDBRANCH  28  29
ENDBRANCH   1  28
TORSDOF 10
ENDMDL
MODEL 6
REMARK VINA RESULT:      -7.0      3.781     10.232
REMARK  Name = 
REMARK  11 active torsions:
REMARK  status: ('A' for Active; 'I' for Inactive)
REMARK    1  A    between atoms: C_2  and  C_3
REMARK    2  A    between atoms: N_5  and  C_6
REMARK    3  A    between atoms: C_6  and  C_7
REMARK    4  A    between atoms: C_7  and  C_8
REMARK    5  A    between atoms: C_8  and  C_9
REMARK    6  A    between atoms: C_9  and  C_10
REMARK    7  A    between atoms: C_10  and  N_11
REMARK    8  A    between atoms: C_10  and  C_21
REMARK    9  A    between atoms: C_12  and  C_14
REMARK   10  A    between atoms: C_14  and  C_15
REMARK   11  A    between atoms: C_31  and  C_32
REMARK                            x       y       z     vdW  Elec       q    Type
REMARK                         _______ _______ _______ _____ _____    ______ ____
ROOT
ATOM      1  C   UNL     1      -0.164  10.736  19.126  0.00  0.00    +0.000 C 
ENDROOT
BRANCH   1   2
ATOM      2  C   UNL     1       0.246   9.687  20.211  0.00  0.00    +0.000 C 
ATOM      3  O   UNL     1      -0.356   9.690  21.291  0.00  0.00    +0.000 OA
ATOM      4  N   UNL     1       1.305   8.819  20.012  0.00  0.00    +0.000 N 
ATOM      5  C   UNL     1       1.524   7.688  20.929  0.00  0.00    +0.000 C 
ATOM      6  C   UNL     1       1.639   6.317  20.200  0.00  0.00    +0.000 C 
ATOM      7  N   UNL     1       2.372   6.385  18.917  0.00  0.00    +0.000 N 
ATOM      8  C   UNL     1       3.594   5.754  18.755  0.00  0.00    +0.000 A 
ATOM      9  C   UNL     1       3.816   4.466  19.235  0.00  0.00    +0.000 A 
ATOM     10  C   UNL     1       5.035   3.831  18.998  0.00  0.00    +0.000 A 
ATOM     11  C   UNL     1       6.016   4.491  18.274  0.00  0.00    +0.000 A 
ATOM     12  C   UNL     1       5.740   5.767  17.812  0.00  0.00    +0.000 A 
ATOM     13  C   UNL     1       6.752   6.538  17.020  0.00  0.00    +0.000 C 
ATOM     14  N   UNL     1       4.558   6.388  18.047  0.00  0.00    +0.000 NA
ATOM     15  C   UNL     1       2.123   7.573  18.084  0.00  0.00    +0.000 C 
ATOM     16  C   UNL     1       2.280   8.845  18.924  0.00  0.00    +0.000 C 
ENDBRANCH   1   2
BRANCH   1  17
ATOM     17  N   UNL     1       1.002  11.457  18.600  0.00  0.00    +0.000 N 
ATOM     18  C   UNL     1       1.017  12.835  18.557  0.00  0.00    +0.000 C 
ATOM     19  O   UNL     1       0.077  13.524  18.937  0.00  0.00    +0.000 OA
ATOM     20  H   UNL     1       1.835  10.937  18.360  0.00  0.00    +0.000 HD
BRANCH  18  21
ATOM     21  C   UNL     1       2.284  13.457  18.007  0.00  0.00    +0.000 C 
BRANCH  21  22
ATOM     22  C   UNL     1       2.475  14.944  18.365  0.00  0.00    +0.000 C 
ATOM     23  C   UNL     1       2.840  15.181  19.841  0.00  0.00    +0.000 C 
ATOM     24  C   UNL     1       4.237  14.672  20.193  0.00  0.00    +0.000 C 
ATOM     25  C   UNL     1       5.302  15.283  19.287  0.00  0.00    +0.000 C 
ATOM     26  C   UNL     1       4.971  15.125  17.806  0.00  0.00    +0.000 C 
ATOM     27  C   UNL     1       3.552  15.589  17.471  0.00  0.00    +0.000 C 
ENDBRANCH  21  22
ENDBRANCH  18  21
ENDBRANCH   1  17
BRANCH   1  28
ATOM     28  C   UNL     1      -1.062  10.251  17.971  0.00  0.00    +0.000 C 
BRANCH  28  29
ATOM     29  C   UNL     1      -2.507  10.746  17.984  0.00  0.00    +0.000 C 
BRANCH  29  30
ATOM     30  C   UNL     1      -3.180  10.853  16.616  0.00  0.00    +0.000 C 
BRANCH  30  31
ATOM     31  C   UNL     1      -4.622  11.347  16.692  0.00  0.00    +0.000 C 
BRANCH  31  34
ATOM     32  C   UNL     1      -6.545  11.260  18.228  0.00  0.00    +0.000 C 
ATOM     33  O   UNL     1      -7.191  12.111  17.632  0.00  0.00    +0.000 OA
ATOM     34  N   UNL     1      -5.304  10.816  17.852  0.00  0.00    +0.000 N 
ATOM     35  H   UNL     1      -4.838  10.088  18.376  0.00  0.00    +0.000 HD
BRANCH  32  37
ATOM     36  C   UNL     1      -7.095   9.262  19.542  0.00  0.00    +0.000 C 
ATOM     37  C   UNL     1      -7.037  10.596  19.464  0.00  0.00    +0.000 C 
ENDBRANCH  32  37
ENDBRANCH  31  34
ENDBRANCH  30  31
ENDBRANCH  29  30
ENDBRANCH  28  29
ENDBRANCH   1  28
TORSDOF 10
ENDMDL
MODEL 7
REMARK VINA RESULT:      -7.0      2.761     10.231
REMARK  Name = 
REMARK  11 active torsions:
REMARK  status: ('A' for Active; 'I' for Inactive)
REMARK    1  A    between atoms: C_2  and  C_3
REMARK    2  A    between atoms: N_5  and  C_6
REMARK    3  A    between atoms: C_6  and  C_7
REMARK    4  A    between atoms: C_7  and  C_8
REMARK    5  A    between atoms: C_8  and  C_9
REMARK    6  A    between atoms: C_9  and  C_10
REMARK    7  A    between atoms: C_10  and  N_11
REMARK    8  A    between atoms: C_10  and  C_21
REMARK    9  A    between atoms: C_12  and  C_14
REMARK   10  A    between atoms: C_14  and  C_15
REMARK   11  A    between atoms: C_31  and  C_32
REMARK                            x       y       z     vdW  Elec       q    Type
REMARK                         _______ _______ _______ _____ _____    ______ ____
ROOT
ATOM      1  C   UNL     1      -0.407  10.948  18.971  0.00  0.00    +0.000 C 
ENDROOT
BRANCH   1   2
ATOM      2  C   UNL     1       0.097  10.027  20.130  0.00  0.00    +0.000 C 
ATOM      3  O   UNL     1      -0.438  10.131  21.241  0.00  0.00    +0.000 OA
ATOM      4  N   UNL     1       1.164   9.165  19.955  0.00  0.00    +0.000 N 
ATOM      5  C   UNL     1       1.469   8.141  20.968  0.00  0.00    +0.000 C 
ATOM      6  C   UNL     1       1.575   6.703  20.379  0.00  0.00    +0.000 C 
ATOM      7  N   UNL     1       2.225   6.651  19.051  0.00  0.00    +0.000 N 
ATOM      8  C   UNL     1       3.452   6.031  18.877  0.00  0.00    +0.000 A 
ATOM      9  C   UNL     1       3.737   4.804  19.473  0.00  0.00    +0.000 A 
ATOM     10  C   UNL     1       4.955   4.173  19.226  0.00  0.00    +0.000 A 
ATOM     11  C   UNL     1       5.872   4.773  18.376  0.00  0.00    +0.000 A 
ATOM     12  C   UNL     1       5.534   5.988  17.803  0.00  0.00    +0.000 A 
ATOM     13  C   UNL     1       6.475   6.692  16.873  0.00  0.00    +0.000 C 
ATOM     14  N   UNL     1       4.353   6.606  18.048  0.00  0.00    +0.000 NA
ATOM     15  C   UNL     1       1.895   7.739  18.118  0.00  0.00    +0.000 C 
ATOM     16  C   UNL     1       2.069   9.096  18.810  0.00  0.00    +0.000 C 
ENDBRANCH   1   2
BRANCH   1  17
ATOM     17  N   UNL     1      -1.760  11.455  19.230  0.00  0.00    +0.000 N 
ATOM     18  C   UNL     1      -2.797  11.170  18.366  0.00  0.00    +0.000 C 
ATOM     19  O   UNL     1      -2.652  10.501  17.350  0.00  0.00    +0.000 OA
ATOM     20  H   UNL     1      -1.948  11.933  20.101  0.00  0.00    +0.000 HD
BRANCH  18  21
ATOM     21  C   UNL     1      -4.146  11.739  18.755  0.00  0.00    +0.000 C 
BRANCH  21  22
ATOM     22  C   UNL     1      -5.309  11.314  17.837  0.00  0.00    +0.000 C 
ATOM     23  C   UNL     1      -6.488  10.676  18.592  0.00  0.00    +0.000 C 
ATOM     24  C   UNL     1      -7.236  11.676  19.472  0.00  0.00    +0.000 C 
ATOM     25  C   UNL     1      -7.719  12.880  18.669  0.00  0.00    +0.000 C 
ATOM     26  C   UNL     1      -6.602  13.528  17.856  0.00  0.00    +0.000 C 
ATOM     27  C   UNL     1      -5.825  12.512  17.017  0.00  0.00    +0.000 C 
ENDBRANCH  21  22
ENDBRANCH  18  21
ENDBRANCH   1  17
BRANCH   1  28
ATOM     28  C   UNL     1       0.519  12.093  18.518  0.00  0.00    +0.000 C 
BRANCH  28  29
ATOM     29  C   UNL     1       0.585  13.314  19.434  0.00  0.00    +0.000 C 
BRANCH  29  30
ATOM     30  C   UNL     1      -0.269  14.506  19.005  0.00  0.00    +0.000 C 
BRANCH  30  31
ATOM     31  C   UNL     1      -0.761  15.347  20.180  0.00  0.00    +0.000 C 
BRANCH  31  34
ATOM     32  C   UNL     1      -2.917  14.386  20.883  0.00  0.00    +0.000 C 
ATOM     33  O   UNL     1      -2.419  13.427  21.457  0.00  0.00    +0.000 OA
ATOM     34  N   UNL     1      -2.206  15.370  20.246  0.00  0.00    +0.000 N 
ATOM     35  H   UNL     1      -2.682  16.151  19.815  0.00  0.00    +0.000 HD
BRANCH  32  37
ATOM     36  C   UNL     1      -5.201  14.092  21.730  0.00  0.00    +0.000 C 
ATOM     37  C   UNL     1      -4.386  14.599  20.799  0.00  0.00    +0.000 C 
ENDBRANCH  32  37
ENDBRANCH  31  34
ENDBRANCH  30  31
ENDBRANCH  29  30
ENDBRANCH  28  29
ENDBRANCH   1  28
TORSDOF 10
ENDMDL
MODEL 8
REMARK VINA RESULT:      -7.0      3.357      9.840
REMARK  Name = 
REMARK  11 active torsions:
REMARK  status: ('A' for Active; 'I' for Inactive)
REMARK    1  A    between atoms: C_2  and  C_3
REMARK    2  A    between atoms: N_5  and  C_6
REMARK    3  A    between atoms: C_6  and  C_7
REMARK    4  A    between atoms: C_7  and  C_8
REMARK    5  A    between atoms: C_8  and  C_9
REMARK    6  A    between atoms: C_9  and  C_10
REMARK    7  A    between atoms: C_10  and  N_11
REMARK    8  A    between atoms: C_10  and  C_21
REMARK    9  A    between atoms: C_12  and  C_14
REMARK   10  A    between atoms: C_14  and  C_15
REMARK   11  A    between atoms: C_31  and  C_32
REMARK                            x       y       z     vdW  Elec       q    Type
REMARK                         _______ _______ _______ _____ _____    ______ ____
ROOT
ATOM      1  C   UNL     1      -0.430  11.962  21.001  0.00  0.00    +0.000 C 
ENDROOT
BRANCH   1   2
ATOM      2  C   UNL     1      -0.197  11.419  19.554  0.00  0.00    +0.000 C 
ATOM      3  O   UNL     1      -0.443  12.165  18.597  0.00  0.00    +0.000 OA
ATOM      4  N   UNL     1       0.202  10.115  19.327  0.00  0.00    +0.000 N 
ATOM      5  C   UNL     1       0.647   9.693  17.989  0.00  0.00    +0.000 C 
ATOM      6  C   UNL     1       2.044   9.004  17.992  0.00  0.00    +0.000 C 
ATOM      7  N   UNL     1       2.271   8.126  19.160  0.00  0.00    +0.000 N 
ATOM      8  C   UNL     1       2.399   6.754  19.013  0.00  0.00    +0.000 A 
ATOM      9  C   UNL     1       3.162   6.202  17.986  0.00  0.00    +0.000 A 
ATOM     10  C   UNL     1       3.327   4.820  17.903  0.00  0.00    +0.000 A 
ATOM     11  C   UNL     1       2.733   4.005  18.855  0.00  0.00    +0.000 A 
ATOM     12  C   UNL     1       1.993   4.607  19.860  0.00  0.00    +0.000 A 
ATOM     13  C   UNL     1       1.326   3.790  20.924  0.00  0.00    +0.000 C 
ATOM     14  N   UNL     1       1.826   5.950  19.938  0.00  0.00    +0.000 NA
ATOM     15  C   UNL     1       1.754   8.608  20.451  0.00  0.00    +0.000 C 
ATOM     16  C   UNL     1       0.288   9.032  20.304  0.00  0.00    +0.000 C 
ENDBRANCH   1   2
BRANCH   1  17
ATOM     17  N   UNL     1      -0.019  13.365  21.128  0.00  0.00    +0.000 N 
ATOM     18  C   UNL     1       1.316  13.709  21.167  0.00  0.00    +0.000 C 
ATOM     19  O   UNL     1       2.218  12.881  21.110  0.00  0.00    +0.000 OA
ATOM     20  H   UNL     1      -0.723  14.090  21.085  0.00  0.00    +0.000 HD
BRANCH  18  21
ATOM     21  C   UNL     1       1.606  15.191  21.283  0.00  0.00    +0.000 C 
BRANCH  21  22
ATOM     22  C   UNL     1       2.158  15.838  19.997  0.00  0.00    +0.000 C 
ATOM     23  C   UNL     1       1.353  15.484  18.735  0.00  0.00    +0.000 C 
ATOM     24  C   UNL     1      -0.043  16.104  18.731  0.00  0.00    +0.000 C 
ATOM     25  C   UNL     1       0.016  17.619  18.906  0.00  0.00    +0.000 C 
ATOM     26  C   UNL     1       0.845  18.037  20.117  0.00  0.00    +0.000 C 
ATOM     27  C   UNL     1       2.222  17.370  20.140  0.00  0.00    +0.000 C 
ENDBRANCH  21  22
ENDBRANCH  18  21
ENDBRANCH   1  17
BRANCH   1  28
ATOM     28  C   UNL     1      -1.823  11.750  21.626  0.00  0.00    +0.000 C 
BRANCH  28  29
ATOM     29  C   UNL     1      -2.752  12.963  21.633  0.00  0.00    +0.000 C 
BRANCH  29  30
ATOM     30  C   UNL     1      -3.335  13.355  20.277  0.00  0.00    +0.000 C 
BRANCH  30  31
ATOM     31  C   UNL     1      -4.040  12.200  19.568  0.00  0.00    +0.000 C 
BRANCH  31  34
ATOM     32  C   UNL     1      -3.935  11.548  17.195  0.00  0.00    +0.000 C 
ATOM     33  O   UNL     1      -5.134  11.693  16.997  0.00  0.00    +0.000 OA
ATOM     34  N   UNL     1      -3.310  11.776  18.394  0.00  0.00    +0.000 N 
ATOM     35  H   UNL     1      -2.309  11.663  18.481  0.00  0.00    +0.000 HD
BRANCH  32  37
ATOM     36  C   UNL     1      -2.864   9.789  15.862  0.00  0.00    +0.000 C 
ATOM     37  C   UNL     1      -2.995  11.091  16.139  0.00  0.00    +0.000 C 
ENDBRANCH  32  37
ENDBRANCH  31  34
ENDBRANCH  30  31
ENDBRANCH  29  30
ENDBRANCH  28  29
ENDBRANCH   1  28
TORSDOF 10
ENDMDL
MODEL 9
REMARK VINA RESULT:      -7.0      3.739     10.500
REMARK  Name = 
REMARK  11 active torsions:
REMARK  status: ('A' for Active; 'I' for Inactive)
REMARK    1  A    between atoms: C_2  and  C_3
REMARK    2  A    between atoms: N_5  and  C_6
REMARK    3  A    between atoms: C_6  and  C_7
REMARK    4  A    between atoms: C_7  and  C_8
REMARK    5  A    between atoms: C_8  and  C_9
REMARK    6  A    between atoms: C_9  and  C_10
REMARK    7  A    between atoms: C_10  and  N_11
REMARK    8  A    between atoms: C_10  and  C_21
REMARK    9  A    between atoms: C_12  and  C_14
REMARK   10  A    between atoms: C_14  and  C_15
REMARK   11  A    between atoms: C_31  and  C_32
REMARK                            x       y       z     vdW  Elec       q    Type
REMARK                         _______ _______ _______ _____ _____    ______ ____
ROOT
ATOM      1  C   UNL     1      -0.499  10.701  18.802  0.00  0.00    +0.000 C 
ENDROOT
BRANCH   1   2
ATOM      2  C   UNL     1       0.056   9.840  19.983  0.00  0.00    +0.000 C 
ATOM      3  O   UNL     1      -0.479   9.947  21.094  0.00  0.00    +0.000 OA
ATOM      4  N   UNL     1       1.164   9.027  19.826  0.00  0.00    +0.000 N 
ATOM      5  C   UNL     1       1.525   8.048  20.865  0.00  0.00    +0.000 C 
ATOM      6  C   UNL     1       1.701   6.602  20.315  0.00  0.00    +0.000 C 
ATOM      7  N   UNL     1       2.348   6.546  18.986  0.00  0.00    +0.000 N 
ATOM      8  C   UNL     1       3.603   5.984  18.822  0.00  0.00    +0.000 A 
ATOM      9  C   UNL     1       3.953   4.791  19.450  0.00  0.00    +0.000 A 
ATOM     10  C   UNL     1       5.200   4.215  19.213  0.00  0.00    +0.000 A 
ATOM     11  C   UNL     1       6.082   4.836  18.342  0.00  0.00    +0.000 A 
ATOM     12  C   UNL     1       5.681   6.017  17.738  0.00  0.00    +0.000 A 
ATOM     13  C   UNL     1       6.581   6.741  16.783  0.00  0.00    +0.000 C 
ATOM     14  N   UNL     1       4.471   6.581  17.972  0.00  0.00    +0.000 NA
ATOM     15  C   UNL     1       1.959   7.590  18.025  0.00  0.00    +0.000 C 
ATOM     16  C   UNL     1       2.067   8.973  18.678  0.00  0.00    +0.000 C 
ENDBRANCH   1   2
BRANCH   1  17
ATOM     17  N   UNL     1       0.476  11.705  18.358  0.00  0.00    +0.000 N 
ATOM     18  C   UNL     1       0.583  12.918  19.006  0.00  0.00    +0.000 C 
ATOM     19  O   UNL     1      -0.120  13.226  19.962  0.00  0.00    +0.000 OA
ATOM     20  H   UNL     1       1.138  11.462  17.634  0.00  0.00    +0.000 HD
BRANCH  18  21
ATOM     21  C   UNL     1       1.637  13.859  18.460  0.00  0.00    +0.000 C 
BRANCH  21  22
ATOM     22  C   UNL     1       1.828  15.151  19.279  0.00  0.00    +0.000 C 
ATOM     23  C   UNL     1       3.099  15.149  20.146  0.00  0.00    +0.000 C 
ATOM     24  C   UNL     1       4.380  15.204  19.317  0.00  0.00    +0.000 C 
ATOM     25  C   UNL     1       4.390  16.407  18.378  0.00  0.00    +0.000 C 
ATOM     26  C   UNL     1       3.128  16.494  17.524  0.00  0.00    +0.000 C 
ATOM     27  C   UNL     1       1.849  16.385  18.358  0.00  0.00    +0.000 C 
ENDBRANCH  21  22
ENDBRANCH  18  21
ENDBRANCH   1  17
BRANCH   1  28
ATOM     28  C   UNL     1      -1.089   9.952  17.591  0.00  0.00    +0.000 C 
BRANCH  28  29
ATOM     29  C   UNL     1      -2.230  10.651  16.854  0.00  0.00    +0.000 C 
BRANCH  29  30
ATOM     30  C   UNL     1      -3.251  11.362  17.741  0.00  0.00    +0.000 C 
BRANCH  30  31
ATOM     31  C   UNL     1      -4.686  10.898  17.499  0.00  0.00    +0.000 C 
BRANCH  31  34
ATOM     32  C   UNL     1      -6.736  12.260  17.597  0.00  0.00    +0.000 C 
ATOM     33  O   UNL     1      -7.217  11.650  18.542  0.00  0.00    +0.000 OA
ATOM     34  N   UNL     1      -5.519  11.982  17.028  0.00  0.00    +0.000 N 
ATOM     35  H   UNL     1      -5.169  12.546  16.266  0.00  0.00    +0.000 HD
BRANCH  32  37
ATOM     36  C   UNL     1      -6.781  14.539  16.688  0.00  0.00    +0.000 C 
ATOM     37  C   UNL     1      -7.429  13.395  16.933  0.00  0.00    +0.000 C 
ENDBRANCH  32  37
ENDBRANCH  31  34
ENDBRANCH  30  31
ENDBRANCH  29  30
ENDBRANCH  28  29
ENDBRANCH   1  28
TORSDOF 10
ENDMDL
