MODEL 1
REMARK VINA RESULT:      -7.1      0.000      0.000
REMARK  Name = 
REMARK  4 active torsions:
REMARK  status: ('A' for Active; 'I' for Inactive)
REMARK    1  A    between atoms: C_1  and  N_2
REMARK    2  A    between atoms: C_5  and  N_6
REMARK    3  A    between atoms: C_7  and  C_9
REMARK    4  A    between atoms: C_17  and  C_18
REMARK                            x       y       z     vdW  Elec       q    Type
REMARK                         _______ _______ _______ _____ _____    ______ ____
ROOT
ATOM      1  C   UNL     1       0.235  15.889  21.358  0.00  0.00    +0.000 C 
ATOM      2  N   UNL     1       0.901  15.298  20.200  0.00  0.00    +0.000 N 
ATOM      3  C   UNL     1       1.255  13.941  20.274  0.00  0.00    +0.000 C 
ATOM      4  O   UNL     1       1.036  13.263  21.285  0.00  0.00    +0.000 OA
ATOM      5  C   UNL     1       1.930  13.331  19.012  0.00  0.00    +0.000 C 
ATOM      6  N   UNL     1       3.285  13.851  18.942  0.00  0.00    +0.000 NA
ATOM      7  C   UNL     1       3.454  15.090  18.621  0.00  0.00    +0.000 C 
ATOM      8  C   UNL     1       2.346  16.035  18.290  0.00  0.00    +0.000 A 
ATOM      9  C   UNL     1       2.544  16.902  17.194  0.00  0.00    +0.000 A 
ATOM     10  C   UNL     1       1.625  17.905  16.898  0.00  0.00    +0.000 A 
ATOM     11  C   UNL     1       0.486  18.037  17.679  0.00  0.00    +0.000 A 
ATOM     12  C   UNL     1       0.271  17.169  18.753  0.00  0.00    +0.000 A 
ATOM     13  C   UNL     1       1.184  16.146  19.080  0.00  0.00    +0.000 A 
ENDROOT
BRANCH   7  14
ATOM     14  C   UNL     1       4.873  15.567  18.561  0.00  0.00    +0.000 A 
ATOM     15  C   UNL     1       5.799  14.809  17.824  0.00  0.00    +0.000 A 
ATOM     16  C   UNL     1       7.134  15.211  17.750  0.00  0.00    +0.000 A 
ATOM     17  C   UNL     1       7.552  16.369  18.404  0.00  0.00    +0.000 A 
ATOM     18  C   UNL     1       6.640  17.125  19.143  0.00  0.00    +0.000 A 
ATOM     19  C   UNL     1       5.310  16.712  19.225  0.00  0.00    +0.000 A 
ATOM     20  F   UNL     1       4.476  17.450  19.970  0.00  0.00    +0.000 F 
ENDBRANCH   7  14
BRANCH   5  21
ATOM     21  N   UNL     1       2.116  11.909  19.148  0.00  0.00    +0.000 N 
ATOM     22  C   UNL     1       1.090  11.020  18.929  0.00  0.00    +0.000 C 
ATOM     23  O   UNL     1       0.003  11.373  18.493  0.00  0.00    +0.000 OA
ATOM     24  H   UNL     1       2.999  11.635  19.543  0.00  0.00    +0.000 HD
BRANCH  22  25
ATOM     25  C   UNL     1       1.377   9.593  19.275  0.00  0.00    +0.000 A 
ATOM     26  C   UNL     1       2.038   8.786  18.330  0.00  0.00    +0.000 A 
ATOM     27  C   UNL     1       2.348   7.453  18.612  0.00  0.00    +0.000 A 
ATOM     28  C   UNL     1       2.022   6.913  19.850  0.00  0.00    +0.000 A 
ATOM     29  C   UNL     1       1.379   7.701  20.804  0.00  0.00    +0.000 A 
ATOM     30  C   UNL     1       1.048   9.037  20.522  0.00  0.00    +0.000 A 
ATOM     31 BR   UNL     1       0.104   9.963  21.889  0.00  0.00    +0.000 Br
ENDBRANCH  22  25
ENDBRANCH   5  21
TORSDOF 3
ENDMDL
MODEL 2
REMARK VINA RESULT:      -7.1      3.816      6.829
REMARK  Name = 
REMARK  4 active torsions:
REMARK  status: ('A' for Active; 'I' for Inactive)
REMARK    1  A    between atoms: C_1  and  N_2
REMARK    2  A    between atoms: C_5  and  N_6
REMARK    3  A    between atoms: C_7  and  C_9
REMARK    4  A    between atoms: C_17  and  C_18
REMARK                            x       y       z     vdW  Elec       q    Type
REMARK                         _______ _______ _______ _____ _____    ______ ____
ROOT
ATOM      1  C   UNL     1       2.427  13.705  18.621  0.00  0.00    +0.000 C 
ATOM      2  N   UNL     1       1.709  12.499  19.025  0.00  0.00    +0.000 N 
ATOM      3  C   UNL     1       2.063  11.290  18.404  0.00  0.00    +0.000 C 
ATOM      4  O   UNL     1       2.937  11.236  17.529  0.00  0.00    +0.000 OA
ATOM      5  C   UNL     1       1.306  10.018  18.881  0.00  0.00    +0.000 C 
ATOM      6  N   UNL     1      -0.045  10.085  18.350  0.00  0.00    +0.000 NA
ATOM      7  C   UNL     1      -0.863  10.947  18.854  0.00  0.00    +0.000 C 
ATOM      8  C   UNL     1      -0.527  11.878  19.972  0.00  0.00    +0.000 A 
ATOM      9  C   UNL     1      -1.500  12.058  20.977  0.00  0.00    +0.000 A 
ATOM     10  C   UNL     1      -1.328  13.007  21.982  0.00  0.00    +0.000 A 
ATOM     11  C   UNL     1      -0.169  13.767  22.008  0.00  0.00    +0.000 A 
ATOM     12  C   UNL     1       0.812  13.580  21.029  0.00  0.00    +0.000 A 
ATOM     13  C   UNL     1       0.664  12.631  19.998  0.00  0.00    +0.000 A 
ENDROOT
BRANCH   7  14
ATOM     14  C   UNL     1      -2.243  10.966  18.269  0.00  0.00    +0.000 A 
ATOM     15  C   UNL     1      -3.214  11.775  18.883  0.00  0.00    +0.000 A 
ATOM     16  C   UNL     1      -4.516  11.815  18.377  0.00  0.00    +0.000 A 
ATOM     17  C   UNL     1      -4.854  11.055  17.259  0.00  0.00    +0.000 A 
ATOM     18  C   UNL     1      -3.896  10.245  16.646  0.00  0.00    +0.000 A 
ATOM     19  C   UNL     1      -2.601  10.198  17.163  0.00  0.00    +0.000 A 
ATOM     20  F   UNL     1      -1.723   9.382  16.563  0.00  0.00    +0.000 F 
ENDBRANCH   7  14
BRANCH   5  21
ATOM     21  N   UNL     1       1.849   8.825  18.283  0.00  0.00    +0.000 N 
ATOM     22  C   UNL     1       2.247   7.751  19.043  0.00  0.00    +0.000 C 
ATOM     23  O   UNL     1       2.052   7.698  20.250  0.00  0.00    +0.000 OA
ATOM     24  H   UNL     1       2.039   8.896  17.298  0.00  0.00    +0.000 HD
BRANCH  22  25
ATOM     25  C   UNL     1       2.951   6.655  18.308  0.00  0.00    +0.000 A 
ATOM     26  C   UNL     1       3.911   6.999  17.337  0.00  0.00    +0.000 A 
ATOM     27  C   UNL     1       4.612   6.013  16.637  0.00  0.00    +0.000 A 
ATOM     28  C   UNL     1       4.381   4.671  16.911  0.00  0.00    +0.000 A 
ATOM     29  C   UNL     1       3.442   4.312  17.878  0.00  0.00    +0.000 A 
ATOM     30  C   UNL     1       2.721   5.295  18.575  0.00  0.00    +0.000 A 
ATOM     31 BR   UNL     1       1.422   4.654  19.807  0.00  0.00    +0.000 Br
ENDBRANCH  22  25
ENDBRANCH   5  21
TORSDOF 3
ENDMDL
MODEL 3
REMARK VINA RESULT:      -7.1      3.812      6.929
REMARK  Name = 
REMARK  4 active torsions:
REMARK  status: ('A' for Active; 'I' for Inactive)
REMARK    1  A    between atoms: C_1  and  N_2
REMARK    2  A    between atoms: C_5  and  N_6
REMARK    3  A    between atoms: C_7  and  C_9
REMARK    4  A    between atoms: C_17  and  C_18
REMARK                            x       y       z     vdW  Elec       q    Type
REMARK                         _______ _______ _______ _____ _____    ______ ____
ROOT
ATOM      1  C   UNL     1       2.554  13.347  18.605  0.00  0.00    +0.000 C 
ATOM      2  N   UNL     1       1.851  12.104  18.912  0.00  0.00    +0.000 N 
ATOM      3  C   UNL     1       2.250  10.943  18.231  0.00  0.00    +0.000 C 
ATOM      4  O   UNL     1       3.150  10.960  17.382  0.00  0.00    +0.000 OA
ATOM      5  C   UNL     1       1.507   9.629  18.606  0.00  0.00    +0.000 C 
ATOM      6  N   UNL     1       0.171   9.701  18.038  0.00  0.00    +0.000 NA
ATOM      7  C   UNL     1      -0.680  10.513  18.568  0.00  0.00    +0.000 C 
ATOM      8  C   UNL     1      -0.398  11.381  19.751  0.00  0.00    +0.000 A 
ATOM      9  C   UNL     1      -1.405  11.479  20.734  0.00  0.00    +0.000 A 
ATOM     10  C   UNL     1      -1.284  12.367  21.799  0.00  0.00    +0.000 A 
ATOM     11  C   UNL     1      -0.143  13.148  21.907  0.00  0.00    +0.000 A 
ATOM     12  C   UNL     1       0.870  13.042  20.949  0.00  0.00    +0.000 A 
ATOM     13  C   UNL     1       0.775  12.155  19.859  0.00  0.00    +0.000 A 
ENDROOT
BRANCH   7  14
ATOM     14  C   UNL     1      -2.042  10.540  17.943  0.00  0.00    +0.000 A 
ATOM     15  C   UNL     1      -2.942   9.510  18.265  0.00  0.00    +0.000 A 
ATOM     16  C   UNL     1      -4.218   9.491  17.698  0.00  0.00    +0.000 A 
ATOM     17  C   UNL     1      -4.604  10.495  16.812  0.00  0.00    +0.000 A 
ATOM     18  C   UNL     1      -3.714  11.519  16.482  0.00  0.00    +0.000 A 
ATOM     19  C   UNL     1      -2.436  11.528  17.041  0.00  0.00    +0.000 A 
ATOM     20  F   UNL     1      -1.604  12.511  16.672  0.00  0.00    +0.000 F 
ENDBRANCH   7  14
BRANCH   5  21
ATOM     21  N   UNL     1       2.094   8.486  17.954  0.00  0.00    +0.000 N 
ATOM     22  C   UNL     1       2.567   7.409  18.667  0.00  0.00    +0.000 C 
ATOM     23  O   UNL     1       2.408   7.307  19.875  0.00  0.00    +0.000 OA
ATOM     24  H   UNL     1       2.254   8.599  16.967  0.00  0.00    +0.000 HD
BRANCH  22  25
ATOM     25  C   UNL     1       3.306   6.376  17.877  0.00  0.00    +0.000 A 
ATOM     26  C   UNL     1       4.376   6.787  17.059  0.00  0.00    +0.000 A 
ATOM     27  C   UNL     1       5.113   5.859  16.317  0.00  0.00    +0.000 A 
ATOM     28  C   UNL     1       4.805   4.506  16.398  0.00  0.00    +0.000 A 
ATOM     29  C   UNL     1       3.756   4.080  17.212  0.00  0.00    +0.000 A 
ATOM     30  C   UNL     1       3.001   5.007  17.948  0.00  0.00    +0.000 A 
ATOM     31 BR   UNL     1       1.555   4.288  18.953  0.00  0.00    +0.000 Br
ENDBRANCH  22  25
ENDBRANCH   5  21
TORSDOF 3
ENDMDL
MODEL 4
REMARK VINA RESULT:      -7.0      1.447      1.999
REMARK  Name = 
REMARK  4 active torsions:
REMARK  status: ('A' for Active; 'I' for Inactive)
REMARK    1  A    between atoms: C_1  and  N_2
REMARK    2  A    between atoms: C_5  and  N_6
REMARK    3  A    between atoms: C_7  and  C_9
REMARK    4  A    between atoms: C_17  and  C_18
REMARK                            x       y       z     vdW  Elec       q    Type
REMARK                         _______ _______ _______ _____ _____    ______ ____
ROOT
ATOM      1  C   UNL     1      -1.093  14.557  22.428  0.00  0.00    +0.000 C 
ATOM      2  N   UNL     1      -0.372  14.368  21.172  0.00  0.00    +0.000 N 
ATOM      3  C   UNL     1       0.303  13.151  20.984  0.00  0.00    +0.000 C 
ATOM      4  O   UNL     1       0.314  12.269  21.851  0.00  0.00    +0.000 OA
ATOM      5  C   UNL     1       1.031  12.966  19.622  0.00  0.00    +0.000 C 
ATOM      6  N   UNL     1       2.214  13.810  19.636  0.00  0.00    +0.000 NA
ATOM      7  C   UNL     1       2.059  15.089  19.553  0.00  0.00    +0.000 C 
ATOM      8  C   UNL     1       0.739  15.774  19.420  0.00  0.00    +0.000 A 
ATOM      9  C   UNL     1       0.657  16.845  18.505  0.00  0.00    +0.000 A 
ATOM     10  C   UNL     1      -0.492  17.625  18.415  0.00  0.00    +0.000 A 
ATOM     11  C   UNL     1      -1.582  17.327  19.219  0.00  0.00    +0.000 A 
ATOM     12  C   UNL     1      -1.518  16.253  20.112  0.00  0.00    +0.000 A 
ATOM     13  C   UNL     1      -0.368  15.448  20.229  0.00  0.00    +0.000 A 
ENDROOT
BRANCH   7  14
ATOM     14  C   UNL     1       3.315  15.906  19.569  0.00  0.00    +0.000 A 
ATOM     15  C   UNL     1       3.612  16.647  20.725  0.00  0.00    +0.000 A 
ATOM     16  C   UNL     1       4.768  17.431  20.778  0.00  0.00    +0.000 A 
ATOM     17  C   UNL     1       5.631  17.478  19.685  0.00  0.00    +0.000 A 
ATOM     18  C   UNL     1       5.341  16.748  18.531  0.00  0.00    +0.000 A 
ATOM     19  C   UNL     1       4.179  15.977  18.477  0.00  0.00    +0.000 A 
ATOM     20  F   UNL     1       3.923  15.320  17.338  0.00  0.00    +0.000 F 
ENDBRANCH   7  14
BRANCH   5  21
ATOM     21  N   UNL     1       1.563  11.634  19.484  0.00  0.00    +0.000 N 
ATOM     22  C   UNL     1       0.829  10.615  18.924  0.00  0.00    +0.000 C 
ATOM     23  O   UNL     1      -0.261  10.807  18.404  0.00  0.00    +0.000 OA
ATOM     24  H   UNL     1       2.442  11.481  19.949  0.00  0.00    +0.000 HD
BRANCH  22  25
ATOM     25  C   UNL     1       1.438   9.251  19.004  0.00  0.00    +0.000 A 
ATOM     26  C   UNL     1       2.208   8.788  17.920  0.00  0.00    +0.000 A 
ATOM     27  C   UNL     1       2.816   7.530  17.955  0.00  0.00    +0.000 A 
ATOM     28  C   UNL     1       2.681   6.725  19.079  0.00  0.00    +0.000 A 
ATOM     29  C   UNL     1       1.932   7.173  20.167  0.00  0.00    +0.000 A 
ATOM     30  C   UNL     1       1.305   8.429  20.135  0.00  0.00    +0.000 A 
ATOM     31 BR   UNL     1       0.254   8.870  21.658  0.00  0.00    +0.000 Br
ENDBRANCH  22  25
ENDBRANCH   5  21
TORSDOF 3
ENDMDL
MODEL 5
REMARK VINA RESULT:      -6.8      1.151      1.481
REMARK  Name = 
REMARK  4 active torsions:
REMARK  status: ('A' for Active; 'I' for Inactive)
REMARK    1  A    between atoms: C_1  and  N_2
REMARK    2  A    between atoms: C_5  and  N_6
REMARK    3  A    between atoms: C_7  and  C_9
REMARK    4  A    between atoms: C_17  and  C_18
REMARK                            x       y       z     vdW  Elec       q    Type
REMARK                         _______ _______ _______ _____ _____    ______ ____
ROOT
ATOM      1  C   UNL     1      -1.061  15.029  22.245  0.00  0.00    +0.000 C 
ATOM      2  N   UNL     1      -0.319  14.724  21.025  0.00  0.00    +0.000 N 
ATOM      3  C   UNL     1       0.298  13.465  20.934  0.00  0.00    +0.000 C 
ATOM      4  O   UNL     1       0.241  12.642  21.856  0.00  0.00    +0.000 OA
ATOM      5  C   UNL     1       1.049  13.156  19.608  0.00  0.00    +0.000 C 
ATOM      6  N   UNL     1       2.273  13.940  19.602  0.00  0.00    +0.000 NA
ATOM      7  C   UNL     1       2.186  15.216  19.433  0.00  0.00    +0.000 C 
ATOM      8  C   UNL     1       0.906  15.955  19.219  0.00  0.00    +0.000 A 
ATOM      9  C   UNL     1       0.902  16.967  18.236  0.00  0.00    +0.000 A 
ATOM     10  C   UNL     1      -0.203  17.796  18.063  0.00  0.00    +0.000 A 
ATOM     11  C   UNL     1      -1.327  17.605  18.853  0.00  0.00    +0.000 A 
ATOM     12  C   UNL     1      -1.340  16.590  19.815  0.00  0.00    +0.000 A 
ATOM     13  C   UNL     1      -0.236  15.738  20.016  0.00  0.00    +0.000 A 
ENDROOT
BRANCH   7  14
ATOM     14  C   UNL     1       3.481  15.970  19.432  0.00  0.00    +0.000 A 
ATOM     15  C   UNL     1       4.436  15.649  18.453  0.00  0.00    +0.000 A 
ATOM     16  C   UNL     1       5.662  16.320  18.421  0.00  0.00    +0.000 A 
ATOM     17  C   UNL     1       5.939  17.312  19.359  0.00  0.00    +0.000 A 
ATOM     18  C   UNL     1       4.997  17.634  20.339  0.00  0.00    +0.000 A 
ATOM     19  C   UNL     1       3.780  16.952  20.375  0.00  0.00    +0.000 A 
ATOM     20  F   UNL     1       2.920  17.270  21.351  0.00  0.00    +0.000 F 
ENDBRANCH   7  14
BRANCH   5  21
ATOM     21  N   UNL     1       1.516  11.793  19.570  0.00  0.00    +0.000 N 
ATOM     22  C   UNL     1       0.739  10.775  19.070  0.00  0.00    +0.000 C 
ATOM     23  O   UNL     1      -0.335  10.983  18.522  0.00  0.00    +0.000 OA
ATOM     24  H   UNL     1       2.380  11.630  20.058  0.00  0.00    +0.000 HD
BRANCH  22  25
ATOM     25  C   UNL     1       1.277   9.392  19.254  0.00  0.00    +0.000 A 
ATOM     26  C   UNL     1       2.023   8.811  18.210  0.00  0.00    +0.000 A 
ATOM     27  C   UNL     1       2.566   7.530  18.340  0.00  0.00    +0.000 A 
ATOM     28  C   UNL     1       2.391   6.819  19.521  0.00  0.00    +0.000 A 
ATOM     29  C   UNL     1       1.666   7.383  20.570  0.00  0.00    +0.000 A 
ATOM     30  C   UNL     1       1.103   8.663  20.442  0.00  0.00    +0.000 A 
ATOM     31 BR   UNL     1       0.076   9.269  21.924  0.00  0.00    +0.000 Br
ENDBRANCH  22  25
ENDBRANCH   5  21
TORSDOF 3
ENDMDL
MODEL 6
REMARK VINA RESULT:      -6.7      4.106      7.076
REMARK  Name = 
REMARK  4 active torsions:
REMARK  status: ('A' for Active; 'I' for Inactive)
REMARK    1  A    between atoms: C_1  and  N_2
REMARK    2  A    between atoms: C_5  and  N_6
REMARK    3  A    between atoms: C_7  and  C_9
REMARK    4  A    between atoms: C_17  and  C_18
REMARK                            x       y       z     vdW  Elec       q    Type
REMARK                         _______ _______ _______ _____ _____    ______ ____
ROOT
ATOM      1  C   UNL     1       2.526  13.274  18.599  0.00  0.00    +0.000 C 
ATOM      2  N   UNL     1       1.781  12.041  18.836  0.00  0.00    +0.000 N 
ATOM      3  C   UNL     1       2.212  10.879  18.175  0.00  0.00    +0.000 C 
ATOM      4  O   UNL     1       3.176  10.889  17.399  0.00  0.00    +0.000 OA
ATOM      5  C   UNL     1       1.420   9.575  18.477  0.00  0.00    +0.000 C 
ATOM      6  N   UNL     1       0.134   9.676  17.808  0.00  0.00    +0.000 NA
ATOM      7  C   UNL     1      -0.742  10.498  18.279  0.00  0.00    +0.000 C 
ATOM      8  C   UNL     1      -0.538  11.348  19.490  0.00  0.00    +0.000 A 
ATOM      9  C   UNL     1      -1.616  11.454  20.393  0.00  0.00    +0.000 A 
ATOM     10  C   UNL     1      -1.563  12.330  21.474  0.00  0.00    +0.000 A 
ATOM     11  C   UNL     1      -0.421  13.090  21.680  0.00  0.00    +0.000 A 
ATOM     12  C   UNL     1       0.661  12.975  20.802  0.00  0.00    +0.000 A 
ATOM     13  C   UNL     1       0.636  12.100  19.697  0.00  0.00    +0.000 A 
ENDROOT
BRANCH   7  14
ATOM     14  C   UNL     1      -2.051  10.555  17.551  0.00  0.00    +0.000 A 
ATOM     15  C   UNL     1      -2.196  11.495  16.517  0.00  0.00    +0.000 A 
ATOM     16  C   UNL     1      -3.402  11.589  15.819  0.00  0.00    +0.000 A 
ATOM     17  C   UNL     1      -4.465  10.748  16.143  0.00  0.00    +0.000 A 
ATOM     18  C   UNL     1      -4.330   9.814  17.172  0.00  0.00    +0.000 A 
ATOM     19  C   UNL     1      -3.128   9.732  17.876  0.00  0.00    +0.000 A 
ATOM     20  F   UNL     1      -3.054   8.844  18.877  0.00  0.00    +0.000 F 
ENDBRANCH   7  14
BRANCH   5  21
ATOM     21  N   UNL     1       2.037   8.428  17.859  0.00  0.00    +0.000 N 
ATOM     22  C   UNL     1       2.564   7.400  18.605  0.00  0.00    +0.000 C 
ATOM     23  O   UNL     1       2.433   7.342  19.820  0.00  0.00    +0.000 OA
ATOM     24  H   UNL     1       2.173   8.506  16.866  0.00  0.00    +0.000 HD
BRANCH  22  25
ATOM     25  C   UNL     1       3.326   6.363  17.842  0.00  0.00    +0.000 A 
ATOM     26  C   UNL     1       4.408   6.772  17.039  0.00  0.00    +0.000 A 
ATOM     27  C   UNL     1       5.165   5.841  16.323  0.00  0.00    +0.000 A 
ATOM     28  C   UNL     1       4.867   4.487  16.415  0.00  0.00    +0.000 A 
ATOM     29  C   UNL     1       3.806   4.063  17.215  0.00  0.00    +0.000 A 
ATOM     30  C   UNL     1       3.030   4.993  17.925  0.00  0.00    +0.000 A 
ATOM     31 BR   UNL     1       1.571   4.274  18.911  0.00  0.00    +0.000 Br
ENDBRANCH  22  25
ENDBRANCH   5  21
TORSDOF 3
ENDMDL
MODEL 7
REMARK VINA RESULT:      -6.7      4.802      7.881
REMARK  Name = 
REMARK  4 active torsions:
REMARK  status: ('A' for Active; 'I' for Inactive)
REMARK    1  A    between atoms: C_1  and  N_2
REMARK    2  A    between atoms: C_5  and  N_6
REMARK    3  A    between atoms: C_7  and  C_9
REMARK    4  A    between atoms: C_17  and  C_18
REMARK                            x       y       z     vdW  Elec       q    Type
REMARK                         _______ _______ _______ _____ _____    ______ ____
ROOT
ATOM      1  C   UNL     1       9.951  16.978  19.776  0.00  0.00    +0.000 C 
ATOM      2  N   UNL     1       9.042  15.853  19.974  0.00  0.00    +0.000 N 
ATOM      3  C   UNL     1       7.662  16.117  19.956  0.00  0.00    +0.000 C 
ATOM      4  O   UNL     1       7.219  17.262  19.800  0.00  0.00    +0.000 OA
ATOM      5  C   UNL     1       6.720  14.893  20.133  0.00  0.00    +0.000 C 
ATOM      6  N   UNL     1       6.790  14.481  21.525  0.00  0.00    +0.000 NA
ATOM      7  C   UNL     1       7.866  13.905  21.943  0.00  0.00    +0.000 C 
ATOM      8  C   UNL     1       9.053  13.607  21.087  0.00  0.00    +0.000 A 
ATOM      9  C   UNL     1       9.670  12.349  21.254  0.00  0.00    +0.000 A 
ATOM     10  C   UNL     1      10.858  12.040  20.598  0.00  0.00    +0.000 A 
ATOM     11  C   UNL     1      11.429  12.974  19.747  0.00  0.00    +0.000 A 
ATOM     12  C   UNL     1      10.813  14.215  19.558  0.00  0.00    +0.000 A 
ATOM     13  C   UNL     1       9.612  14.559  20.211  0.00  0.00    +0.000 A 
ENDROOT
BRANCH   7  14
ATOM     14  C   UNL     1       7.878  13.499  23.386  0.00  0.00    +0.000 A 
ATOM     15  C   UNL     1       8.573  14.310  24.299  0.00  0.00    +0.000 A 
ATOM     16  C   UNL     1       8.618  13.963  25.652  0.00  0.00    +0.000 A 
ATOM     17  C   UNL     1       7.971  12.813  26.100  0.00  0.00    +0.000 A 
ATOM     18  C   UNL     1       7.282  11.999  25.198  0.00  0.00    +0.000 A 
ATOM     19  C   UNL     1       7.251  12.342  23.846  0.00  0.00    +0.000 A 
ATOM     20  F   UNL     1       6.606  11.516  23.011  0.00  0.00    +0.000 F 
ENDBRANCH   7  14
BRANCH   5  21
ATOM     21  N   UNL     1       5.338  15.261  19.955  0.00  0.00    +0.000 N 
ATOM     22  C   UNL     1       4.660  14.987  18.790  0.00  0.00    +0.000 C 
ATOM     23  O   UNL     1       5.150  14.315  17.894  0.00  0.00    +0.000 OA
ATOM     24  H   UNL     1       4.960  15.846  20.681  0.00  0.00    +0.000 HD
BRANCH  22  25
ATOM     25  C   UNL     1       3.291  15.579  18.677  0.00  0.00    +0.000 A 
ATOM     26  C   UNL     1       3.121  16.756  17.923  0.00  0.00    +0.000 A 
ATOM     27  C   UNL     1       1.860  17.336  17.769  0.00  0.00    +0.000 A 
ATOM     28  C   UNL     1       0.746  16.739  18.347  0.00  0.00    +0.000 A 
ATOM     29  C   UNL     1       0.893  15.566  19.086  0.00  0.00    +0.000 A 
ATOM     30  C   UNL     1       2.159  14.985  19.260  0.00  0.00    +0.000 A 
ATOM     31 BR   UNL     1       2.215  13.432  20.357  0.00  0.00    +0.000 Br
ENDBRANCH  22  25
ENDBRANCH   5  21
TORSDOF 3
ENDMDL
MODEL 8
REMARK VINA RESULT:      -6.7      2.112      2.871
REMARK  Name = 
REMARK  4 active torsions:
REMARK  status: ('A' for Active; 'I' for Inactive)
REMARK    1  A    between atoms: C_1  and  N_2
REMARK    2  A    between atoms: C_5  and  N_6
REMARK    3  A    between atoms: C_7  and  C_9
REMARK    4  A    between atoms: C_17  and  C_18
REMARK                            x       y       z     vdW  Elec       q    Type
REMARK                         _______ _______ _______ _____ _____    ______ ____
ROOT
ATOM      1  C   UNL     1      -1.774  17.955  20.249  0.00  0.00    +0.000 C 
ATOM      2  N   UNL     1      -0.762  17.044  19.720  0.00  0.00    +0.000 N 
ATOM      3  C   UNL     1      -0.539  15.843  20.414  0.00  0.00    +0.000 C 
ATOM      4  O   UNL     1      -1.154  15.564  21.450  0.00  0.00    +0.000 OA
ATOM      5  C   UNL     1       0.518  14.878  19.806  0.00  0.00    +0.000 C 
ATOM      6  N   UNL     1       1.830  15.453  20.046  0.00  0.00    +0.000 NA
ATOM      7  C   UNL     1       2.177  16.500  19.375  0.00  0.00    +0.000 C 
ATOM      8  C   UNL     1       1.326  17.159  18.339  0.00  0.00    +0.000 A 
ATOM      9  C   UNL     1       1.964  17.581  17.153  0.00  0.00    +0.000 A 
ATOM     10  C   UNL     1       1.279  18.323  16.195  0.00  0.00    +0.000 A 
ATOM     11  C   UNL     1      -0.058  18.629  16.399  0.00  0.00    +0.000 A 
ATOM     12  C   UNL     1      -0.704  18.197  17.562  0.00  0.00    +0.000 A 
ATOM     13  C   UNL     1      -0.037  17.447  18.551  0.00  0.00    +0.000 A 
ENDROOT
BRANCH   7  14
ATOM     14  C   UNL     1       3.543  17.045  19.663  0.00  0.00    +0.000 A 
ATOM     15  C   UNL     1       3.672  18.015  20.671  0.00  0.00    +0.000 A 
ATOM     16  C   UNL     1       4.926  18.558  20.965  0.00  0.00    +0.000 A 
ATOM     17  C   UNL     1       6.053  18.136  20.262  0.00  0.00    +0.000 A 
ATOM     18  C   UNL     1       5.931  17.175  19.255  0.00  0.00    +0.000 A 
ATOM     19  C   UNL     1       4.676  16.646  18.955  0.00  0.00    +0.000 A 
ATOM     20  F   UNL     1       4.601  15.752  17.961  0.00  0.00    +0.000 F 
ENDBRANCH   7  14
BRANCH   5  21
ATOM     21  N   UNL     1       0.559  13.625  20.516  0.00  0.00    +0.000 N 
ATOM     22  C   UNL     1      -0.302  12.595  20.218  0.00  0.00    +0.000 C 
ATOM     23  O   UNL     1      -1.063  12.638  19.262  0.00  0.00    +0.000 OA
ATOM     24  H   UNL     1       1.161  13.617  21.322  0.00  0.00    +0.000 HD
BRANCH  22  25
ATOM     25  C   UNL     1      -0.265  11.423  21.147  0.00  0.00    +0.000 A 
ATOM     26  C   UNL     1       0.507  10.301  20.791  0.00  0.00    +0.000 A 
ATOM     27  C   UNL     1       0.592   9.189  21.633  0.00  0.00    +0.000 A 
ATOM     28  C   UNL     1      -0.074   9.190  22.853  0.00  0.00    +0.000 A 
ATOM     29  C   UNL     1      -0.833  10.299  23.228  0.00  0.00    +0.000 A 
ATOM     30  C   UNL     1      -0.937  11.413  22.380  0.00  0.00    +0.000 A 
ATOM     31 BR   UNL     1      -2.069  12.815  22.989  0.00  0.00    +0.000 Br
ENDBRANCH  22  25
ENDBRANCH   5  21
TORSDOF 3
ENDMDL
MODEL 9
REMARK VINA RESULT:      -6.6      4.104      7.012
REMARK  Name = 
REMARK  4 active torsions:
REMARK  status: ('A' for Active; 'I' for Inactive)
REMARK    1  A    between atoms: C_1  and  N_2
REMARK    2  A    between atoms: C_5  and  N_6
REMARK    3  A    between atoms: C_7  and  C_9
REMARK    4  A    between atoms: C_17  and  C_18
REMARK                            x       y       z     vdW  Elec       q    Type
REMARK                         _______ _______ _______ _____ _____    ______ ____
ROOT
ATOM      1  C   UNL     1       2.783  12.907  18.271  0.00  0.00    +0.000 C 
ATOM      2  N   UNL     1       1.885  11.861  18.752  0.00  0.00    +0.000 N 
ATOM      3  C   UNL     1       2.042  10.570  18.221  0.00  0.00    +0.000 C 
ATOM      4  O   UNL     1       2.893  10.318  17.360  0.00  0.00    +0.000 OA
ATOM      5  C   UNL     1       1.095   9.471  18.780  0.00  0.00    +0.000 C 
ATOM      6  N   UNL     1      -0.230   9.712  18.235  0.00  0.00    +0.000 NA
ATOM      7  C   UNL     1      -0.901  10.725  18.670  0.00  0.00    +0.000 C 
ATOM      8  C   UNL     1      -0.418  11.668  19.723  0.00  0.00    +0.000 A 
ATOM      9  C   UNL     1      -1.348  12.070  20.704  0.00  0.00    +0.000 A 
ATOM     10  C   UNL     1      -1.026  13.048  21.641  0.00  0.00    +0.000 A 
ATOM     11  C   UNL     1       0.239  13.617  21.623  0.00  0.00    +0.000 A 
ATOM     12  C   UNL     1       1.175  13.209  20.668  0.00  0.00    +0.000 A 
ATOM     13  C   UNL     1       0.877  12.224  19.705  0.00  0.00    +0.000 A 
ENDROOT
BRANCH   7  14
ATOM     14  C   UNL     1      -2.262  10.920  18.074  0.00  0.00    +0.000 A 
ATOM     15  C   UNL     1      -3.215  11.639  18.815  0.00  0.00    +0.000 A 
ATOM     16  C   UNL     1      -4.500  11.835  18.301  0.00  0.00    +0.000 A 
ATOM     17  C   UNL     1      -4.839  11.321  17.051  0.00  0.00    +0.000 A 
ATOM     18  C   UNL     1      -3.898  10.601  16.311  0.00  0.00    +0.000 A 
ATOM     19  C   UNL     1      -2.621  10.396  16.833  0.00  0.00    +0.000 A 
ATOM     20  F   UNL     1      -1.761   9.672  16.104  0.00  0.00    +0.000 F 
ENDBRANCH   7  14
BRANCH   5  21
ATOM     21  N   UNL     1       1.441   8.167  18.272  0.00  0.00    +0.000 N 
ATOM     22  C   UNL     1       2.079   7.232  19.053  0.00  0.00    +0.000 C 
ATOM     23  O   UNL     1       2.277   7.406  20.247  0.00  0.00    +0.000 OA
ATOM     24  H   UNL     1       1.309   8.052  17.282  0.00  0.00    +0.000 HD
BRANCH  22  25
ATOM     25  C   UNL     1       2.532   5.993  18.348  0.00  0.00    +0.000 A 
ATOM     26  C   UNL     1       1.705   4.854  18.380  0.00  0.00    +0.000 A 
ATOM     27  C   UNL     1       2.073   3.678  17.720  0.00  0.00    +0.000 A 
ATOM     28  C   UNL     1       3.261   3.629  17.001  0.00  0.00    +0.000 A 
ATOM     29  C   UNL     1       4.086   4.752  16.947  0.00  0.00    +0.000 A 
ATOM     30  C   UNL     1       3.733   5.932  17.621  0.00  0.00    +0.000 A 
ATOM     31 BR   UNL     1       4.993   7.353  17.522  0.00  0.00    +0.000 Br
ENDBRANCH  22  25
ENDBRANCH   5  21
TORSDOF 3
ENDMDL
