MODEL 1
REMARK VINA RESULT:      -9.2      0.000      0.000
REMARK  Name = 
REMARK  8 active torsions:
REMARK  status: ('A' for Active; 'I' for Inactive)
REMARK    1  A    between atoms: C_1  and  O_2
REMARK    2  A    between atoms: O_2  and  C_3
REMARK    3  A    between atoms: C_6  and  C_7
REMARK    4  A    between atoms: C_7  and  C_8
REMARK    5  A    between atoms: C_8  and  N_9
REMARK    6  A    between atoms: C_12  and  N_13
REMARK    7  A    between atoms: N_22  and  C_23
REMARK    8  A    between atoms: C_23  and  C_24
REMARK                            x       y       z     vdW  Elec       q    Type
REMARK                         _______ _______ _______ _____ _____    ______ ____
ROOT
ATOM      1  N   UNL     1       5.513   5.663  18.811  0.00  0.00    +0.000 N 
ATOM      2  C   UNL     1       4.545   4.725  18.906  0.00  0.00    +0.000 A 
ATOM      3  N   UNL     1       4.619   3.450  18.592  0.00  0.00    +0.000 NA
ATOM      4  C   UNL     1       3.354   2.956  18.739  0.00  0.00    +0.000 A 
ATOM      5  C   UNL     1       2.880   1.656  18.520  0.00  0.00    +0.000 A 
ATOM      6  C   UNL     1       1.504   1.429  18.600  0.00  0.00    +0.000 A 
ATOM      7  C   UNL     1       0.625   2.473  18.895  0.00  0.00    +0.000 A 
ATOM      8  C   UNL     1       1.092   3.759  19.205  0.00  0.00    +0.000 A 
ATOM      9  C   UNL     1       2.476   3.958  19.141  0.00  0.00    +0.000 A 
ATOM     10  N   UNL     1       3.319   5.004  19.453  0.00  0.00    +0.000 N 
ATOM     11  H   UNL     1       5.204   6.600  18.564  0.00  0.00    +0.000 HD
ENDROOT
BRANCH   1  15
ATOM     12  N   UNL     1       8.174   7.863  17.750  0.00  0.00    +0.000 NA
ATOM     13  C   UNL     1       8.023   7.293  19.100  0.00  0.00    +0.000 C 
ATOM     14  C   UNL     1       7.979   5.775  19.044  0.00  0.00    +0.000 C 
ATOM     15  C   UNL     1       6.798   5.299  18.201  0.00  0.00    +0.000 C 
ATOM     16  C   UNL     1       6.897   5.944  16.813  0.00  0.00    +0.000 C 
ATOM     17  C   UNL     1       7.036   7.467  16.901  0.00  0.00    +0.000 C 
BRANCH  12  18
ATOM     18  C   UNL     1       8.276   9.336  17.810  0.00  0.00    +0.000 C 
BRANCH  18  19
ATOM     19  C   UNL     1       9.135   9.821  18.990  0.00  0.00    +0.000 C 
BRANCH  19  23
ATOM     20  C   UNL     1      11.183  13.503  18.100  0.00  0.00    +0.000 A 
ATOM     21  C   UNL     1      11.761  12.566  18.957  0.00  0.00    +0.000 A 
ATOM     22  C   UNL     1      11.098  11.375  19.247  0.00  0.00    +0.000 A 
ATOM     23  C   UNL     1       9.840  11.116  18.689  0.00  0.00    +0.000 A 
ATOM     24  C   UNL     1       9.250  12.068  17.854  0.00  0.00    +0.000 A 
ATOM     25  C   UNL     1       9.920  13.256  17.560  0.00  0.00    +0.000 A 
BRANCH  20  27
ATOM     26  C   UNL     1      11.281  15.652  17.131  0.00  0.00    +0.000 C 
ATOM     27  O   UNL     1      11.923  14.636  17.892  0.00  0.00    +0.000 OA
ENDBRANCH  20  27
ENDBRANCH  19  23
ENDBRANCH  18  19
ENDBRANCH  12  18
ENDBRANCH   1  15
BRANCH  10  28
ATOM     28  C   UNL     1       3.042   6.103  20.370  0.00  0.00    +0.000 C 
BRANCH  28  29
ATOM     29  C   UNL     1       2.330   7.270  19.708  0.00  0.00    +0.000 A 
ATOM     30  C   UNL     1       2.468   7.557  18.336  0.00  0.00    +0.000 A 
ATOM     31  C   UNL     1       1.850   8.682  17.779  0.00  0.00    +0.000 A 
ATOM     32  C   UNL     1       1.100   9.531  18.586  0.00  0.00    +0.000 A 
ATOM     33  F   UNL     1       0.537  10.622  18.052  0.00  0.00    +0.000 F 
ATOM     34  C   UNL     1       0.938   9.266  19.938  0.00  0.00    +0.000 A 
ATOM     35  C   UNL     1       1.554   8.140  20.483  0.00  0.00    +0.000 A 
ATOM     36  F   UNL     1       1.396   7.900  21.792  0.00  0.00    +0.000 F 
ENDBRANCH  28  29
ENDBRANCH  10  28
TORSDOF 7
ENDMDL
MODEL 2
REMARK VINA RESULT:      -8.9      0.882      1.189
REMARK  Name = 
REMARK  8 active torsions:
REMARK  status: ('A' for Active; 'I' for Inactive)
REMARK    1  A    between atoms: C_1  and  O_2
REMARK    2  A    between atoms: O_2  and  C_3
REMARK    3  A    between atoms: C_6  and  C_7
REMARK    4  A    between atoms: C_7  and  C_8
REMARK    5  A    between atoms: C_8  and  N_9
REMARK    6  A    between atoms: C_12  and  N_13
REMARK    7  A    between atoms: N_22  and  C_23
REMARK    8  A    between atoms: C_23  and  C_24
REMARK                            x       y       z     vdW  Elec       q    Type
REMARK                         _______ _______ _______ _____ _____    ______ ____
ROOT
ATOM      1  N   UNL     1       5.292   5.844  18.343  0.00  0.00    +0.000 N 
ATOM      2  C   UNL     1       4.383   4.868  18.560  0.00  0.00    +0.000 A 
ATOM      3  N   UNL     1       4.466   3.597  18.234  0.00  0.00    +0.000 NA
ATOM      4  C   UNL     1       3.252   3.053  18.543  0.00  0.00    +0.000 A 
ATOM      5  C   UNL     1       2.806   1.735  18.382  0.00  0.00    +0.000 A 
ATOM      6  C   UNL     1       1.462   1.452  18.640  0.00  0.00    +0.000 A 
ATOM      7  C   UNL     1       0.588   2.461  19.053  0.00  0.00    +0.000 A 
ATOM      8  C   UNL     1       1.041   3.765  19.303  0.00  0.00    +0.000 A 
ATOM      9  C   UNL     1       2.395   4.019  19.060  0.00  0.00    +0.000 A 
ATOM     10  N   UNL     1       3.229   5.098  19.263  0.00  0.00    +0.000 N 
ATOM     11  H   UNL     1       4.917   6.768  18.142  0.00  0.00    +0.000 HD
ENDROOT
BRANCH   1  15
ATOM     12  N   UNL     1       8.408   7.669  18.248  0.00  0.00    +0.000 NA
ATOM     13  C   UNL     1       8.072   6.599  19.203  0.00  0.00    +0.000 C 
ATOM     14  C   UNL     1       7.711   5.316  18.474  0.00  0.00    +0.000 C 
ATOM     15  C   UNL     1       6.500   5.531  17.569  0.00  0.00    +0.000 C 
ATOM     16  C   UNL     1       6.803   6.693  16.616  0.00  0.00    +0.000 C 
ATOM     17  C   UNL     1       7.255   7.947  17.372  0.00  0.00    +0.000 C 
BRANCH  12  18
ATOM     18  C   UNL     1       8.815   8.899  18.958  0.00  0.00    +0.000 C 
BRANCH  18  19
ATOM     19  C   UNL     1       8.758  10.146  18.059  0.00  0.00    +0.000 C 
BRANCH  19  23
ATOM     20  C   UNL     1      10.700  13.551  19.844  0.00  0.00    +0.000 A 
ATOM     21  C   UNL     1      10.058  13.673  18.611  0.00  0.00    +0.000 A 
ATOM     22  C   UNL     1       9.432  12.571  18.031  0.00  0.00    +0.000 A 
ATOM     23  C   UNL     1       9.451  11.329  18.679  0.00  0.00    +0.000 A 
ATOM     24  C   UNL     1      10.119  11.202  19.899  0.00  0.00    +0.000 A 
ATOM     25  C   UNL     1      10.739  12.308  20.479  0.00  0.00    +0.000 A 
BRANCH  20  27
ATOM     26  C   UNL     1      12.333  15.220  19.508  0.00  0.00    +0.000 C 
ATOM     27  O   UNL     1      11.283  14.696  20.313  0.00  0.00    +0.000 OA
ENDBRANCH  20  27
ENDBRANCH  19  23
ENDBRANCH  18  19
ENDBRANCH  12  18
ENDBRANCH   1  15
BRANCH  10  28
ATOM     28  C   UNL     1       3.031   6.187  20.214  0.00  0.00    +0.000 C 
BRANCH  28  29
ATOM     29  C   UNL     1       2.284   7.369  19.621  0.00  0.00    +0.000 A 
ATOM     30  C   UNL     1       2.386   7.721  18.262  0.00  0.00    +0.000 A 
ATOM     31  C   UNL     1       1.736   8.859  17.770  0.00  0.00    +0.000 A 
ATOM     32  C   UNL     1       0.990   9.657  18.631  0.00  0.00    +0.000 A 
ATOM     33  F   UNL     1       0.396  10.760  18.161  0.00  0.00    +0.000 F 
ATOM     34  C   UNL     1       0.863   9.327  19.973  0.00  0.00    +0.000 A 
ATOM     35  C   UNL     1       1.510   8.189  20.452  0.00  0.00    +0.000 A 
ATOM     36  F   UNL     1       1.386   7.886  21.752  0.00  0.00    +0.000 F 
ENDBRANCH  28  29
ENDBRANCH  10  28
TORSDOF 7
ENDMDL
MODEL 3
REMARK VINA RESULT:      -8.2      1.323      1.614
REMARK  Name = 
REMARK  8 active torsions:
REMARK  status: ('A' for Active; 'I' for Inactive)
REMARK    1  A    between atoms: C_1  and  O_2
REMARK    2  A    between atoms: O_2  and  C_3
REMARK    3  A    between atoms: C_6  and  C_7
REMARK    4  A    between atoms: C_7  and  C_8
REMARK    5  A    between atoms: C_8  and  N_9
REMARK    6  A    between atoms: C_12  and  N_13
REMARK    7  A    between atoms: N_22  and  C_23
REMARK    8  A    between atoms: C_23  and  C_24
REMARK                            x       y       z     vdW  Elec       q    Type
REMARK                         _______ _______ _______ _____ _____    ______ ____
ROOT
ATOM      1  N   UNL     1       5.328   6.070  18.270  0.00  0.00    +0.000 N 
ATOM      2  C   UNL     1       4.458   5.057  18.478  0.00  0.00    +0.000 A 
ATOM      3  N   UNL     1       4.588   3.795  18.136  0.00  0.00    +0.000 NA
ATOM      4  C   UNL     1       3.397   3.201  18.441  0.00  0.00    +0.000 A 
ATOM      5  C   UNL     1       3.001   1.869  18.266  0.00  0.00    +0.000 A 
ATOM      6  C   UNL     1       1.670   1.532  18.525  0.00  0.00    +0.000 A 
ATOM      7  C   UNL     1       0.760   2.502  18.952  0.00  0.00    +0.000 A 
ATOM      8  C   UNL     1       1.163   3.818  19.218  0.00  0.00    +0.000 A 
ATOM      9  C   UNL     1       2.505   4.127  18.973  0.00  0.00    +0.000 A 
ATOM     10  N   UNL     1       3.298   5.235  19.187  0.00  0.00    +0.000 N 
ATOM     11  H   UNL     1       4.917   6.981  18.082  0.00  0.00    +0.000 HD
ENDROOT
BRANCH   1  15
ATOM     12  N   UNL     1       8.391   7.985  18.228  0.00  0.00    +0.000 NA
ATOM     13  C   UNL     1       8.086   6.879  19.153  0.00  0.00    +0.000 C 
ATOM     14  C   UNL     1       7.761   5.607  18.388  0.00  0.00    +0.000 C 
ATOM     15  C   UNL     1       6.544   5.813  17.488  0.00  0.00    +0.000 C 
ATOM     16  C   UNL     1       6.814   7.009  16.568  0.00  0.00    +0.000 C 
ATOM     17  C   UNL     1       7.231   8.254  17.359  0.00  0.00    +0.000 C 
BRANCH  12  18
ATOM     18  C   UNL     1       8.764   9.205  18.972  0.00  0.00    +0.000 C 
BRANCH  18  19
ATOM     19  C   UNL     1       9.452  10.253  18.080  0.00  0.00    +0.000 C 
BRANCH  19  23
ATOM     20  C   UNL     1       8.238  14.260  19.089  0.00  0.00    +0.000 A 
ATOM     21  C   UNL     1       7.928  13.725  17.838  0.00  0.00    +0.000 A 
ATOM     22  C   UNL     1       8.323  12.429  17.510  0.00  0.00    +0.000 A 
ATOM     23  C   UNL     1       9.043  11.658  18.431  0.00  0.00    +0.000 A 
ATOM     24  C   UNL     1       9.377  12.206  19.672  0.00  0.00    +0.000 A 
ATOM     25  C   UNL     1       8.975  13.500  20.000  0.00  0.00    +0.000 A 
BRANCH  20  27
ATOM     26  C   UNL     1       8.123  16.468  18.268  0.00  0.00    +0.000 C 
ATOM     27  O   UNL     1       7.804  15.541  19.298  0.00  0.00    +0.000 OA
ENDBRANCH  20  27
ENDBRANCH  19  23
ENDBRANCH  18  19
ENDBRANCH  12  18
ENDBRANCH   1  15
BRANCH  10  28
ATOM     28  C   UNL     1       3.062   6.303  20.152  0.00  0.00    +0.000 C 
BRANCH  28  29
ATOM     29  C   UNL     1       2.264   7.461  19.578  0.00  0.00    +0.000 A 
ATOM     30  C   UNL     1       2.323   7.816  18.216  0.00  0.00    +0.000 A 
ATOM     31  C   UNL     1       1.625   8.932  17.741  0.00  0.00    +0.000 A 
ATOM     32  C   UNL     1       0.875   9.706  18.620  0.00  0.00    +0.000 A 
ATOM     33  F   UNL     1       0.235  10.790  18.164  0.00  0.00    +0.000 F 
ATOM     34  C   UNL     1       0.790   9.372  19.964  0.00  0.00    +0.000 A 
ATOM     35  C   UNL     1       1.484   8.256  20.427  0.00  0.00    +0.000 A 
ATOM     36  F   UNL     1       1.401   7.950  21.729  0.00  0.00    +0.000 F 
ENDBRANCH  28  29
ENDBRANCH  10  28
TORSDOF 7
ENDMDL
MODEL 4
REMARK VINA RESULT:      -8.2      1.206      1.936
REMARK  Name = 
REMARK  8 active torsions:
REMARK  status: ('A' for Active; 'I' for Inactive)
REMARK    1  A    between atoms: C_1  and  O_2
REMARK    2  A    between atoms: O_2  and  C_3
REMARK    3  A    between atoms: C_6  and  C_7
REMARK    4  A    between atoms: C_7  and  C_8
REMARK    5  A    between atoms: C_8  and  N_9
REMARK    6  A    between atoms: C_12  and  N_13
REMARK    7  A    between atoms: N_22  and  C_23
REMARK    8  A    between atoms: C_23  and  C_24
REMARK                            x       y       z     vdW  Elec       q    Type
REMARK                         _______ _______ _______ _____ _____    ______ ____
ROOT
ATOM      1  N   UNL     1       5.056   5.229  17.497  0.00  0.00    +0.000 N 
ATOM      2  C   UNL     1       4.237   4.720  18.445  0.00  0.00    +0.000 A 
ATOM      3  N   UNL     1       4.555   3.951  19.463  0.00  0.00    +0.000 NA
ATOM      4  C   UNL     1       3.372   3.597  20.046  0.00  0.00    +0.000 A 
ATOM      5  C   UNL     1       3.144   2.778  21.159  0.00  0.00    +0.000 A 
ATOM      6  C   UNL     1       1.826   2.445  21.480  0.00  0.00    +0.000 A 
ATOM      7  C   UNL     1       0.763   2.923  20.711  0.00  0.00    +0.000 A 
ATOM      8  C   UNL     1       0.970   3.816  19.649  0.00  0.00    +0.000 A 
ATOM      9  C   UNL     1       2.297   4.153  19.360  0.00  0.00    +0.000 A 
ATOM     10  N   UNL     1       2.904   5.038  18.494  0.00  0.00    +0.000 N 
ATOM     11  H   UNL     1       4.662   5.312  16.564  0.00  0.00    +0.000 HD
ENDROOT
BRANCH   1  15
ATOM     12  N   UNL     1       7.961   7.369  17.668  0.00  0.00    +0.000 NA
ATOM     13  C   UNL     1       7.236   6.816  18.826  0.00  0.00    +0.000 C 
ATOM     14  C   UNL     1       7.188   5.299  18.761  0.00  0.00    +0.000 C 
ATOM     15  C   UNL     1       6.470   4.834  17.495  0.00  0.00    +0.000 C 
ATOM     16  C   UNL     1       7.166   5.461  16.281  0.00  0.00    +0.000 C 
ATOM     17  C   UNL     1       7.285   6.984  16.416  0.00  0.00    +0.000 C 
BRANCH  12  18
ATOM     18  C   UNL     1       8.058   8.840  17.761  0.00  0.00    +0.000 C 
BRANCH  18  19
ATOM     19  C   UNL     1       8.932   9.300  18.941  0.00  0.00    +0.000 C 
BRANCH  19  23
ATOM     20  C   UNL     1      10.300  13.357  18.476  0.00  0.00    +0.000 A 
ATOM     21  C   UNL     1       9.255  12.871  17.688  0.00  0.00    +0.000 A 
ATOM     22  C   UNL     1       8.814  11.558  17.836  0.00  0.00    +0.000 A 
ATOM     23  C   UNL     1       9.423  10.712  18.771  0.00  0.00    +0.000 A 
ATOM     24  C   UNL     1      10.488  11.191  19.539  0.00  0.00    +0.000 A 
ATOM     25  C   UNL     1      10.923  12.508  19.392  0.00  0.00    +0.000 A 
BRANCH  20  27
ATOM     26  C   UNL     1      11.920  14.845  17.625  0.00  0.00    +0.000 C 
ATOM     27  O   UNL     1      10.651  14.658  18.240  0.00  0.00    +0.000 OA
ENDBRANCH  20  27
ENDBRANCH  19  23
ENDBRANCH  18  19
ENDBRANCH  12  18
ENDBRANCH   1  15
BRANCH  10  28
ATOM     28  C   UNL     1       2.304   6.228  17.901  0.00  0.00    +0.000 C 
BRANCH  28  29
ATOM     29  C   UNL     1       1.975   7.303  18.921  0.00  0.00    +0.000 A 
ATOM     30  C   UNL     1       1.888   7.034  20.301  0.00  0.00    +0.000 A 
ATOM     31  C   UNL     1       1.515   8.038  21.201  0.00  0.00    +0.000 A 
ATOM     32  C   UNL     1       1.216   9.312  20.731  0.00  0.00    +0.000 A 
ATOM     33  F   UNL     1       0.830  10.260  21.593  0.00  0.00    +0.000 F 
ATOM     34  C   UNL     1       1.304   9.609  19.378  0.00  0.00    +0.000 A 
ATOM     35  C   UNL     1       1.681   8.603  18.490  0.00  0.00    +0.000 A 
ATOM     36  F   UNL     1       1.754   8.901  17.185  0.00  0.00    +0.000 F 
ENDBRANCH  28  29
ENDBRANCH  10  28
TORSDOF 7
ENDMDL
MODEL 5
REMARK VINA RESULT:      -7.8      1.101      1.551
REMARK  Name = 
REMARK  8 active torsions:
REMARK  status: ('A' for Active; 'I' for Inactive)
REMARK    1  A    between atoms: C_1  and  O_2
REMARK    2  A    between atoms: O_2  and  C_3
REMARK    3  A    between atoms: C_6  and  C_7
REMARK    4  A    between atoms: C_7  and  C_8
REMARK    5  A    between atoms: C_8  and  N_9
REMARK    6  A    between atoms: C_12  and  N_13
REMARK    7  A    between atoms: N_22  and  C_23
REMARK    8  A    between atoms: C_23  and  C_24
REMARK                            x       y       z     vdW  Elec       q    Type
REMARK                         _______ _______ _______ _____ _____    ______ ____
ROOT
ATOM      1  N   UNL     1       5.238   5.925  18.330  0.00  0.00    +0.000 N 
ATOM      2  C   UNL     1       4.296   4.980  18.543  0.00  0.00    +0.000 A 
ATOM      3  N   UNL     1       4.318   3.717  18.176  0.00  0.00    +0.000 NA
ATOM      4  C   UNL     1       3.091   3.213  18.501  0.00  0.00    +0.000 A 
ATOM      5  C   UNL     1       2.587   1.920  18.313  0.00  0.00    +0.000 A 
ATOM      6  C   UNL     1       1.240   1.684  18.600  0.00  0.00    +0.000 A 
ATOM      7  C   UNL     1       0.420   2.714  19.067  0.00  0.00    +0.000 A 
ATOM      8  C   UNL     1       0.932   3.990  19.344  0.00  0.00    +0.000 A 
ATOM      9  C   UNL     1       2.288   4.197  19.071  0.00  0.00    +0.000 A 
ATOM     10  N   UNL     1       3.172   5.235  19.284  0.00  0.00    +0.000 N 
ATOM     11  H   UNL     1       4.896   6.869  18.167  0.00  0.00    +0.000 HD
ENDROOT
BRANCH   1  15
ATOM     12  N   UNL     1       8.425   7.622  18.208  0.00  0.00    +0.000 NA
ATOM     13  C   UNL     1       8.069   6.535  19.137  0.00  0.00    +0.000 C 
ATOM     14  C   UNL     1       7.636   5.293  18.378  0.00  0.00    +0.000 C 
ATOM     15  C   UNL     1       6.411   5.587  17.513  0.00  0.00    +0.000 C 
ATOM     16  C   UNL     1       6.738   6.767  16.590  0.00  0.00    +0.000 C 
ATOM     17  C   UNL     1       7.263   7.976  17.373  0.00  0.00    +0.000 C 
BRANCH  12  18
ATOM     18  C   UNL     1       8.903   8.810  18.945  0.00  0.00    +0.000 C 
BRANCH  18  19
ATOM     19  C   UNL     1       8.742  10.109  18.137  0.00  0.00    +0.000 C 
BRANCH  19  23
ATOM     20  C   UNL     1      11.460  13.203  19.398  0.00  0.00    +0.000 A 
ATOM     21  C   UNL     1      11.110  13.078  18.053  0.00  0.00    +0.000 A 
ATOM     22  C   UNL     1      10.233  12.076  17.644  0.00  0.00    +0.000 A 
ATOM     23  C   UNL     1       9.704  11.179  18.580  0.00  0.00    +0.000 A 
ATOM     24  C   UNL     1      10.078  11.286  19.921  0.00  0.00    +0.000 A 
ATOM     25  C   UNL     1      10.951  12.295  20.328  0.00  0.00    +0.000 A 
BRANCH  20  27
ATOM     26  C   UNL     1      12.074  15.448  19.013  0.00  0.00    +0.000 C 
ATOM     27  O   UNL     1      12.332  14.219  19.681  0.00  0.00    +0.000 OA
ENDBRANCH  20  27
ENDBRANCH  19  23
ENDBRANCH  18  19
ENDBRANCH  12  18
ENDBRANCH   1  15
BRANCH  10  28
ATOM     28  C   UNL     1       3.043   6.300  20.272  0.00  0.00    +0.000 C 
BRANCH  28  29
ATOM     29  C   UNL     1       2.226   7.480  19.776  0.00  0.00    +0.000 A 
ATOM     30  C   UNL     1       1.336   8.185  20.609  0.00  0.00    +0.000 A 
ATOM     31  C   UNL     1       0.551   9.223  20.095  0.00  0.00    +0.000 A 
ATOM     32  C   UNL     1       0.640   9.557  18.748  0.00  0.00    +0.000 A 
ATOM     33  F   UNL     1      -0.136  10.531  18.257  0.00  0.00    +0.000 F 
ATOM     34  C   UNL     1       1.517   8.887  17.907  0.00  0.00    +0.000 A 
ATOM     35  C   UNL     1       2.299   7.858  18.429  0.00  0.00    +0.000 A 
ATOM     36  F   UNL     1       3.135   7.213  17.604  0.00  0.00    +0.000 F 
ENDBRANCH  28  29
ENDBRANCH  10  28
TORSDOF 7
ENDMDL
MODEL 6
REMARK VINA RESULT:      -7.6      5.548      9.733
REMARK  Name = 
REMARK  8 active torsions:
REMARK  status: ('A' for Active; 'I' for Inactive)
REMARK    1  A    between atoms: C_1  and  O_2
REMARK    2  A    between atoms: O_2  and  C_3
REMARK    3  A    between atoms: C_6  and  C_7
REMARK    4  A    between atoms: C_7  and  C_8
REMARK    5  A    between atoms: C_8  and  N_9
REMARK    6  A    between atoms: C_12  and  N_13
REMARK    7  A    between atoms: N_22  and  C_23
REMARK    8  A    between atoms: C_23  and  C_24
REMARK                            x       y       z     vdW  Elec       q    Type
REMARK                         _______ _______ _______ _____ _____    ______ ____
ROOT
ATOM      1  N   UNL     1       2.098   7.660  18.291  0.00  0.00    +0.000 N 
ATOM      2  C   UNL     1       3.167   6.883  18.011  0.00  0.00    +0.000 A 
ATOM      3  N   UNL     1       4.435   7.130  18.255  0.00  0.00    +0.000 NA
ATOM      4  C   UNL     1       5.133   6.113  17.669  0.00  0.00    +0.000 A 
ATOM      5  C   UNL     1       6.516   5.901  17.620  0.00  0.00    +0.000 A 
ATOM      6  C   UNL     1       7.001   4.856  16.830  0.00  0.00    +0.000 A 
ATOM      7  C   UNL     1       6.124   4.040  16.112  0.00  0.00    +0.000 A 
ATOM      8  C   UNL     1       4.733   4.183  16.222  0.00  0.00    +0.000 A 
ATOM      9  C   UNL     1       4.270   5.223  17.036  0.00  0.00    +0.000 A 
ATOM     10  N   UNL     1       3.027   5.629  17.474  0.00  0.00    +0.000 N 
ATOM     11  H   UNL     1       1.334   7.630  17.621  0.00  0.00    +0.000 HD
ENDROOT
BRANCH   1  15
ATOM     12  N   UNL     1      -0.368  10.178  19.087  0.00  0.00    +0.000 NA
ATOM     13  C   UNL     1       0.094   9.115  19.997  0.00  0.00    +0.000 C 
ATOM     14  C   UNL     1       1.600   9.181  20.186  0.00  0.00    +0.000 C 
ATOM     15  C   UNL     1       2.321   8.999  18.852  0.00  0.00    +0.000 C 
ATOM     16  C   UNL     1       1.797  10.051  17.867  0.00  0.00    +0.000 C 
ATOM     17  C   UNL     1       0.268  10.026  17.766  0.00  0.00    +0.000 C 
BRANCH  12  18
ATOM     18  C   UNL     1      -1.839  10.150  18.949  0.00  0.00    +0.000 C 
BRANCH  18  19
ATOM     19  C   UNL     1      -2.332  10.932  17.720  0.00  0.00    +0.000 C 
BRANCH  19  23
ATOM     20  C   UNL     1      -6.173  12.769  18.367  0.00  0.00    +0.000 A 
ATOM     21  C   UNL     1      -5.272  12.628  19.424  0.00  0.00    +0.000 A 
ATOM     22  C   UNL     1      -4.030  12.031  19.216  0.00  0.00    +0.000 A 
ATOM     23  C   UNL     1      -3.681  11.559  17.945  0.00  0.00    +0.000 A 
ATOM     24  C   UNL     1      -4.594  11.674  16.895  0.00  0.00    +0.000 A 
ATOM     25  C   UNL     1      -5.834  12.277  17.105  0.00  0.00    +0.000 A 
BRANCH  20  27
ATOM     26  C   UNL     1      -7.256  14.642  19.306  0.00  0.00    +0.000 C 
ATOM     27  O   UNL     1      -7.362  13.364  18.690  0.00  0.00    +0.000 OA
ENDBRANCH  20  27
ENDBRANCH  19  23
ENDBRANCH  18  19
ENDBRANCH  12  18
ENDBRANCH   1  15
BRANCH  10  28
ATOM     28  C   UNL     1       1.823   4.811  17.558  0.00  0.00    +0.000 C 
BRANCH  28  29
ATOM     29  C   UNL     1       1.738   4.001  18.840  0.00  0.00    +0.000 A 
ATOM     30  C   UNL     1       1.492   4.595  20.093  0.00  0.00    +0.000 A 
ATOM     31  C   UNL     1       1.490   3.822  21.260  0.00  0.00    +0.000 A 
ATOM     32  C   UNL     1       1.744   2.456  21.186  0.00  0.00    +0.000 A 
ATOM     33  F   UNL     1       1.771   1.728  22.308  0.00  0.00    +0.000 F 
ATOM     34  C   UNL     1       1.978   1.843  19.963  0.00  0.00    +0.000 A 
ATOM     35  C   UNL     1       1.973   2.621  18.806  0.00  0.00    +0.000 A 
ATOM     36  F   UNL     1       2.210   2.018  17.633  0.00  0.00    +0.000 F 
ENDBRANCH  28  29
ENDBRANCH  10  28
TORSDOF 7
ENDMDL
MODEL 7
REMARK VINA RESULT:      -7.6      7.399     11.803
REMARK  Name = 
REMARK  8 active torsions:
REMARK  status: ('A' for Active; 'I' for Inactive)
REMARK    1  A    between atoms: C_1  and  O_2
REMARK    2  A    between atoms: O_2  and  C_3
REMARK    3  A    between atoms: C_6  and  C_7
REMARK    4  A    between atoms: C_7  and  C_8
REMARK    5  A    between atoms: C_8  and  N_9
REMARK    6  A    between atoms: C_12  and  N_13
REMARK    7  A    between atoms: N_22  and  C_23
REMARK    8  A    between atoms: C_23  and  C_24
REMARK                            x       y       z     vdW  Elec       q    Type
REMARK                         _______ _______ _______ _____ _____    ______ ____
ROOT
ATOM      1  N   UNL     1      -0.879  12.320  21.480  0.00  0.00    +0.000 N 
ATOM      2  C   UNL     1      -0.301  11.215  20.958  0.00  0.00    +0.000 A 
ATOM      3  N   UNL     1       0.057  10.116  21.584  0.00  0.00    +0.000 NA
ATOM      4  C   UNL     1       0.713   9.356  20.658  0.00  0.00    +0.000 A 
ATOM      5  C   UNL     1       1.308   8.097  20.807  0.00  0.00    +0.000 A 
ATOM      6  C   UNL     1       2.051   7.583  19.741  0.00  0.00    +0.000 A 
ATOM      7  C   UNL     1       2.192   8.309  18.555  0.00  0.00    +0.000 A 
ATOM      8  C   UNL     1       1.529   9.529  18.360  0.00  0.00    +0.000 A 
ATOM      9  C   UNL     1       0.772  10.013  19.432  0.00  0.00    +0.000 A 
ATOM     10  N   UNL     1      -0.080  11.083  19.612  0.00  0.00    +0.000 N 
ATOM     11  H   UNL     1      -0.608  13.206  21.062  0.00  0.00    +0.000 HD
ENDROOT
BRANCH   1  15
ATOM     12  N   UNL     1      -3.517  14.006  23.281  0.00  0.00    +0.000 NA
ATOM     13  C   UNL     1      -3.566  12.616  22.796  0.00  0.00    +0.000 C 
ATOM     14  C   UNL     1      -2.412  11.804  23.360  0.00  0.00    +0.000 C 
ATOM     15  C   UNL     1      -1.072  12.401  22.933  0.00  0.00    +0.000 C 
ATOM     16  C   UNL     1      -1.034  13.872  23.365  0.00  0.00    +0.000 C 
ATOM     17  C   UNL     1      -2.258  14.646  22.862  0.00  0.00    +0.000 C 
BRANCH  12  18
ATOM     18  C   UNL     1      -4.672  14.779  22.780  0.00  0.00    +0.000 C 
BRANCH  18  19
ATOM     19  C   UNL     1      -5.499  13.999  21.743  0.00  0.00    +0.000 C 
BRANCH  19  23
ATOM     20  C   UNL     1      -6.615  16.438  18.374  0.00  0.00    +0.000 A 
ATOM     21  C   UNL     1      -5.579  16.838  19.220  0.00  0.00    +0.000 A 
ATOM     22  C   UNL     1      -5.219  16.050  20.312  0.00  0.00    +0.000 A 
ATOM     23  C   UNL     1      -5.903  14.856  20.574  0.00  0.00    +0.000 A 
ATOM     24  C   UNL     1      -6.958  14.472  19.743  0.00  0.00    +0.000 A 
ATOM     25  C   UNL     1      -7.311  15.260  18.647  0.00  0.00    +0.000 A 
BRANCH  20  27
ATOM     26  C   UNL     1      -7.287  16.670  16.125  0.00  0.00    +0.000 C 
ATOM     27  O   UNL     1      -6.883  17.292  17.338  0.00  0.00    +0.000 OA
ENDBRANCH  20  27
ENDBRANCH  19  23
ENDBRANCH  18  19
ENDBRANCH  12  18
ENDBRANCH   1  15
BRANCH  10  28
ATOM     28  C   UNL     1      -0.794  11.812  18.570  0.00  0.00    +0.000 C 
BRANCH  28  29
ATOM     29  C   UNL     1      -2.246  11.389  18.432  0.00  0.00    +0.000 A 
ATOM     30  C   UNL     1      -2.633  10.242  17.713  0.00  0.00    +0.000 A 
ATOM     31  C   UNL     1      -3.986   9.925  17.552  0.00  0.00    +0.000 A 
ATOM     32  C   UNL     1      -4.961  10.753  18.097  0.00  0.00    +0.000 A 
ATOM     33  F   UNL     1      -6.254  10.461  17.913  0.00  0.00    +0.000 F 
ATOM     34  C   UNL     1      -4.608  11.884  18.820  0.00  0.00    +0.000 A 
ATOM     35  C   UNL     1      -3.258  12.189  18.979  0.00  0.00    +0.000 A 
ATOM     36  F   UNL     1      -2.931  13.288  19.673  0.00  0.00    +0.000 F 
ENDBRANCH  28  29
ENDBRANCH  10  28
TORSDOF 7
ENDMDL
MODEL 8
REMARK VINA RESULT:      -7.6      6.113     11.005
REMARK  Name = 
REMARK  8 active torsions:
REMARK  status: ('A' for Active; 'I' for Inactive)
REMARK    1  A    between atoms: C_1  and  O_2
REMARK    2  A    between atoms: O_2  and  C_3
REMARK    3  A    between atoms: C_6  and  C_7
REMARK    4  A    between atoms: C_7  and  C_8
REMARK    5  A    between atoms: C_8  and  N_9
REMARK    6  A    between atoms: C_12  and  N_13
REMARK    7  A    between atoms: N_22  and  C_23
REMARK    8  A    between atoms: C_23  and  C_24
REMARK                            x       y       z     vdW  Elec       q    Type
REMARK                         _______ _______ _______ _____ _____    ______ ____
ROOT
ATOM      1  N   UNL     1       0.647  12.870  20.029  0.00  0.00    +0.000 N 
ATOM      2  C   UNL     1       0.580  14.133  19.554  0.00  0.00    +0.000 A 
ATOM      3  N   UNL     1      -0.486  14.796  19.162  0.00  0.00    +0.000 NA
ATOM      4  C   UNL     1      -0.024  15.973  18.647  0.00  0.00    +0.000 A 
ATOM      5  C   UNL     1      -0.743  17.034  18.081  0.00  0.00    +0.000 A 
ATOM      6  C   UNL     1      -0.028  18.078  17.488  0.00  0.00    +0.000 A 
ATOM      7  C   UNL     1       1.368  18.063  17.464  0.00  0.00    +0.000 A 
ATOM      8  C   UNL     1       2.101  17.053  18.104  0.00  0.00    +0.000 A 
ATOM      9  C   UNL     1       1.365  16.030  18.712  0.00  0.00    +0.000 A 
ATOM     10  N   UNL     1       1.684  14.944  19.500  0.00  0.00    +0.000 N 
ATOM     11  H   UNL     1       1.479  12.342  19.780  0.00  0.00    +0.000 HD
ENDROOT
BRANCH   1  15
ATOM     12  N   UNL     1       0.367   9.305  20.544  0.00  0.00    +0.000 NA
ATOM     13  C   UNL     1       0.360  10.326  21.606  0.00  0.00    +0.000 C 
ATOM     14  C   UNL     1      -0.754  11.334  21.382  0.00  0.00    +0.000 C 
ATOM     15  C   UNL     1      -0.573  12.052  20.046  0.00  0.00    +0.000 C 
ATOM     16  C   UNL     1      -0.488  10.999  18.934  0.00  0.00    +0.000 C 
ATOM     17  C   UNL     1       0.580   9.941  19.231  0.00  0.00    +0.000 C 
BRANCH  12  18
ATOM     18  C   UNL     1       1.413   8.292  20.794  0.00  0.00    +0.000 C 
BRANCH  18  19
ATOM     19  C   UNL     1       2.127   7.850  19.506  0.00  0.00    +0.000 C 
BRANCH  19  23
ATOM     20  C   UNL     1       2.231   3.562  19.113  0.00  0.00    +0.000 A 
ATOM     21  C   UNL     1       1.946   4.150  20.346  0.00  0.00    +0.000 A 
ATOM     22  C   UNL     1       1.915   5.537  20.475  0.00  0.00    +0.000 A 
ATOM     23  C   UNL     1       2.180   6.352  19.367  0.00  0.00    +0.000 A 
ATOM     24  C   UNL     1       2.494   5.763  18.140  0.00  0.00    +0.000 A 
ATOM     25  C   UNL     1       2.518   4.374  18.014  0.00  0.00    +0.000 A 
BRANCH  20  27
ATOM     26  C   UNL     1       3.391   1.593  18.529  0.00  0.00    +0.000 C 
ATOM     27  O   UNL     1       2.239   2.194  19.107  0.00  0.00    +0.000 OA
ENDBRANCH  20  27
ENDBRANCH  19  23
ENDBRANCH  18  19
ENDBRANCH  12  18
ENDBRANCH   1  15
BRANCH  10  28
ATOM     28  C   UNL     1       2.887  14.777  20.308  0.00  0.00    +0.000 C 
BRANCH  28  29
ATOM     29  C   UNL     1       4.166  15.054  19.538  0.00  0.00    +0.000 A 
ATOM     30  C   UNL     1       4.516  14.344  18.374  0.00  0.00    +0.000 A 
ATOM     31  C   UNL     1       5.737  14.583  17.733  0.00  0.00    +0.000 A 
ATOM     32  C   UNL     1       6.620  15.522  18.255  0.00  0.00    +0.000 A 
ATOM     33  F   UNL     1       7.800  15.724  17.655  0.00  0.00    +0.000 F 
ATOM     34  C   UNL     1       6.297  16.244  19.395  0.00  0.00    +0.000 A 
ATOM     35  C   UNL     1       5.076  16.003  20.023  0.00  0.00    +0.000 A 
ATOM     36  F   UNL     1       4.779  16.701  21.128  0.00  0.00    +0.000 F 
ENDBRANCH  28  29
ENDBRANCH  10  28
TORSDOF 7
ENDMDL
MODEL 9
REMARK VINA RESULT:      -7.6      5.630      9.169
REMARK  Name = 
REMARK  8 active torsions:
REMARK  status: ('A' for Active; 'I' for Inactive)
REMARK    1  A    between atoms: C_1  and  O_2
REMARK    2  A    between atoms: O_2  and  C_3
REMARK    3  A    between atoms: C_6  and  C_7
REMARK    4  A    between atoms: C_7  and  C_8
REMARK    5  A    between atoms: C_8  and  N_9
REMARK    6  A    between atoms: C_12  and  N_13
REMARK    7  A    between atoms: N_22  and  C_23
REMARK    8  A    between atoms: C_23  and  C_24
REMARK                            x       y       z     vdW  Elec       q    Type
REMARK                         _______ _______ _______ _____ _____    ______ ____
ROOT
ATOM      1  N   UNL     1       1.950   7.619  20.605  0.00  0.00    +0.000 N 
ATOM      2  C   UNL     1       1.866   6.353  20.137  0.00  0.00    +0.000 A 
ATOM      3  N   UNL     1       1.026   5.410  20.502  0.00  0.00    +0.000 NA
ATOM      4  C   UNL     1       1.424   4.281  19.843  0.00  0.00    +0.000 A 
ATOM      5  C   UNL     1       0.879   2.992  19.887  0.00  0.00    +0.000 A 
ATOM      6  C   UNL     1       1.557   1.962  19.230  0.00  0.00    +0.000 A 
ATOM      7  C   UNL     1       2.747   2.216  18.543  0.00  0.00    +0.000 A 
ATOM      8  C   UNL     1       3.256   3.517  18.416  0.00  0.00    +0.000 A 
ATOM      9  C   UNL     1       2.548   4.536  19.063  0.00  0.00    +0.000 A 
ATOM     10  N   UNL     1       2.651   5.910  19.105  0.00  0.00    +0.000 N 
ATOM     11  H   UNL     1       2.885   8.014  20.658  0.00  0.00    +0.000 HD
ENDROOT
BRANCH   1  15
ATOM     12  N   UNL     1      -0.073  10.598  20.890  0.00  0.00    +0.000 NA
ATOM     13  C   UNL     1      -0.507   9.323  20.292  0.00  0.00    +0.000 C 
ATOM     14  C   UNL     1      -0.367   8.183  21.285  0.00  0.00    +0.000 C 
ATOM     15  C   UNL     1       1.088   8.022  21.723  0.00  0.00    +0.000 C 
ATOM     16  C   UNL     1       1.581   9.363  22.281  0.00  0.00    +0.000 C 
ATOM     17  C   UNL     1       1.342  10.512  21.295  0.00  0.00    +0.000 C 
BRANCH  12  18
ATOM     18  C   UNL     1      -0.264  11.716  19.944  0.00  0.00    +0.000 C 
BRANCH  18  19
ATOM     19  C   UNL     1      -0.860  11.257  18.601  0.00  0.00    +0.000 C 
BRANCH  19  23
ATOM     20  C   UNL     1      -5.103  11.954  18.361  0.00  0.00    +0.000 A 
ATOM     21  C   UNL     1      -4.434  11.313  17.317  0.00  0.00    +0.000 A 
ATOM     22  C   UNL     1      -3.061  11.090  17.393  0.00  0.00    +0.000 A 
ATOM     23  C   UNL     1      -2.339  11.517  18.515  0.00  0.00    +0.000 A 
ATOM     24  C   UNL     1      -3.005  12.183  19.546  0.00  0.00    +0.000 A 
ATOM     25  C   UNL     1      -4.381  12.400  19.470  0.00  0.00    +0.000 A 
BRANCH  20  27
ATOM     26  C   UNL     1      -6.812  12.959  17.083  0.00  0.00    +0.000 C 
ATOM     27  O   UNL     1      -6.448  12.123  18.175  0.00  0.00    +0.000 OA
ENDBRANCH  20  27
ENDBRANCH  19  23
ENDBRANCH  18  19
ENDBRANCH  12  18
ENDBRANCH   1  15
BRANCH  10  28
ATOM     28  C   UNL     1       3.296   6.766  18.116  0.00  0.00    +0.000 C 
BRANCH  28  29
ATOM     29  C   UNL     1       4.572   6.169  17.549  0.00  0.00    +0.000 A 
ATOM     30  C   UNL     1       4.770   5.985  16.167  0.00  0.00    +0.000 A 
ATOM     31  C   UNL     1       5.932   5.368  15.690  0.00  0.00    +0.000 A 
ATOM     32  C   UNL     1       6.897   4.923  16.587  0.00  0.00    +0.000 A 
ATOM     33  F   UNL     1       7.992   4.306  16.126  0.00  0.00    +0.000 F 
ATOM     34  C   UNL     1       6.734   5.102  17.953  0.00  0.00    +0.000 A 
ATOM     35  C   UNL     1       5.575   5.722  18.418  0.00  0.00    +0.000 A 
ATOM     36  F   UNL     1       5.426   5.881  19.741  0.00  0.00    +0.000 F 
ENDBRANCH  28  29
ENDBRANCH  10  28
TORSDOF 7
ENDMDL
