MODEL 1
REMARK VINA RESULT:      -8.6      0.000      0.000
REMARK  Name = 
REMARK  3 active torsions:
REMARK  status: ('A' for Active; 'I' for Inactive)
REMARK    1  A    between atoms: O_1  and  C_2
REMARK    2  A    between atoms: N_8  and  C_9
REMARK    3  A    between atoms: C_15  and  O_16
REMARK                            x       y       z     vdW  Elec       q    Type
REMARK                         _______ _______ _______ _____ _____    ______ ____
ROOT
ATOM      1  C   UNL     1       7.577   5.670  19.689  0.00  0.00    +0.000 A 
ATOM      2  C   UNL     1       8.159   6.532  18.760  0.00  0.00    +0.000 A 
ATOM      3  C   UNL     1       7.408   6.943  17.656  0.00  0.00    +0.000 A 
ATOM      4  C   UNL     1       6.101   6.457  17.556  0.00  0.00    +0.000 A 
ATOM      5  N   UNL     1       5.130   6.678  16.613  0.00  0.00    +0.000 NA
ATOM      6  C   UNL     1       4.105   5.956  17.011  0.00  0.00    +0.000 A 
ATOM      7  N   UNL     1       4.364   5.294  18.185  0.00  0.00    +0.000 N 
ATOM      8  C   UNL     1       5.647   5.600  18.554  0.00  0.00    +0.000 A 
ATOM      9  N   UNL     1       6.325   5.170  19.636  0.00  0.00    +0.000 NA
ENDROOT
BRANCH   7  10
ATOM     10  C   UNL     1       3.439   4.417  18.912  0.00  0.00    +0.000 C 
ATOM     11  C   UNL     1       2.160   5.199  19.264  0.00  0.00    +0.000 C 
ATOM     12  C   UNL     1       1.419   4.736  20.516  0.00  0.00    +0.000 C 
ATOM     13  C   UNL     1       1.337   3.235  20.759  0.00  0.00    +0.000 C 
ATOM     14  C   UNL     1       1.102   2.405  19.503  0.00  0.00    +0.000 C 
ATOM     15  C   UNL     1       2.405   2.021  18.813  0.00  0.00    +0.000 C 
ATOM     16  C   UNL     1       3.139   3.144  18.077  0.00  0.00    +0.000 C 
BRANCH  16  17
ATOM     17  O   UNL     1       4.351   2.563  17.575  0.00  0.00    +0.000 OA
ATOM     18  H   UNL     1       4.149   1.673  17.230  0.00  0.00    +0.000 HD
ENDBRANCH  16  17
ENDBRANCH   7  10
BRANCH   1  19
ATOM     19  O   UNL     1       8.297   5.261  20.777  0.00  0.00    +0.000 OA
ATOM     20  H   UNL     1       9.029   4.711  20.464  0.00  0.00    +0.000 HD
ENDBRANCH   1  19
TORSDOF 3
ENDMDL
MODEL 2
REMARK VINA RESULT:      -8.0      1.258      1.952
REMARK  Name = 
REMARK  3 active torsions:
REMARK  status: ('A' for Active; 'I' for Inactive)
REMARK    1  A    between atoms: O_1  and  C_2
REMARK    2  A    between atoms: N_8  and  C_9
REMARK    3  A    between atoms: C_15  and  O_16
REMARK                            x       y       z     vdW  Elec       q    Type
REMARK                         _______ _______ _______ _____ _____    ______ ____
ROOT
ATOM      1  C   UNL     1       7.538   5.692  19.656  0.00  0.00    +0.000 A 
ATOM      2  C   UNL     1       8.163   6.560  18.760  0.00  0.00    +0.000 A 
ATOM      3  C   UNL     1       7.458   6.990  17.634  0.00  0.00    +0.000 A 
ATOM      4  C   UNL     1       6.152   6.518  17.479  0.00  0.00    +0.000 A 
ATOM      5  N   UNL     1       5.219   6.758  16.502  0.00  0.00    +0.000 NA
ATOM      6  C   UNL     1       4.174   6.042  16.853  0.00  0.00    +0.000 A 
ATOM      7  N   UNL     1       4.382   5.364  18.028  0.00  0.00    +0.000 N 
ATOM      8  C   UNL     1       5.652   5.654  18.449  0.00  0.00    +0.000 A 
ATOM      9  N   UNL     1       6.285   5.204  19.550  0.00  0.00    +0.000 NA
ENDROOT
BRANCH   7  10
ATOM     10  C   UNL     1       3.422   4.487  18.709  0.00  0.00    +0.000 C 
ATOM     11  C   UNL     1       3.984   3.054  18.760  0.00  0.00    +0.000 C 
ATOM     12  C   UNL     1       2.948   1.933  18.796  0.00  0.00    +0.000 C 
ATOM     13  C   UNL     1       1.706   2.163  19.646  0.00  0.00    +0.000 C 
ATOM     14  C   UNL     1       1.969   2.866  20.972  0.00  0.00    +0.000 C 
ATOM     15  C   UNL     1       1.917   4.384  20.840  0.00  0.00    +0.000 C 
ATOM     16  C   UNL     1       3.095   5.042  20.120  0.00  0.00    +0.000 C 
BRANCH  16  17
ATOM     17  O   UNL     1       2.791   6.443  20.062  0.00  0.00    +0.000 OA
ATOM     18  H   UNL     1       2.912   6.824  20.951  0.00  0.00    +0.000 HD
ENDBRANCH  16  17
ENDBRANCH   7  10
BRANCH   1  19
ATOM     19  O   UNL     1       8.214   5.264  20.766  0.00  0.00    +0.000 OA
ATOM     20  H   UNL     1       7.664   4.607  21.217  0.00  0.00    +0.000 HD
ENDBRANCH   1  19
TORSDOF 3
ENDMDL
MODEL 3
REMARK VINA RESULT:      -7.5      1.534      1.609
REMARK  Name = 
REMARK  3 active torsions:
REMARK  status: ('A' for Active; 'I' for Inactive)
REMARK    1  A    between atoms: O_1  and  C_2
REMARK    2  A    between atoms: N_8  and  C_9
REMARK    3  A    between atoms: C_15  and  O_16
REMARK                            x       y       z     vdW  Elec       q    Type
REMARK                         _______ _______ _______ _____ _____    ______ ____
ROOT
ATOM      1  C   UNL     1       7.004   4.952  17.746  0.00  0.00    +0.000 A 
ATOM      2  C   UNL     1       7.311   6.153  17.106  0.00  0.00    +0.000 A 
ATOM      3  C   UNL     1       6.304   7.107  16.941  0.00  0.00    +0.000 A 
ATOM      4  C   UNL     1       5.036   6.790  17.438  0.00  0.00    +0.000 A 
ATOM      5  N   UNL     1       3.866   7.506  17.436  0.00  0.00    +0.000 NA
ATOM      6  C   UNL     1       2.990   6.717  18.020  0.00  0.00    +0.000 A 
ATOM      7  N   UNL     1       3.549   5.530  18.421  0.00  0.00    +0.000 N 
ATOM      8  C   UNL     1       4.868   5.553  18.053  0.00  0.00    +0.000 A 
ATOM      9  N   UNL     1       5.799   4.596  18.238  0.00  0.00    +0.000 NA
ENDROOT
BRANCH   7  10
ATOM     10  C   UNL     1       2.862   4.433  19.113  0.00  0.00    +0.000 C 
ATOM     11  C   UNL     1       2.290   4.949  20.447  0.00  0.00    +0.000 C 
ATOM     12  C   UNL     1       2.152   3.911  21.558  0.00  0.00    +0.000 C 
ATOM     13  C   UNL     1       1.680   2.521  21.155  0.00  0.00    +0.000 C 
ATOM     14  C   UNL     1       0.585   2.508  20.097  0.00  0.00    +0.000 C 
ATOM     15  C   UNL     1       1.150   2.510  18.681  0.00  0.00    +0.000 C 
ATOM     16  C   UNL     1       1.767   3.824  18.199  0.00  0.00    +0.000 C 
BRANCH  16  17
ATOM     17  O   UNL     1       2.282   3.562  16.886  0.00  0.00    +0.000 OA
ATOM     18  H   UNL     1       2.027   2.657  16.627  0.00  0.00    +0.000 HD
ENDBRANCH  16  17
ENDBRANCH   7  10
BRANCH   1  19
ATOM     19  O   UNL     1       7.980   4.009  17.919  0.00  0.00    +0.000 OA
ATOM     20  H   UNL     1       8.838   4.451  17.865  0.00  0.00    +0.000 HD
ENDBRANCH   1  19
TORSDOF 3
ENDMDL
MODEL 4
REMARK VINA RESULT:      -7.3      2.143      3.505
REMARK  Name = 
REMARK  3 active torsions:
REMARK  status: ('A' for Active; 'I' for Inactive)
REMARK    1  A    between atoms: O_1  and  C_2
REMARK    2  A    between atoms: N_8  and  C_9
REMARK    3  A    between atoms: C_15  and  O_16
REMARK                            x       y       z     vdW  Elec       q    Type
REMARK                         _______ _______ _______ _____ _____    ______ ____
ROOT
ATOM      1  C   UNL     1       5.666   4.302  14.974  0.00  0.00    +0.000 A 
ATOM      2  C   UNL     1       7.005   4.685  15.050  0.00  0.00    +0.000 A 
ATOM      3  C   UNL     1       7.563   4.946  16.304  0.00  0.00    +0.000 A 
ATOM      4  C   UNL     1       6.729   4.801  17.416  0.00  0.00    +0.000 A 
ATOM      5  N   UNL     1       6.978   4.975  18.754  0.00  0.00    +0.000 NA
ATOM      6  C   UNL     1       5.830   4.720  19.344  0.00  0.00    +0.000 A 
ATOM      7  N   UNL     1       4.854   4.367  18.447  0.00  0.00    +0.000 N 
ATOM      8  C   UNL     1       5.410   4.415  17.196  0.00  0.00    +0.000 A 
ATOM      9  N   UNL     1       4.819   4.153  16.014  0.00  0.00    +0.000 NA
ENDROOT
BRANCH   7  10
ATOM     10  C   UNL     1       3.467   4.006  18.765  0.00  0.00    +0.000 C 
ATOM     11  C   UNL     1       3.361   2.479  18.931  0.00  0.00    +0.000 C 
ATOM     12  C   UNL     1       2.001   1.867  18.604  0.00  0.00    +0.000 C 
ATOM     13  C   UNL     1       0.766   2.645  19.039  0.00  0.00    +0.000 C 
ATOM     14  C   UNL     1       0.885   3.304  20.408  0.00  0.00    +0.000 C 
ATOM     15  C   UNL     1       1.492   4.700  20.325  0.00  0.00    +0.000 C 
ATOM     16  C   UNL     1       2.991   4.771  20.028  0.00  0.00    +0.000 C 
BRANCH  16  17
ATOM     17  O   UNL     1       3.311   6.167  19.934  0.00  0.00    +0.000 OA
ATOM     18  H   UNL     1       2.583   6.679  20.333  0.00  0.00    +0.000 HD
ENDBRANCH  16  17
ENDBRANCH   7  10
BRANCH   1  19
ATOM     19  O   UNL     1       5.105   4.039  13.754  0.00  0.00    +0.000 OA
ATOM     20  H   UNL     1       4.389   3.403  13.884  0.00  0.00    +0.000 HD
ENDBRANCH   1  19
TORSDOF 3
ENDMDL
MODEL 5
REMARK VINA RESULT:      -7.2      1.948      5.488
REMARK  Name = 
REMARK  3 active torsions:
REMARK  status: ('A' for Active; 'I' for Inactive)
REMARK    1  A    between atoms: O_1  and  C_2
REMARK    2  A    between atoms: N_8  and  C_9
REMARK    3  A    between atoms: C_15  and  O_16
REMARK                            x       y       z     vdW  Elec       q    Type
REMARK                         _______ _______ _______ _____ _____    ______ ____
ROOT
ATOM      1  C   UNL     1       1.854   2.466  19.355  0.00  0.00    +0.000 A 
ATOM      2  C   UNL     1       0.995   3.037  20.295  0.00  0.00    +0.000 A 
ATOM      3  C   UNL     1       1.089   4.407  20.551  0.00  0.00    +0.000 A 
ATOM      4  C   UNL     1       2.051   5.126  19.836  0.00  0.00    +0.000 A 
ATOM      5  N   UNL     1       2.377   6.458  19.859  0.00  0.00    +0.000 NA
ATOM      6  C   UNL     1       3.365   6.576  18.998  0.00  0.00    +0.000 A 
ATOM      7  N   UNL     1       3.678   5.380  18.402  0.00  0.00    +0.000 N 
ATOM      8  C   UNL     1       2.845   4.429  18.930  0.00  0.00    +0.000 A 
ATOM      9  N   UNL     1       2.800   3.113  18.644  0.00  0.00    +0.000 NA
ENDROOT
BRANCH   7  10
ATOM     10  C   UNL     1       4.715   5.157  17.388  0.00  0.00    +0.000 C 
ATOM     11  C   UNL     1       4.784   6.376  16.450  0.00  0.00    +0.000 C 
ATOM     12  C   UNL     1       5.264   6.095  15.028  0.00  0.00    +0.000 C 
ATOM     13  C   UNL     1       6.401   5.096  14.864  0.00  0.00    +0.000 C 
ATOM     14  C   UNL     1       7.491   5.201  15.923  0.00  0.00    +0.000 C 
ATOM     15  C   UNL     1       7.187   4.350  17.150  0.00  0.00    +0.000 C 
ATOM     16  C   UNL     1       6.076   4.861  18.071  0.00  0.00    +0.000 C 
BRANCH  16  17
ATOM     17  O   UNL     1       5.930   3.873  19.101  0.00  0.00    +0.000 OA
ATOM     18  H   UNL     1       6.818   3.585  19.382  0.00  0.00    +0.000 HD
ENDBRANCH  16  17
ENDBRANCH   7  10
BRANCH   1  19
ATOM     19  O   UNL     1       1.772   1.127  19.089  0.00  0.00    +0.000 OA
ATOM     20  H   UNL     1       2.152   0.971  18.213  0.00  0.00    +0.000 HD
ENDBRANCH   1  19
TORSDOF 3
ENDMDL
MODEL 6
REMARK VINA RESULT:      -7.1      2.577      2.701
REMARK  Name = 
REMARK  3 active torsions:
REMARK  status: ('A' for Active; 'I' for Inactive)
REMARK    1  A    between atoms: O_1  and  C_2
REMARK    2  A    between atoms: N_8  and  C_9
REMARK    3  A    between atoms: C_15  and  O_16
REMARK                            x       y       z     vdW  Elec       q    Type
REMARK                         _______ _______ _______ _____ _____    ______ ____
ROOT
ATOM      1  C   UNL     1       5.664   4.220  15.838  0.00  0.00    +0.000 A 
ATOM      2  C   UNL     1       6.015   5.422  15.223  0.00  0.00    +0.000 A 
ATOM      3  C   UNL     1       5.428   6.607  15.673  0.00  0.00    +0.000 A 
ATOM      4  C   UNL     1       4.516   6.508  16.727  0.00  0.00    +0.000 A 
ATOM      5  N   UNL     1       3.792   7.472  17.382  0.00  0.00    +0.000 NA
ATOM      6  C   UNL     1       3.086   6.812  18.275  0.00  0.00    +0.000 A 
ATOM      7  N   UNL     1       3.337   5.463  18.239  0.00  0.00    +0.000 N 
ATOM      8  C   UNL     1       4.255   5.244  17.247  0.00  0.00    +0.000 A 
ATOM      9  N   UNL     1       4.788   4.070  16.853  0.00  0.00    +0.000 NA
ENDROOT
BRANCH   7  10
ATOM     10  C   UNL     1       2.734   4.442  19.103  0.00  0.00    +0.000 C 
ATOM     11  C   UNL     1       2.395   5.063  20.471  0.00  0.00    +0.000 C 
ATOM     12  C   UNL     1       2.402   4.103  21.659  0.00  0.00    +0.000 C 
ATOM     13  C   UNL     1       1.829   2.711  21.429  0.00  0.00    +0.000 C 
ATOM     14  C   UNL     1       0.581   2.678  20.557  0.00  0.00    +0.000 C 
ATOM     15  C   UNL     1       0.917   2.567  19.074  0.00  0.00    +0.000 C 
ATOM     16  C   UNL     1       1.490   3.822  18.413  0.00  0.00    +0.000 C 
BRANCH  16  17
ATOM     17  O   UNL     1       1.785   3.457  17.057  0.00  0.00    +0.000 OA
ATOM     18  H   UNL     1       2.701   3.128  17.017  0.00  0.00    +0.000 HD
ENDBRANCH  16  17
ENDBRANCH   7  10
BRANCH   1  19
ATOM     19  O   UNL     1       6.232   3.050  15.412  0.00  0.00    +0.000 OA
ATOM     20  H   UNL     1       6.216   3.043  14.445  0.00  0.00    +0.000 HD
ENDBRANCH   1  19
TORSDOF 3
ENDMDL
MODEL 7
REMARK VINA RESULT:      -7.1      2.370      5.496
REMARK  Name = 
REMARK  3 active torsions:
REMARK  status: ('A' for Active; 'I' for Inactive)
REMARK    1  A    between atoms: O_1  and  C_2
REMARK    2  A    between atoms: N_8  and  C_9
REMARK    3  A    between atoms: C_15  and  O_16
REMARK                            x       y       z     vdW  Elec       q    Type
REMARK                         _______ _______ _______ _____ _____    ______ ____
ROOT
ATOM      1  C   UNL     1       2.143   5.554  20.111  0.00  0.00    +0.000 A 
ATOM      2  C   UNL     1       1.169   4.705  20.636  0.00  0.00    +0.000 A 
ATOM      3  C   UNL     1       1.171   3.360  20.258  0.00  0.00    +0.000 A 
ATOM      4  C   UNL     1       2.166   2.948  19.367  0.00  0.00    +0.000 A 
ATOM      5  N   UNL     1       2.432   1.717  18.823  0.00  0.00    +0.000 NA
ATOM      6  C   UNL     1       3.471   1.914  18.041  0.00  0.00    +0.000 A 
ATOM      7  N   UNL     1       3.904   3.216  18.072  0.00  0.00    +0.000 N 
ATOM      8  C   UNL     1       3.075   3.902  18.919  0.00  0.00    +0.000 A 
ATOM      9  N   UNL     1       3.120   5.209  19.247  0.00  0.00    +0.000 NA
ENDROOT
BRANCH   7  10
ATOM     10  C   UNL     1       5.043   3.773  17.334  0.00  0.00    +0.000 C 
ATOM     11  C   UNL     1       4.543   4.400  16.019  0.00  0.00    +0.000 C 
ATOM     12  C   UNL     1       5.545   4.418  14.866  0.00  0.00    +0.000 C 
ATOM     13  C   UNL     1       6.995   4.727  15.212  0.00  0.00    +0.000 C 
ATOM     14  C   UNL     1       7.175   5.814  16.264  0.00  0.00    +0.000 C 
ATOM     15  C   UNL     1       7.166   5.253  17.681  0.00  0.00    +0.000 C 
ATOM     16  C   UNL     1       5.810   4.791  18.218  0.00  0.00    +0.000 C 
BRANCH  16  17
ATOM     17  O   UNL     1       6.064   4.249  19.522  0.00  0.00    +0.000 OA
ATOM     18  H   UNL     1       5.981   3.278  19.476  0.00  0.00    +0.000 HD
ENDBRANCH  16  17
ENDBRANCH   7  10
BRANCH   1  19
ATOM     19  O   UNL     1       2.159   6.873  20.474  0.00  0.00    +0.000 OA
ATOM     20  H   UNL     1       2.630   6.948  21.316  0.00  0.00    +0.000 HD
ENDBRANCH   1  19
TORSDOF 3
ENDMDL
MODEL 8
REMARK VINA RESULT:      -6.9      1.571      1.737
REMARK  Name = 
REMARK  3 active torsions:
REMARK  status: ('A' for Active; 'I' for Inactive)
REMARK    1  A    between atoms: O_1  and  C_2
REMARK    2  A    between atoms: N_8  and  C_9
REMARK    3  A    between atoms: C_15  and  O_16
REMARK                            x       y       z     vdW  Elec       q    Type
REMARK                         _______ _______ _______ _____ _____    ______ ____
ROOT
ATOM      1  C   UNL     1       7.394   5.607  18.703  0.00  0.00    +0.000 A 
ATOM      2  C   UNL     1       7.841   5.709  17.385  0.00  0.00    +0.000 A 
ATOM      3  C   UNL     1       7.019   5.244  16.356  0.00  0.00    +0.000 A 
ATOM      4  C   UNL     1       5.783   4.702  16.720  0.00  0.00    +0.000 A 
ATOM      5  N   UNL     1       4.771   4.178  15.956  0.00  0.00    +0.000 NA
ATOM      6  C   UNL     1       3.856   3.803  16.824  0.00  0.00    +0.000 A 
ATOM      7  N   UNL     1       4.224   4.082  18.117  0.00  0.00    +0.000 N 
ATOM      8  C   UNL     1       5.465   4.659  18.074  0.00  0.00    +0.000 A 
ATOM      9  N   UNL     1       6.216   5.089  19.108  0.00  0.00    +0.000 NA
ENDROOT
BRANCH   7  10
ATOM     10  C   UNL     1       3.435   3.809  19.324  0.00  0.00    +0.000 C 
ATOM     11  C   UNL     1       1.935   3.930  18.994  0.00  0.00    +0.000 C 
ATOM     12  C   UNL     1       1.029   4.339  20.153  0.00  0.00    +0.000 C 
ATOM     13  C   UNL     1       1.337   3.741  21.519  0.00  0.00    +0.000 C 
ATOM     14  C   UNL     1       1.754   2.277  21.488  0.00  0.00    +0.000 C 
ATOM     15  C   UNL     1       3.257   2.108  21.297  0.00  0.00    +0.000 C 
ATOM     16  C   UNL     1       3.801   2.416  19.900  0.00  0.00    +0.000 C 
BRANCH  16  17
ATOM     17  O   UNL     1       5.224   2.254  19.985  0.00  0.00    +0.000 OA
ATOM     18  H   UNL     1       5.428   1.300  19.980  0.00  0.00    +0.000 HD
ENDBRANCH  16  17
ENDBRANCH   7  10
BRANCH   1  19
ATOM     19  O   UNL     1       8.186   6.060  19.723  0.00  0.00    +0.000 OA
ATOM     20  H   UNL     1       8.213   5.378  20.408  0.00  0.00    +0.000 HD
ENDBRANCH   1  19
TORSDOF 3
ENDMDL
MODEL 9
REMARK VINA RESULT:      -6.9      2.252      5.538
REMARK  Name = 
REMARK  3 active torsions:
REMARK  status: ('A' for Active; 'I' for Inactive)
REMARK    1  A    between atoms: O_1  and  C_2
REMARK    2  A    between atoms: N_8  and  C_9
REMARK    3  A    between atoms: C_15  and  O_16
REMARK                            x       y       z     vdW  Elec       q    Type
REMARK                         _______ _______ _______ _____ _____    ______ ____
ROOT
ATOM      1  C   UNL     1       2.189   3.461  20.958  0.00  0.00    +0.000 A 
ATOM      2  C   UNL     1       1.139   2.701  20.441  0.00  0.00    +0.000 A 
ATOM      3  C   UNL     1       1.051   2.523  19.059  0.00  0.00    +0.000 A 
ATOM      4  C   UNL     1       2.038   3.125  18.273  0.00  0.00    +0.000 A 
ATOM      5  N   UNL     1       2.225   3.130  16.914  0.00  0.00    +0.000 NA
ATOM      6  C   UNL     1       3.299   3.866  16.726  0.00  0.00    +0.000 A 
ATOM      7  N   UNL     1       3.827   4.322  17.908  0.00  0.00    +0.000 N 
ATOM      8  C   UNL     1       3.028   3.859  18.919  0.00  0.00    +0.000 A 
ATOM      9  N   UNL     1       3.162   4.066  20.244  0.00  0.00    +0.000 NA
ENDROOT
BRANCH   7  10
ATOM     10  C   UNL     1       5.025   5.155  18.063  0.00  0.00    +0.000 C 
ATOM     11  C   UNL     1       6.264   4.360  17.609  0.00  0.00    +0.000 C 
ATOM     12  C   UNL     1       7.582   4.742  18.277  0.00  0.00    +0.000 C 
ATOM     13  C   UNL     1       7.830   6.224  18.526  0.00  0.00    +0.000 C 
ATOM     14  C   UNL     1       7.366   7.140  17.400  0.00  0.00    +0.000 C 
ATOM     15  C   UNL     1       5.910   7.560  17.561  0.00  0.00    +0.000 C 
ATOM     16  C   UNL     1       4.859   6.484  17.280  0.00  0.00    +0.000 C 
BRANCH  16  17
ATOM     17  O   UNL     1       3.588   7.089  17.559  0.00  0.00    +0.000 OA
ATOM     18  H   UNL     1       2.889   6.426  17.407  0.00  0.00    +0.000 HD
ENDBRANCH  16  17
ENDBRANCH   7  10
BRANCH   1  19
ATOM     19  O   UNL     1       2.293   3.642  22.310  0.00  0.00    +0.000 OA
ATOM     20  H   UNL     1       2.249   2.773  22.734  0.00  0.00    +0.000 HD
ENDBRANCH   1  19
TORSDOF 3
ENDMDL
