MODEL 1
REMARK VINA RESULT:      -4.5      0.000      0.000
REMARK  Name = 
REMARK  9 active torsions:
REMARK  status: ('A' for Active; 'I' for Inactive)
REMARK    1  A    between atoms: C_1  and  C_2
REMARK    2  A    between atoms: C_2  and  C_3
REMARK    3  A    between atoms: C_3  and  C_4
REMARK    4  A    between atoms: C_4  and  C_5
REMARK    5  A    between atoms: C_5  and  C_6
REMARK    6  A    between atoms: C_6  and  SE_7
REMARK    7  A    between atoms: SE_7  and  C_8
REMARK    8  A    between atoms: C_8  and  C_9
REMARK    9  A    between atoms: C_9  and  C_10
REMARK                            x       y       z     vdW  Elec       q    Type
REMARK                         _______ _______ _______ _____ _____    ______ ____
ROOT
ATOM      1  C   UNL     1       3.010   3.572  17.145  0.00  0.00    +0.000 C 
ENDROOT
BRANCH   1   2
ATOM      2  C   UNL     1       1.871   4.125  18.004  0.00  0.00    +0.000 C 
BRANCH   2   3
ATOM      3  C   UNL     1       2.305   5.274  18.924  0.00  0.00    +0.000 C 
BRANCH   3   4
ATOM      4  C   UNL     1       1.794   5.012  20.351  0.00  0.00    +0.000 C 
BRANCH   4   6
ATOM      5  C   UNL     1       1.644   2.802  21.551  0.00  0.00    +0.000 C 
ATOM      6  C   UNL     1       1.037   3.683  20.459  0.00  0.00    +0.000 C 
ENDBRANCH   4   6
ENDBRANCH   3   4
ENDBRANCH   2   3
ENDBRANCH   1   2
BRANCH   1   7
ATOM      7 SE   UNL     1       4.694   4.073  18.008  0.00  0.00    +0.000 Se
BRANCH   7   8
ATOM      8  C   UNL     1       5.751   4.036  16.368  0.00  0.00    +0.000 C 
BRANCH   8   9
ATOM      9  C   UNL     1       6.119   5.442  15.982  0.00  0.00    +0.000 C 
ATOM     10  C   UNL     1       5.114   6.557  16.040  0.00  0.00    +0.000 C 
ATOM     11  O   UNL     1       7.257   5.688  15.612  0.00  0.00    +0.000 OA
ENDBRANCH   8   9
ENDBRANCH   7   8
ENDBRANCH   1   7
TORSDOF 7
ENDMDL
MODEL 2
REMARK VINA RESULT:      -4.5      1.474      1.885
REMARK  Name = 
REMARK  9 active torsions:
REMARK  status: ('A' for Active; 'I' for Inactive)
REMARK    1  A    between atoms: C_1  and  C_2
REMARK    2  A    between atoms: C_2  and  C_3
REMARK    3  A    between atoms: C_3  and  C_4
REMARK    4  A    between atoms: C_4  and  C_5
REMARK    5  A    between atoms: C_5  and  C_6
REMARK    6  A    between atoms: C_6  and  SE_7
REMARK    7  A    between atoms: SE_7  and  C_8
REMARK    8  A    between atoms: C_8  and  C_9
REMARK    9  A    between atoms: C_9  and  C_10
REMARK                            x       y       z     vdW  Elec       q    Type
REMARK                         _______ _______ _______ _____ _____    ______ ____
ROOT
ATOM      1  C   UNL     1       3.966   5.526  18.876  0.00  0.00    +0.000 C 
ENDROOT
BRANCH   1   2
ATOM      2  C   UNL     1       2.444   5.382  18.914  0.00  0.00    +0.000 C 
BRANCH   2   3
ATOM      3  C   UNL     1       1.927   4.166  18.131  0.00  0.00    +0.000 C 
BRANCH   3   4
ATOM      4  C   UNL     1       1.110   3.261  19.067  0.00  0.00    +0.000 C 
BRANCH   4   6
ATOM      5  C   UNL     1       1.521   2.756  21.501  0.00  0.00    +0.000 C 
ATOM      6  C   UNL     1       1.052   3.810  20.498  0.00  0.00    +0.000 C 
ENDBRANCH   4   6
ENDBRANCH   3   4
ENDBRANCH   2   3
ENDBRANCH   1   2
BRANCH   1   7
ATOM      7 SE   UNL     1       4.541   5.213  17.031  0.00  0.00    +0.000 Se
BRANCH   7   8
ATOM      8  C   UNL     1       6.379   4.753  17.495  0.00  0.00    +0.000 C 
BRANCH   8   9
ATOM      9  C   UNL     1       7.265   5.946  17.262  0.00  0.00    +0.000 C 
ATOM     10  C   UNL     1       7.839   6.730  18.408  0.00  0.00    +0.000 C 
ATOM     11  O   UNL     1       7.526   6.290  16.120  0.00  0.00    +0.000 OA
ENDBRANCH   8   9
ENDBRANCH   7   8
ENDBRANCH   1   7
TORSDOF 7
ENDMDL
MODEL 3
REMARK VINA RESULT:      -4.5      1.695      2.024
REMARK  Name = 
REMARK  9 active torsions:
REMARK  status: ('A' for Active; 'I' for Inactive)
REMARK    1  A    between atoms: C_1  and  C_2
REMARK    2  A    between atoms: C_2  and  C_3
REMARK    3  A    between atoms: C_3  and  C_4
REMARK    4  A    between atoms: C_4  and  C_5
REMARK    5  A    between atoms: C_5  and  C_6
REMARK    6  A    between atoms: C_6  and  SE_7
REMARK    7  A    between atoms: SE_7  and  C_8
REMARK    8  A    between atoms: C_8  and  C_9
REMARK    9  A    between atoms: C_9  and  C_10
REMARK                            x       y       z     vdW  Elec       q    Type
REMARK                         _______ _______ _______ _____ _____    ______ ____
ROOT
ATOM      1  C   UNL     1       3.764   3.839  18.204  0.00  0.00    +0.000 C 
ENDROOT
BRANCH   1   2
ATOM      2  C   UNL     1       2.339   3.980  17.668  0.00  0.00    +0.000 C 
BRANCH   2   3
ATOM      3  C   UNL     1       1.326   3.072  18.381  0.00  0.00    +0.000 C 
BRANCH   3   4
ATOM      4  C   UNL     1       0.909   3.715  19.714  0.00  0.00    +0.000 C 
BRANCH   4   6
ATOM      5  C   UNL     1       2.324   3.463  21.783  0.00  0.00    +0.000 C 
ATOM      6  C   UNL     1       1.240   2.822  20.915  0.00  0.00    +0.000 C 
ENDBRANCH   4   6
ENDBRANCH   3   4
ENDBRANCH   2   3
ENDBRANCH   1   2
BRANCH   1   7
ATOM      7 SE   UNL     1       4.985   4.015  16.684  0.00  0.00    +0.000 Se
BRANCH   7   8
ATOM      8  C   UNL     1       5.904   5.590  17.378  0.00  0.00    +0.000 C 
BRANCH   8   9
ATOM      9  C   UNL     1       7.291   5.204  17.815  0.00  0.00    +0.000 C 
ATOM     10  C   UNL     1       7.896   5.755  19.074  0.00  0.00    +0.000 C 
ATOM     11  O   UNL     1       7.943   4.426  17.135  0.00  0.00    +0.000 OA
ENDBRANCH   8   9
ENDBRANCH   7   8
ENDBRANCH   1   7
TORSDOF 7
ENDMDL
MODEL 4
REMARK VINA RESULT:      -4.4      1.795      2.386
REMARK  Name = 
REMARK  9 active torsions:
REMARK  status: ('A' for Active; 'I' for Inactive)
REMARK    1  A    between atoms: C_1  and  C_2
REMARK    2  A    between atoms: C_2  and  C_3
REMARK    3  A    between atoms: C_3  and  C_4
REMARK    4  A    between atoms: C_4  and  C_5
REMARK    5  A    between atoms: C_5  and  C_6
REMARK    6  A    between atoms: C_6  and  SE_7
REMARK    7  A    between atoms: SE_7  and  C_8
REMARK    8  A    between atoms: C_8  and  C_9
REMARK    9  A    between atoms: C_9  and  C_10
REMARK                            x       y       z     vdW  Elec       q    Type
REMARK                         _______ _______ _______ _____ _____    ______ ____
ROOT
ATOM      1  C   UNL     1       4.414   4.001  16.672  0.00  0.00    +0.000 C 
ENDROOT
BRANCH   1   2
ATOM      2  C   UNL     1       4.025   3.135  17.871  0.00  0.00    +0.000 C 
BRANCH   2   3
ATOM      3  C   UNL     1       2.663   2.445  17.708  0.00  0.00    +0.000 C 
BRANCH   3   4
ATOM      4  C   UNL     1       1.543   3.413  18.120  0.00  0.00    +0.000 C 
BRANCH   4   6
ATOM      5  C   UNL     1       1.329   2.757  20.543  0.00  0.00    +0.000 C 
ATOM      6  C   UNL     1       0.622   2.811  19.189  0.00  0.00    +0.000 C 
ENDBRANCH   4   6
ENDBRANCH   3   4
ENDBRANCH   2   3
ENDBRANCH   1   2
BRANCH   1   7
ATOM      7 SE   UNL     1       4.692   5.824  17.328  0.00  0.00    +0.000 Se
BRANCH   7   8
ATOM      8  C   UNL     1       6.521   5.973  16.666  0.00  0.00    +0.000 C 
BRANCH   8   9
ATOM      9  C   UNL     1       7.454   5.280  17.621  0.00  0.00    +0.000 C 
ATOM     10  C   UNL     1       7.664   5.791  19.018  0.00  0.00    +0.000 C 
ATOM     11  O   UNL     1       8.055   4.280  17.259  0.00  0.00    +0.000 OA
ENDBRANCH   8   9
ENDBRANCH   7   8
ENDBRANCH   1   7
TORSDOF 7
ENDMDL
MODEL 5
REMARK VINA RESULT:      -4.4      1.719      2.474
REMARK  Name = 
REMARK  9 active torsions:
REMARK  status: ('A' for Active; 'I' for Inactive)
REMARK    1  A    between atoms: C_1  and  C_2
REMARK    2  A    between atoms: C_2  and  C_3
REMARK    3  A    between atoms: C_3  and  C_4
REMARK    4  A    between atoms: C_4  and  C_5
REMARK    5  A    between atoms: C_5  and  C_6
REMARK    6  A    between atoms: C_6  and  SE_7
REMARK    7  A    between atoms: SE_7  and  C_8
REMARK    8  A    between atoms: C_8  and  C_9
REMARK    9  A    between atoms: C_9  and  C_10
REMARK                            x       y       z     vdW  Elec       q    Type
REMARK                         _______ _______ _______ _____ _____    ______ ____
ROOT
ATOM      1  C   UNL     1       4.925   6.520  16.667  0.00  0.00    +0.000 C 
ENDROOT
BRANCH   1   2
ATOM      2  C   UNL     1       3.991   6.291  17.856  0.00  0.00    +0.000 C 
BRANCH   2   3
ATOM      3  C   UNL     1       3.612   4.818  18.059  0.00  0.00    +0.000 C 
BRANCH   3   4
ATOM      4  C   UNL     1       2.081   4.679  18.090  0.00  0.00    +0.000 C 
BRANCH   4   6
ATOM      5  C   UNL     1       0.901   2.987  19.537  0.00  0.00    +0.000 C 
ATOM      6  C   UNL     1       1.635   3.218  18.216  0.00  0.00    +0.000 C 
ENDBRANCH   4   6
ENDBRANCH   3   4
ENDBRANCH   2   3
ENDBRANCH   1   2
BRANCH   1   7
ATOM      7 SE   UNL     1       6.761   6.467  17.343  0.00  0.00    +0.000 Se
BRANCH   7   8
ATOM      8  C   UNL     1       7.157   4.689  16.641  0.00  0.00    +0.000 C 
BRANCH   8   9
ATOM      9  C   UNL     1       7.021   4.704  15.144  0.00  0.00    +0.000 C 
ATOM     10  C   UNL     1       6.015   3.838  14.441  0.00  0.00    +0.000 C 
ATOM     11  O   UNL     1       7.740   5.435  14.480  0.00  0.00    +0.000 OA
ENDBRANCH   8   9
ENDBRANCH   7   8
ENDBRANCH   1   7
TORSDOF 7
ENDMDL
MODEL 6
REMARK VINA RESULT:      -4.4      1.434      2.105
REMARK  Name = 
REMARK  9 active torsions:
REMARK  status: ('A' for Active; 'I' for Inactive)
REMARK    1  A    between atoms: C_1  and  C_2
REMARK    2  A    between atoms: C_2  and  C_3
REMARK    3  A    between atoms: C_3  and  C_4
REMARK    4  A    between atoms: C_4  and  C_5
REMARK    5  A    between atoms: C_5  and  C_6
REMARK    6  A    between atoms: C_6  and  SE_7
REMARK    7  A    between atoms: SE_7  and  C_8
REMARK    8  A    between atoms: C_8  and  C_9
REMARK    9  A    between atoms: C_9  and  C_10
REMARK                            x       y       z     vdW  Elec       q    Type
REMARK                         _______ _______ _______ _____ _____    ______ ____
ROOT
ATOM      1  C   UNL     1       4.356   4.596  18.217  0.00  0.00    +0.000 C 
ENDROOT
BRANCH   1   2
ATOM      2  C   UNL     1       3.575   3.489  17.509  0.00  0.00    +0.000 C 
BRANCH   2   3
ATOM      3  C   UNL     1       2.053   3.623  17.661  0.00  0.00    +0.000 C 
BRANCH   3   4
ATOM      4  C   UNL     1       1.505   2.417  18.441  0.00  0.00    +0.000 C 
BRANCH   4   6
ATOM      5  C   UNL     1       0.908   3.898  20.390  0.00  0.00    +0.000 C 
ATOM      6  C   UNL     1       1.613   2.612  19.958  0.00  0.00    +0.000 C 
ENDBRANCH   4   6
ENDBRANCH   3   4
ENDBRANCH   2   3
ENDBRANCH   1   2
BRANCH   1   7
ATOM      7 SE   UNL     1       6.180   4.575  17.508  0.00  0.00    +0.000 Se
BRANCH   7   8
ATOM      8  C   UNL     1       5.741   5.526  15.862  0.00  0.00    +0.000 C 
BRANCH   8   9
ATOM      9  C   UNL     1       6.569   4.977  14.734  0.00  0.00    +0.000 C 
ATOM     10  C   UNL     1       6.061   3.866  13.859  0.00  0.00    +0.000 C 
ATOM     11  O   UNL     1       7.679   5.439  14.519  0.00  0.00    +0.000 OA
ENDBRANCH   8   9
ENDBRANCH   7   8
ENDBRANCH   1   7
TORSDOF 7
ENDMDL
MODEL 7
REMARK VINA RESULT:      -4.4      1.853      2.547
REMARK  Name = 
REMARK  9 active torsions:
REMARK  status: ('A' for Active; 'I' for Inactive)
REMARK    1  A    between atoms: C_1  and  C_2
REMARK    2  A    between atoms: C_2  and  C_3
REMARK    3  A    between atoms: C_3  and  C_4
REMARK    4  A    between atoms: C_4  and  C_5
REMARK    5  A    between atoms: C_5  and  C_6
REMARK    6  A    between atoms: C_6  and  SE_7
REMARK    7  A    between atoms: SE_7  and  C_8
REMARK    8  A    between atoms: C_8  and  C_9
REMARK    9  A    between atoms: C_9  and  C_10
REMARK                            x       y       z     vdW  Elec       q    Type
REMARK                         _______ _______ _______ _____ _____    ______ ____
ROOT
ATOM      1  C   UNL     1       4.700   5.008  19.095  0.00  0.00    +0.000 C 
ENDROOT
BRANCH   1   2
ATOM      2  C   UNL     1       4.441   3.523  18.843  0.00  0.00    +0.000 C 
BRANCH   2   3
ATOM      3  C   UNL     1       3.706   3.247  17.524  0.00  0.00    +0.000 C 
BRANCH   3   4
ATOM      4  C   UNL     1       2.520   2.304  17.783  0.00  0.00    +0.000 C 
BRANCH   4   6
ATOM      5  C   UNL     1       0.797   2.872  19.531  0.00  0.00    +0.000 C 
ATOM      6  C   UNL     1       2.158   2.225  19.270  0.00  0.00    +0.000 C 
ENDBRANCH   4   6
ENDBRANCH   3   4
ENDBRANCH   2   3
ENDBRANCH   1   2
BRANCH   1   7
ATOM      7 SE   UNL     1       4.549   5.932  17.375  0.00  0.00    +0.000 Se
BRANCH   7   8
ATOM      8  C   UNL     1       6.472   6.151  17.123  0.00  0.00    +0.000 C 
BRANCH   8   9
ATOM      9  C   UNL     1       7.040   4.894  16.524  0.00  0.00    +0.000 C 
ATOM     10  C   UNL     1       6.476   4.303  15.264  0.00  0.00    +0.000 C 
ATOM     11  O   UNL     1       7.982   4.339  17.069  0.00  0.00    +0.000 OA
ENDBRANCH   8   9
ENDBRANCH   7   8
ENDBRANCH   1   7
TORSDOF 7
ENDMDL
MODEL 8
REMARK VINA RESULT:      -4.4      1.412      1.743
REMARK  Name = 
REMARK  9 active torsions:
REMARK  status: ('A' for Active; 'I' for Inactive)
REMARK    1  A    between atoms: C_1  and  C_2
REMARK    2  A    between atoms: C_2  and  C_3
REMARK    3  A    between atoms: C_3  and  C_4
REMARK    4  A    between atoms: C_4  and  C_5
REMARK    5  A    between atoms: C_5  and  C_6
REMARK    6  A    between atoms: C_6  and  SE_7
REMARK    7  A    between atoms: SE_7  and  C_8
REMARK    8  A    between atoms: C_8  and  C_9
REMARK    9  A    between atoms: C_9  and  C_10
REMARK                            x       y       z     vdW  Elec       q    Type
REMARK                         _______ _______ _______ _____ _____    ______ ____
ROOT
ATOM      1  C   UNL     1       3.417   5.301  17.894  0.00  0.00    +0.000 C 
ENDROOT
BRANCH   1   2
ATOM      2  C   UNL     1       3.718   5.453  19.385  0.00  0.00    +0.000 C 
BRANCH   2   3
ATOM      3  C   UNL     1       2.497   5.203  20.282  0.00  0.00    +0.000 C 
BRANCH   3   4
ATOM      4  C   UNL     1       1.551   4.204  19.596  0.00  0.00    +0.000 C 
BRANCH   4   6
ATOM      5  C   UNL     1       2.095   2.763  21.590  0.00  0.00    +0.000 C 
ATOM      6  C   UNL     1       1.021   3.147  20.571  0.00  0.00    +0.000 C 
ENDBRANCH   4   6
ENDBRANCH   3   4
ENDBRANCH   2   3
ENDBRANCH   1   2
BRANCH   1   7
ATOM      7 SE   UNL     1       4.669   3.980  17.173  0.00  0.00    +0.000 Se
BRANCH   7   8
ATOM      8  C   UNL     1       5.878   5.294  16.386  0.00  0.00    +0.000 C 
BRANCH   8   9
ATOM      9  C   UNL     1       7.164   5.315  17.164  0.00  0.00    +0.000 C 
ATOM     10  C   UNL     1       7.505   6.456  18.081  0.00  0.00    +0.000 C 
ATOM     11  O   UNL     1       7.952   4.388  17.054  0.00  0.00    +0.000 OA
ENDBRANCH   8   9
ENDBRANCH   7   8
ENDBRANCH   1   7
TORSDOF 7
ENDMDL
MODEL 9
REMARK VINA RESULT:      -4.4      1.438      1.924
REMARK  Name = 
REMARK  9 active torsions:
REMARK  status: ('A' for Active; 'I' for Inactive)
REMARK    1  A    between atoms: C_1  and  C_2
REMARK    2  A    between atoms: C_2  and  C_3
REMARK    3  A    between atoms: C_3  and  C_4
REMARK    4  A    between atoms: C_4  and  C_5
REMARK    5  A    between atoms: C_5  and  C_6
REMARK    6  A    between atoms: C_6  and  SE_7
REMARK    7  A    between atoms: SE_7  and  C_8
REMARK    8  A    between atoms: C_8  and  C_9
REMARK    9  A    between atoms: C_9  and  C_10
REMARK                            x       y       z     vdW  Elec       q    Type
REMARK                         _______ _______ _______ _____ _____    ______ ____
ROOT
ATOM      1  C   UNL     1       3.670   5.599  18.229  0.00  0.00    +0.000 C 
ENDROOT
BRANCH   1   2
ATOM      2  C   UNL     1       3.086   4.419  17.451  0.00  0.00    +0.000 C 
BRANCH   2   3
ATOM      3  C   UNL     1       1.607   4.154  17.766  0.00  0.00    +0.000 C 
BRANCH   3   4
ATOM      4  C   UNL     1       1.458   2.762  18.403  0.00  0.00    +0.000 C 
BRANCH   4   6
ATOM      5  C   UNL     1       1.057   4.131  20.479  0.00  0.00    +0.000 C 
ATOM      6  C   UNL     1       1.590   2.808  19.929  0.00  0.00    +0.000 C 
ENDBRANCH   4   6
ENDBRANCH   3   4
ENDBRANCH   2   3
ENDBRANCH   1   2
BRANCH   1   7
ATOM      7 SE   UNL     1       5.319   4.982  19.084  0.00  0.00    +0.000 Se
BRANCH   7   8
ATOM      8  C   UNL     1       6.333   4.830  17.424  0.00  0.00    +0.000 C 
BRANCH   8   9
ATOM      9  C   UNL     1       6.568   6.203  16.857  0.00  0.00    +0.000 C 
ATOM     10  C   UNL     1       7.462   7.192  17.549  0.00  0.00    +0.000 C 
ATOM     11  O   UNL     1       6.024   6.526  15.812  0.00  0.00    +0.000 OA
ENDBRANCH   8   9
ENDBRANCH   7   8
ENDBRANCH   1   7
TORSDOF 7
ENDMDL
