MODEL 1
REMARK VINA RESULT:      -7.3      0.000      0.000
REMARK  Name = 
REMARK  8 active torsions:
REMARK  status: ('A' for Active; 'I' for Inactive)
REMARK    1  A    between atoms: C_1  and  C_2
REMARK    2  A    between atoms: C_7  and  C_9
REMARK    3  A    between atoms: C_9  and  C_10
REMARK    4  A    between atoms: C_10  and  C_11
REMARK    5  A    between atoms: C_11  and  O_12
REMARK    6  A    between atoms: O_12  and  C_13
REMARK    7  A    between atoms: C_15  and  C_16
REMARK    8  A    between atoms: C_19  and  C_20
REMARK                            x       y       z     vdW  Elec       q    Type
REMARK                         _______ _______ _______ _____ _____    ______ ____
ROOT
ATOM      1  C   UNL     1       7.657   7.718  17.647  0.00  0.00    +0.000 C 
ENDROOT
BRANCH   1   2
ATOM      2  C   UNL     1       8.207   6.820  18.763  0.00  0.00    +0.000 C 
BRANCH   2   9
ATOM      3  C   UNL     1       1.649   3.093  18.237  0.00  0.00    +0.000 C 
ATOM      4  C   UNL     1       3.043   3.557  18.459  0.00  0.00    +0.000 A 
ATOM      5  C   UNL     1       4.017   3.003  19.264  0.00  0.00    +0.000 A 
ATOM      6  N   UNL     1       5.206   3.691  19.313  0.00  0.00    +0.000 NA
ATOM      7  C   UNL     1       5.129   4.757  18.559  0.00  0.00    +0.000 A 
ATOM      8  N   UNL     1       6.079   5.726  18.368  0.00  0.00    +0.000 N 
ATOM      9  C   UNL     1       7.179   5.790  19.196  0.00  0.00    +0.000 C 
ATOM     10  O   UNL     1       7.359   5.128  20.213  0.00  0.00    +0.000 OA
ATOM     11  S   UNL     1       3.673   4.961  17.690  0.00  0.00    +0.000 S 
ATOM     12  H   UNL     1       5.895   6.428  17.667  0.00  0.00    +0.000 HD
ENDBRANCH   2   9
ENDBRANCH   1   2
BRANCH   1  13
ATOM     13  C   UNL     1       8.102   9.172  17.819  0.00  0.00    +0.000 C 
BRANCH  13  14
ATOM     14  O   UNL     1       8.971   9.276  18.949  0.00  0.00    +0.000 OA
BRANCH  14  15
ATOM     15  C   UNL     1       9.424  10.534  19.251  0.00  0.00    +0.000 A 
ATOM     16  C   UNL     1       9.140  11.243  20.421  0.00  0.00    +0.000 A 
ATOM     17  C   UNL     1       9.686  12.515  20.630  0.00  0.00    +0.000 A 
ATOM     18  C   UNL     1      10.517  13.088  19.665  0.00  0.00    +0.000 A 
ATOM     19  C   UNL     1      10.795  12.389  18.483  0.00  0.00    +0.000 A 
ATOM     20  C   UNL     1      10.246  11.116  18.282  0.00  0.00    +0.000 A 
BRANCH  17  21
ATOM     21  C   UNL     1       9.403  13.221  21.845  0.00  0.00    +0.000 C 
ATOM     22  N   UNL     1       9.177  13.806  22.822  0.00  0.00    +0.000 NA
ENDBRANCH  17  21
BRANCH  19  23
ATOM     23  C   UNL     1      11.647  12.973  17.490  0.00  0.00    +0.000 C 
ATOM     24  N   UNL     1      12.333  13.457  16.689  0.00  0.00    +0.000 NA
ENDBRANCH  19  23
ENDBRANCH  14  15
ENDBRANCH  13  14
ENDBRANCH   1  13
TORSDOF 7
ENDMDL
MODEL 2
REMARK VINA RESULT:      -7.0      1.273      3.003
REMARK  Name = 
REMARK  8 active torsions:
REMARK  status: ('A' for Active; 'I' for Inactive)
REMARK    1  A    between atoms: C_1  and  C_2
REMARK    2  A    between atoms: C_7  and  C_9
REMARK    3  A    between atoms: C_9  and  C_10
REMARK    4  A    between atoms: C_10  and  C_11
REMARK    5  A    between atoms: C_11  and  O_12
REMARK    6  A    between atoms: O_12  and  C_13
REMARK    7  A    between atoms: C_15  and  C_16
REMARK    8  A    between atoms: C_19  and  C_20
REMARK                            x       y       z     vdW  Elec       q    Type
REMARK                         _______ _______ _______ _____ _____    ______ ____
ROOT
ATOM      1  C   UNL     1       7.841   7.220  17.645  0.00  0.00    +0.000 C 
ENDROOT
BRANCH   1   2
ATOM      2  C   UNL     1       6.377   6.815  17.439  0.00  0.00    +0.000 C 
BRANCH   2   9
ATOM      3  C   UNL     1       1.726   2.544  21.599  0.00  0.00    +0.000 C 
ATOM      4  C   UNL     1       2.771   3.110  20.707  0.00  0.00    +0.000 A 
ATOM      5  C   UNL     1       3.934   2.519  20.260  0.00  0.00    +0.000 A 
ATOM      6  N   UNL     1       4.742   3.315  19.483  0.00  0.00    +0.000 NA
ATOM      7  C   UNL     1       4.197   4.496  19.349  0.00  0.00    +0.000 A 
ATOM      8  N   UNL     1       4.699   5.587  18.688  0.00  0.00    +0.000 N 
ATOM      9  C   UNL     1       6.017   5.606  18.285  0.00  0.00    +0.000 C 
ATOM     10  O   UNL     1       6.874   4.775  18.569  0.00  0.00    +0.000 OA
ATOM     11  S   UNL     1       2.664   4.704  20.071  0.00  0.00    +0.000 S 
ATOM     12  H   UNL     1       4.099   6.392  18.592  0.00  0.00    +0.000 HD
ENDBRANCH   2   9
ENDBRANCH   1   2
BRANCH   1  13
ATOM     13  C   UNL     1       7.990   8.731  17.839  0.00  0.00    +0.000 C 
BRANCH  13  14
ATOM     14  O   UNL     1       8.861   8.988  18.943  0.00  0.00    +0.000 OA
BRANCH  14  15
ATOM     15  C   UNL     1       9.315  10.275  19.070  0.00  0.00    +0.000 A 
ATOM     16  C   UNL     1       9.943  11.020  18.068  0.00  0.00    +0.000 A 
ATOM     17  C   UNL     1      10.338  12.341  18.309  0.00  0.00    +0.000 A 
ATOM     18  C   UNL     1      10.111  12.924  19.557  0.00  0.00    +0.000 A 
ATOM     19  C   UNL     1       9.495  12.179  20.570  0.00  0.00    +0.000 A 
ATOM     20  C   UNL     1       9.101  10.858  20.322  0.00  0.00    +0.000 A 
BRANCH  17  21
ATOM     21  C   UNL     1      10.962  13.099  17.264  0.00  0.00    +0.000 C 
ATOM     22  N   UNL     1      11.457  13.725  16.421  0.00  0.00    +0.000 NA
ENDBRANCH  17  21
BRANCH  19  23
ATOM     23  C   UNL     1       9.259  12.773  21.852  0.00  0.00    +0.000 C 
ATOM     24  N   UNL     1       9.073  13.244  22.897  0.00  0.00    +0.000 NA
ENDBRANCH  19  23
ENDBRANCH  14  15
ENDBRANCH  13  14
ENDBRANCH   1  13
TORSDOF 7
ENDMDL
MODEL 3
REMARK VINA RESULT:      -7.0      4.609      7.666
REMARK  Name = 
REMARK  8 active torsions:
REMARK  status: ('A' for Active; 'I' for Inactive)
REMARK    1  A    between atoms: C_1  and  C_2
REMARK    2  A    between atoms: C_7  and  C_9
REMARK    3  A    between atoms: C_9  and  C_10
REMARK    4  A    between atoms: C_10  and  C_11
REMARK    5  A    between atoms: C_11  and  O_12
REMARK    6  A    between atoms: O_12  and  C_13
REMARK    7  A    between atoms: C_15  and  C_16
REMARK    8  A    between atoms: C_19  and  C_20
REMARK                            x       y       z     vdW  Elec       q    Type
REMARK                         _______ _______ _______ _____ _____    ______ ____
ROOT
ATOM      1  C   UNL     1       2.971   3.010  19.555  0.00  0.00    +0.000 C 
ENDROOT
BRANCH   1   2
ATOM      2  C   UNL     1       2.865   4.165  20.559  0.00  0.00    +0.000 C 
BRANCH   2   9
ATOM      3  C   UNL     1       0.226  11.250  20.477  0.00  0.00    +0.000 C 
ATOM      4  C   UNL     1       0.871   9.937  20.220  0.00  0.00    +0.000 A 
ATOM      5  C   UNL     1       1.350   9.432  19.029  0.00  0.00    +0.000 A 
ATOM      6  N   UNL     1       1.849   8.152  19.087  0.00  0.00    +0.000 NA
ATOM      7  C   UNL     1       1.742   7.693  20.306  0.00  0.00    +0.000 A 
ATOM      8  N   UNL     1       2.083   6.450  20.773  0.00  0.00    +0.000 N 
ATOM      9  C   UNL     1       2.362   5.431  19.889  0.00  0.00    +0.000 C 
ATOM     10  O   UNL     1       2.215   5.468  18.671  0.00  0.00    +0.000 OA
ATOM     11  S   UNL     1       1.117   8.779  21.467  0.00  0.00    +0.000 S 
ATOM     12  H   UNL     1       2.033   6.296  21.769  0.00  0.00    +0.000 HD
ENDBRANCH   2   9
ENDBRANCH   1   2
BRANCH   1  13
ATOM     13  C   UNL     1       4.428   2.691  19.210  0.00  0.00    +0.000 C 
BRANCH  13  14
ATOM     14  O   UNL     1       5.236   3.850  19.429  0.00  0.00    +0.000 OA
BRANCH  14  15
ATOM     15  C   UNL     1       5.757   4.445  18.309  0.00  0.00    +0.000 A 
ATOM     16  C   UNL     1       5.678   3.942  17.007  0.00  0.00    +0.000 A 
ATOM     17  C   UNL     1       6.226   4.658  15.936  0.00  0.00    +0.000 A 
ATOM     18  C   UNL     1       6.863   5.880  16.163  0.00  0.00    +0.000 A 
ATOM     19  C   UNL     1       6.959   6.383  17.467  0.00  0.00    +0.000 A 
ATOM     20  C   UNL     1       6.406   5.662  18.533  0.00  0.00    +0.000 A 
BRANCH  17  21
ATOM     21  C   UNL     1       6.117   4.140  14.604  0.00  0.00    +0.000 C 
ATOM     22  N   UNL     1       6.035   3.734  13.520  0.00  0.00    +0.000 NA
ENDBRANCH  17  21
BRANCH  19  23
ATOM     23  C   UNL     1       7.611   7.636  17.704  0.00  0.00    +0.000 C 
ATOM     24  N   UNL     1       8.150   8.646  17.897  0.00  0.00    +0.000 NA
ENDBRANCH  19  23
ENDBRANCH  14  15
ENDBRANCH  13  14
ENDBRANCH   1  13
TORSDOF 7
ENDMDL
MODEL 4
REMARK VINA RESULT:      -6.8      3.553      9.739
REMARK  Name = 
REMARK  8 active torsions:
REMARK  status: ('A' for Active; 'I' for Inactive)
REMARK    1  A    between atoms: C_1  and  C_2
REMARK    2  A    between atoms: C_7  and  C_9
REMARK    3  A    between atoms: C_9  and  C_10
REMARK    4  A    between atoms: C_10  and  C_11
REMARK    5  A    between atoms: C_11  and  O_12
REMARK    6  A    between atoms: O_12  and  C_13
REMARK    7  A    between atoms: C_15  and  C_16
REMARK    8  A    between atoms: C_19  and  C_20
REMARK                            x       y       z     vdW  Elec       q    Type
REMARK                         _______ _______ _______ _____ _____    ______ ____
ROOT
ATOM      1  C   UNL     1       8.125   9.214  17.849  0.00  0.00    +0.000 C 
ENDROOT
BRANCH   1   2
ATOM      2  C   UNL     1       9.094   9.429  19.017  0.00  0.00    +0.000 C 
BRANCH   2   9
ATOM      3  C   UNL     1      11.827  16.187  17.008  0.00  0.00    +0.000 C 
ATOM      4  C   UNL     1      11.080  15.028  17.560  0.00  0.00    +0.000 A 
ATOM      5  C   UNL     1      10.200  14.997  18.622  0.00  0.00    +0.000 A 
ATOM      6  N   UNL     1       9.701  13.756  18.941  0.00  0.00    +0.000 NA
ATOM      7  C   UNL     1      10.202  12.859  18.134  0.00  0.00    +0.000 A 
ATOM      8  N   UNL     1       9.994  11.504  18.143  0.00  0.00    +0.000 N 
ATOM      9  C   UNL     1       9.386  10.905  19.225  0.00  0.00    +0.000 C 
ATOM     10  O   UNL     1       9.105  11.445  20.290  0.00  0.00    +0.000 OA
ATOM     11  S   UNL     1      11.233  13.445  16.904  0.00  0.00    +0.000 S 
ATOM     12  H   UNL     1      10.378  10.968  17.380  0.00  0.00    +0.000 HD
ENDBRANCH   2   9
ENDBRANCH   1   2
BRANCH   1  13
ATOM     13  C   UNL     1       7.765   7.736  17.675  0.00  0.00    +0.000 C 
BRANCH  13  14
ATOM     14  O   UNL     1       6.494   7.627  17.029  0.00  0.00    +0.000 OA
BRANCH  14  15
ATOM     15  C   UNL     1       6.007   6.356  16.862  0.00  0.00    +0.000 A 
ATOM     16  C   UNL     1       5.343   5.604  17.834  0.00  0.00    +0.000 A 
ATOM     17  C   UNL     1       4.864   4.323  17.535  0.00  0.00    +0.000 A 
ATOM     18  C   UNL     1       5.052   3.784  16.260  0.00  0.00    +0.000 A 
ATOM     19  C   UNL     1       5.729   4.527  15.285  0.00  0.00    +0.000 A 
ATOM     20  C   UNL     1       6.204   5.809  15.591  0.00  0.00    +0.000 A 
BRANCH  17  21
ATOM     21  C   UNL     1       4.166   3.572  18.537  0.00  0.00    +0.000 C 
ATOM     22  N   UNL     1       3.615   2.959  19.354  0.00  0.00    +0.000 NA
ENDBRANCH  17  21
BRANCH  19  23
ATOM     23  C   UNL     1       5.923   3.979  13.976  0.00  0.00    +0.000 C 
ATOM     24  N   UNL     1       6.093   3.540  12.914  0.00  0.00    +0.000 NA
ENDBRANCH  19  23
ENDBRANCH  14  15
ENDBRANCH  13  14
ENDBRANCH   1  13
TORSDOF 7
ENDMDL
MODEL 5
REMARK VINA RESULT:      -6.8      4.973      7.977
REMARK  Name = 
REMARK  8 active torsions:
REMARK  status: ('A' for Active; 'I' for Inactive)
REMARK    1  A    between atoms: C_1  and  C_2
REMARK    2  A    between atoms: C_7  and  C_9
REMARK    3  A    between atoms: C_9  and  C_10
REMARK    4  A    between atoms: C_10  and  C_11
REMARK    5  A    between atoms: C_11  and  O_12
REMARK    6  A    between atoms: O_12  and  C_13
REMARK    7  A    between atoms: C_15  and  C_16
REMARK    8  A    between atoms: C_19  and  C_20
REMARK                            x       y       z     vdW  Elec       q    Type
REMARK                         _______ _______ _______ _____ _____    ______ ____
ROOT
ATOM      1  C   UNL     1       1.966   4.466  19.285  0.00  0.00    +0.000 C 
ENDROOT
BRANCH   1   2
ATOM      2  C   UNL     1       2.726   5.527  20.090  0.00  0.00    +0.000 C 
BRANCH   2   9
ATOM      3  C   UNL     1      -0.950  11.735  22.356  0.00  0.00    +0.000 C 
ATOM      4  C   UNL     1      -0.084  10.712  21.716  0.00  0.00    +0.000 A 
ATOM      5  C   UNL     1       0.603  10.790  20.523  0.00  0.00    +0.000 A 
ATOM      6  N   UNL     1       1.284   9.653  20.156  0.00  0.00    +0.000 NA
ATOM      7  C   UNL     1       1.108   8.724  21.059  0.00  0.00    +0.000 A 
ATOM      8  N   UNL     1       1.579   7.437  21.050  0.00  0.00    +0.000 N 
ATOM      9  C   UNL     1       2.115   6.904  19.897  0.00  0.00    +0.000 C 
ATOM     10  O   UNL     1       2.107   7.426  18.787  0.00  0.00    +0.000 OA
ATOM     11  S   UNL     1       0.190   9.170  22.429  0.00  0.00    +0.000 S 
ATOM     12  H   UNL     1       1.438   6.882  21.881  0.00  0.00    +0.000 HD
ENDBRANCH   2   9
ENDBRANCH   1   2
BRANCH   1  13
ATOM     13  C   UNL     1       2.824   3.887  18.158  0.00  0.00    +0.000 C 
BRANCH  13  14
ATOM     14  O   UNL     1       4.198   3.894  18.552  0.00  0.00    +0.000 OA
BRANCH  14  15
ATOM     15  C   UNL     1       5.063   4.562  17.723  0.00  0.00    +0.000 A 
ATOM     16  C   UNL     1       5.820   5.684  18.069  0.00  0.00    +0.000 A 
ATOM     17  C   UNL     1       6.694   6.263  17.141  0.00  0.00    +0.000 A 
ATOM     18  C   UNL     1       6.811   5.726  15.858  0.00  0.00    +0.000 A 
ATOM     19  C   UNL     1       6.044   4.609  15.499  0.00  0.00    +0.000 A 
ATOM     20  C   UNL     1       5.173   4.034  16.434  0.00  0.00    +0.000 A 
BRANCH  17  21
ATOM     21  C   UNL     1       7.480   7.401  17.519  0.00  0.00    +0.000 C 
ATOM     22  N   UNL     1       8.110   8.321  17.839  0.00  0.00    +0.000 NA
ENDBRANCH  17  21
BRANCH  19  23
ATOM     23  C   UNL     1       6.161   4.054  14.184  0.00  0.00    +0.000 C 
ATOM     24  N   UNL     1       6.244   3.608  13.115  0.00  0.00    +0.000 NA
ENDBRANCH  19  23
ENDBRANCH  14  15
ENDBRANCH  13  14
ENDBRANCH   1  13
TORSDOF 7
ENDMDL
MODEL 6
REMARK VINA RESULT:      -6.7      3.245      8.873
REMARK  Name = 
REMARK  8 active torsions:
REMARK  status: ('A' for Active; 'I' for Inactive)
REMARK    1  A    between atoms: C_1  and  C_2
REMARK    2  A    between atoms: C_7  and  C_9
REMARK    3  A    between atoms: C_9  and  C_10
REMARK    4  A    between atoms: C_10  and  C_11
REMARK    5  A    between atoms: C_11  and  O_12
REMARK    6  A    between atoms: O_12  and  C_13
REMARK    7  A    between atoms: C_15  and  C_16
REMARK    8  A    between atoms: C_19  and  C_20
REMARK                            x       y       z     vdW  Elec       q    Type
REMARK                         _______ _______ _______ _____ _____    ______ ____
ROOT
ATOM      1  C   UNL     1       7.502   5.864  17.015  0.00  0.00    +0.000 C 
ENDROOT
BRANCH   1   2
ATOM      2  C   UNL     1       7.799   6.616  18.319  0.00  0.00    +0.000 C 
BRANCH   2   9
ATOM      3  C   UNL     1      10.237  13.548  20.102  0.00  0.00    +0.000 C 
ATOM      4  C   UNL     1       9.827  12.273  19.460  0.00  0.00    +0.000 A 
ATOM      5  C   UNL     1       9.549  12.028  18.132  0.00  0.00    +0.000 A 
ATOM      6  N   UNL     1       9.136  10.749  17.839  0.00  0.00    +0.000 NA
ATOM      7  C   UNL     1       9.097  10.038  18.935  0.00  0.00    +0.000 A 
ATOM      8  N   UNL     1       8.700   8.734  19.082  0.00  0.00    +0.000 N 
ATOM      9  C   UNL     1       8.037   8.093  18.058  0.00  0.00    +0.000 C 
ATOM     10  O   UNL     1       7.627   8.611  17.025  0.00  0.00    +0.000 OA
ATOM     11  S   UNL     1       9.621  10.821  20.360  0.00  0.00    +0.000 S 
ATOM     12  H   UNL     1       8.833   8.305  19.985  0.00  0.00    +0.000 HD
ENDBRANCH   2   9
ENDBRANCH   1   2
BRANCH   1  13
ATOM     13  C   UNL     1       5.998   5.678  16.799  0.00  0.00    +0.000 C 
BRANCH  13  14
ATOM     14  O   UNL     1       5.520   4.626  17.642  0.00  0.00    +0.000 OA
BRANCH  14  15
ATOM     15  C   UNL     1       4.443   4.928  18.434  0.00  0.00    +0.000 A 
ATOM     16  C   UNL     1       3.913   4.108  19.434  0.00  0.00    +0.000 A 
ATOM     17  C   UNL     1       2.824   4.540  20.201  0.00  0.00    +0.000 A 
ATOM     18  C   UNL     1       2.255   5.794  19.967  0.00  0.00    +0.000 A 
ATOM     19  C   UNL     1       2.773   6.615  18.958  0.00  0.00    +0.000 A 
ATOM     20  C   UNL     1       3.864   6.177  18.196  0.00  0.00    +0.000 A 
BRANCH  17  21
ATOM     21  C   UNL     1       2.304   3.696  21.237  0.00  0.00    +0.000 C 
ATOM     22  N   UNL     1       1.891   3.001  22.069  0.00  0.00    +0.000 NA
ENDBRANCH  17  21
BRANCH  19  23
ATOM     23  C   UNL     1       2.194   7.902  18.715  0.00  0.00    +0.000 C 
ATOM     24  N   UNL     1       1.718   8.941  18.508  0.00  0.00    +0.000 NA
ENDBRANCH  19  23
ENDBRANCH  14  15
ENDBRANCH  13  14
ENDBRANCH   1  13
TORSDOF 7
ENDMDL
MODEL 7
REMARK VINA RESULT:      -6.6      7.495     10.497
REMARK  Name = 
REMARK  8 active torsions:
REMARK  status: ('A' for Active; 'I' for Inactive)
REMARK    1  A    between atoms: C_1  and  C_2
REMARK    2  A    between atoms: C_7  and  C_9
REMARK    3  A    between atoms: C_9  and  C_10
REMARK    4  A    between atoms: C_10  and  C_11
REMARK    5  A    between atoms: C_11  and  O_12
REMARK    6  A    between atoms: O_12  and  C_13
REMARK    7  A    between atoms: C_15  and  C_16
REMARK    8  A    between atoms: C_19  and  C_20
REMARK                            x       y       z     vdW  Elec       q    Type
REMARK                         _______ _______ _______ _____ _____    ______ ____
ROOT
ATOM      1  C   UNL     1       1.289  10.144  18.374  0.00  0.00    +0.000 C 
ENDROOT
BRANCH   1   2
ATOM      2  C   UNL     1       0.016  10.195  19.227  0.00  0.00    +0.000 C 
BRANCH   2   9
ATOM      3  C   UNL     1      -7.018  12.548  17.754  0.00  0.00    +0.000 C 
ATOM      4  C   UNL     1      -5.594  12.125  17.737  0.00  0.00    +0.000 A 
ATOM      5  C   UNL     1      -4.824  11.735  16.661  0.00  0.00    +0.000 A 
ATOM      6  N   UNL     1      -3.542  11.341  16.962  0.00  0.00    +0.000 NA
ATOM      7  C   UNL     1      -3.346  11.427  18.252  0.00  0.00    +0.000 A 
ATOM      8  N   UNL     1      -2.222  11.089  18.960  0.00  0.00    +0.000 N 
ATOM      9  C   UNL     1      -1.221  10.357  18.361  0.00  0.00    +0.000 C 
ATOM     10  O   UNL     1      -1.269   9.837  17.251  0.00  0.00    +0.000 OA
ATOM     11  S   UNL     1      -4.645  12.051  19.170  0.00  0.00    +0.000 S 
ATOM     12  H   UNL     1      -2.204  11.319  19.942  0.00  0.00    +0.000 HD
ENDBRANCH   2   9
ENDBRANCH   1   2
BRANCH   1  13
ATOM     13  C   UNL     1       1.787   8.709  18.184  0.00  0.00    +0.000 C 
BRANCH  13  14
ATOM     14  O   UNL     1       2.014   8.109  19.462  0.00  0.00    +0.000 OA
BRANCH  14  15
ATOM     15  C   UNL     1       2.355   6.781  19.455  0.00  0.00    +0.000 A 
ATOM     16  C   UNL     1       1.999   5.843  20.428  0.00  0.00    +0.000 A 
ATOM     17  C   UNL     1       2.383   4.503  20.296  0.00  0.00    +0.000 A 
ATOM     18  C   UNL     1       3.133   4.095  19.190  0.00  0.00    +0.000 A 
ATOM     19  C   UNL     1       3.505   5.032  18.218  0.00  0.00    +0.000 A 
ATOM     20  C   UNL     1       3.115   6.371  18.356  0.00  0.00    +0.000 A 
BRANCH  17  21
ATOM     21  C   UNL     1       1.992   3.549  21.291  0.00  0.00    +0.000 C 
ATOM     22  N   UNL     1       1.663   2.772  22.088  0.00  0.00    +0.000 NA
ENDBRANCH  17  21
BRANCH  19  23
ATOM     23  C   UNL     1       4.273   4.618  17.082  0.00  0.00    +0.000 C 
ATOM     24  N   UNL     1       4.906   4.280  16.169  0.00  0.00    +0.000 NA
ENDBRANCH  19  23
ENDBRANCH  14  15
ENDBRANCH  13  14
ENDBRANCH   1  13
TORSDOF 7
ENDMDL
MODEL 8
REMARK VINA RESULT:      -6.6      3.203      8.910
REMARK  Name = 
REMARK  8 active torsions:
REMARK  status: ('A' for Active; 'I' for Inactive)
REMARK    1  A    between atoms: C_1  and  C_2
REMARK    2  A    between atoms: C_7  and  C_9
REMARK    3  A    between atoms: C_9  and  C_10
REMARK    4  A    between atoms: C_10  and  C_11
REMARK    5  A    between atoms: C_11  and  O_12
REMARK    6  A    between atoms: O_12  and  C_13
REMARK    7  A    between atoms: C_15  and  C_16
REMARK    8  A    between atoms: C_19  and  C_20
REMARK                            x       y       z     vdW  Elec       q    Type
REMARK                         _______ _______ _______ _____ _____    ______ ____
ROOT
ATOM      1  C   UNL     1       7.233   5.893  16.839  0.00  0.00    +0.000 C 
ENDROOT
BRANCH   1   2
ATOM      2  C   UNL     1       6.849   7.365  17.038  0.00  0.00    +0.000 C 
BRANCH   2   9
ATOM      3  C   UNL     1      10.789  13.367  19.410  0.00  0.00    +0.000 C 
ATOM      4  C   UNL     1      10.036  12.097  19.242  0.00  0.00    +0.000 A 
ATOM      5  C   UNL     1      10.000  11.000  20.077  0.00  0.00    +0.000 A 
ATOM      6  N   UNL     1       9.251   9.938  19.628  0.00  0.00    +0.000 NA
ATOM      7  C   UNL     1       8.731  10.228  18.463  0.00  0.00    +0.000 A 
ATOM      8  N   UNL     1       7.958   9.429  17.661  0.00  0.00    +0.000 N 
ATOM      9  C   UNL     1       7.855   8.080  17.923  0.00  0.00    +0.000 C 
ATOM     10  O   UNL     1       8.503   7.451  18.754  0.00  0.00    +0.000 OA
ATOM     11  S   UNL     1       9.038  11.801  17.872  0.00  0.00    +0.000 S 
ATOM     12  H   UNL     1       7.551   9.848  16.839  0.00  0.00    +0.000 HD
ENDBRANCH   2   9
ENDBRANCH   1   2
BRANCH   1  13
ATOM     13  C   UNL     1       6.031   4.963  17.022  0.00  0.00    +0.000 C 
BRANCH  13  14
ATOM     14  O   UNL     1       5.923   4.588  18.398  0.00  0.00    +0.000 OA
BRANCH  14  15
ATOM     15  C   UNL     1       4.699   4.782  18.984  0.00  0.00    +0.000 A 
ATOM     16  C   UNL     1       4.034   3.867  19.805  0.00  0.00    +0.000 A 
ATOM     17  C   UNL     1       2.796   4.193  20.372  0.00  0.00    +0.000 A 
ATOM     18  C   UNL     1       2.213   5.435  20.116  0.00  0.00    +0.000 A 
ATOM     19  C   UNL     1       2.867   6.352  19.283  0.00  0.00    +0.000 A 
ATOM     20  C   UNL     1       4.106   6.020  18.720  0.00  0.00    +0.000 A 
BRANCH  17  21
ATOM     21  C   UNL     1       2.137   3.252  21.230  0.00  0.00    +0.000 C 
ATOM     22  N   UNL     1       1.592   2.488  21.912  0.00  0.00    +0.000 NA
ENDBRANCH  17  21
BRANCH  19  23
ATOM     23  C   UNL     1       2.273   7.628  19.017  0.00  0.00    +0.000 C 
ATOM     24  N   UNL     1       1.788   8.664  18.815  0.00  0.00    +0.000 NA
ENDBRANCH  19  23
ENDBRANCH  14  15
ENDBRANCH  13  14
ENDBRANCH   1  13
TORSDOF 7
ENDMDL
MODEL 9
REMARK VINA RESULT:      -6.6      1.659      3.208
REMARK  Name = 
REMARK  8 active torsions:
REMARK  status: ('A' for Active; 'I' for Inactive)
REMARK    1  A    between atoms: C_1  and  C_2
REMARK    2  A    between atoms: C_7  and  C_9
REMARK    3  A    between atoms: C_9  and  C_10
REMARK    4  A    between atoms: C_10  and  C_11
REMARK    5  A    between atoms: C_11  and  O_12
REMARK    6  A    between atoms: O_12  and  C_13
REMARK    7  A    between atoms: C_15  and  C_16
REMARK    8  A    between atoms: C_19  and  C_20
REMARK                            x       y       z     vdW  Elec       q    Type
REMARK                         _______ _______ _______ _____ _____    ______ ____
ROOT
ATOM      1  C   UNL     1       7.766   7.103  18.066  0.00  0.00    +0.000 C 
ENDROOT
BRANCH   1   2
ATOM      2  C   UNL     1       6.763   6.702  16.977  0.00  0.00    +0.000 C 
BRANCH   2   9
ATOM      3  C   UNL     1       1.620   2.713  20.826  0.00  0.00    +0.000 C 
ATOM      4  C   UNL     1       2.471   3.742  20.176  0.00  0.00    +0.000 A 
ATOM      5  C   UNL     1       2.184   5.070  19.936  0.00  0.00    +0.000 A 
ATOM      6  N   UNL     1       3.154   5.772  19.259  0.00  0.00    +0.000 NA
ATOM      7  C   UNL     1       4.159   4.982  18.986  0.00  0.00    +0.000 A 
ATOM      8  N   UNL     1       5.302   5.280  18.290  0.00  0.00    +0.000 N 
ATOM      9  C   UNL     1       5.386   6.449  17.565  0.00  0.00    +0.000 C 
ATOM     10  O   UNL     1       4.470   7.238  17.354  0.00  0.00    +0.000 OA
ATOM     11  S   UNL     1       4.046   3.386  19.582  0.00  0.00    +0.000 S 
ATOM     12  H   UNL     1       6.027   4.579  18.262  0.00  0.00    +0.000 HD
ENDBRANCH   2   9
ENDBRANCH   1   2
BRANCH   1  13
ATOM     13  C   UNL     1       8.131   8.587  17.983  0.00  0.00    +0.000 C 
BRANCH  13  14
ATOM     14  O   UNL     1       8.973   8.934  19.085  0.00  0.00    +0.000 OA
BRANCH  14  15
ATOM     15  C   UNL     1       9.383  10.241  19.145  0.00  0.00    +0.000 A 
ATOM     16  C   UNL     1       9.978  10.957  18.103  0.00  0.00    +0.000 A 
ATOM     17  C   UNL     1      10.328  12.302  18.277  0.00  0.00    +0.000 A 
ATOM     18  C   UNL     1      10.089  12.937  19.497  0.00  0.00    +0.000 A 
ATOM     19  C   UNL     1       9.506  12.221  20.551  0.00  0.00    +0.000 A 
ATOM     20  C   UNL     1       9.156  10.877  20.369  0.00  0.00    +0.000 A 
BRANCH  17  21
ATOM     21  C   UNL     1      10.919  13.029  17.191  0.00  0.00    +0.000 C 
ATOM     22  N   UNL     1      11.407  13.605  16.311  0.00  0.00    +0.000 NA
ENDBRANCH  17  21
BRANCH  19  23
ATOM     23  C   UNL     1       9.258  12.868  21.804  0.00  0.00    +0.000 C 
ATOM     24  N   UNL     1       9.045  13.395  22.817  0.00  0.00    +0.000 NA
ENDBRANCH  19  23
ENDBRANCH  14  15
ENDBRANCH  13  14
ENDBRANCH   1  13
TORSDOF 7
ENDMDL
