MODEL 1
REMARK VINA RESULT:      -9.2      0.000      0.000
REMARK  Name = 
REMARK  9 active torsions:
REMARK  status: ('A' for Active; 'I' for Inactive)
REMARK    1  A    between atoms: C_1  and  O_2
REMARK    2  A    between atoms: O_2  and  C_3
REMARK    3  A    between atoms: C_6  and  N_7
REMARK    4  A    between atoms: N_10  and  C_11
REMARK    5  A    between atoms: N_10  and  C_24
REMARK    6  A    between atoms: C_11  and  C_12
REMARK    7  A    between atoms: C_16  and  C_17
REMARK    8  A    between atoms: C_22  and  O_23
REMARK    9  A    between atoms: C_24  and  C_25
REMARK                            x       y       z     vdW  Elec       q    Type
REMARK                         _______ _______ _______ _____ _____    ______ ____
ROOT
ATOM      1  N   UNL     1       3.123   6.675  18.436  0.00  0.00    +0.000 N 
ATOM      2  C   UNL     1       2.640   5.422  18.108  0.00  0.00    +0.000 C 
ATOM      3  O   UNL     1       1.463   5.197  17.849  0.00  0.00    +0.000 OA
ATOM      4  N   UNL     1       3.560   4.387  18.101  0.00  0.00    +0.000 N 
ATOM      5  H   UNL     1       4.102   6.823  18.436  0.00  0.00    +0.000 HD
ENDROOT
BRANCH   1   9
ATOM      6  C   UNL     1       0.725  10.042  19.403  0.00  0.00    +0.000 A 
ATOM      7  C   UNL     1       1.235   9.902  18.117  0.00  0.00    +0.000 A 
ATOM      8  C   UNL     1       2.018   8.797  17.775  0.00  0.00    +0.000 A 
ATOM      9  C   UNL     1       2.330   7.815  18.719  0.00  0.00    +0.000 A 
ATOM     10  C   UNL     1       1.818   7.964  20.020  0.00  0.00    +0.000 A 
ATOM     11  C   UNL     1       1.027   9.075  20.360  0.00  0.00    +0.000 A 
BRANCH   6  13
ATOM     12  C   UNL     1      -1.247  11.254  18.911  0.00  0.00    +0.000 C 
ATOM     13  O   UNL     1      -0.010  11.175  19.607  0.00  0.00    +0.000 OA
ENDBRANCH   6  13
ENDBRANCH   1   9
BRANCH   4  14
ATOM     14  C   UNL     1       5.010   4.508  18.248  0.00  0.00    +0.000 C 
BRANCH  14  15
ATOM     15  C   UNL     1       5.782   4.566  16.953  0.00  0.00    +0.000 A 
ATOM     16  C   UNL     1       5.893   3.479  16.097  0.00  0.00    +0.000 A 
ATOM     17  C   UNL     1       6.188   3.750  14.765  0.00  0.00    +0.000 A 
ATOM     18  C   UNL     1       5.445   3.190  13.713  0.00  0.00    +0.000 A 
ATOM     19  C   UNL     1       5.706   3.616  12.412  0.00  0.00    +0.000 A 
ATOM     20  C   UNL     1       4.648   3.570  11.364  0.00  0.00    +0.000 C 
ATOM     21  C   UNL     1       6.920   4.249  12.156  0.00  0.00    +0.000 A 
ATOM     22  C   UNL     1       7.578   4.869  13.216  0.00  0.00    +0.000 A 
ATOM     23  C   UNL     1       6.995   4.838  14.480  0.00  0.00    +0.000 A 
ATOM     24  N   UNL     1       7.010   5.884  15.332  0.00  0.00    +0.000 NA
ATOM     25  C   UNL     1       6.236   5.762  16.435  0.00  0.00    +0.000 A 
BRANCH  25  26
ATOM     26  O   UNL     1       5.627   6.918  16.851  0.00  0.00    +0.000 OA
ATOM     27  H   UNL     1       5.049   7.149  16.108  0.00  0.00    +0.000 HD
ENDBRANCH  25  26
ENDBRANCH  14  15
ENDBRANCH   4  14
BRANCH   4  28
ATOM     28  C   UNL     1       3.014   3.027  17.995  0.00  0.00    +0.000 C 
BRANCH  28  29
ATOM     29  C   UNL     1       2.643   2.398  19.339  0.00  0.00    +0.000 C 
ATOM     30  C   UNL     1       1.213   2.715  19.740  0.00  0.00    +0.000 C 
ATOM     31  C   UNL     1       1.250   2.474  21.227  0.00  0.00    +0.000 C 
ATOM     32  C   UNL     1       2.652   2.909  21.607  0.00  0.00    +0.000 C 
ATOM     33  O   UNL     1       3.442   2.947  20.406  0.00  0.00    +0.000 OA
ENDBRANCH  28  29
ENDBRANCH   4  28
TORSDOF 7
ENDMDL
MODEL 2
REMARK VINA RESULT:      -7.6      1.961      2.852
REMARK  Name = 
REMARK  9 active torsions:
REMARK  status: ('A' for Active; 'I' for Inactive)
REMARK    1  A    between atoms: C_1  and  O_2
REMARK    2  A    between atoms: O_2  and  C_3
REMARK    3  A    between atoms: C_6  and  N_7
REMARK    4  A    between atoms: N_10  and  C_11
REMARK    5  A    between atoms: N_10  and  C_24
REMARK    6  A    between atoms: C_11  and  C_12
REMARK    7  A    between atoms: C_16  and  C_17
REMARK    8  A    between atoms: C_22  and  O_23
REMARK    9  A    between atoms: C_24  and  C_25
REMARK                            x       y       z     vdW  Elec       q    Type
REMARK                         _______ _______ _______ _____ _____    ______ ____
ROOT
ATOM      1  N   UNL     1       1.420   8.828  18.697  0.00  0.00    +0.000 N 
ATOM      2  C   UNL     1       1.657   8.014  19.789  0.00  0.00    +0.000 C 
ATOM      3  O   UNL     1       1.523   8.383  20.951  0.00  0.00    +0.000 OA
ATOM      4  N   UNL     1       2.085   6.725  19.517  0.00  0.00    +0.000 N 
ATOM      5  H   UNL     1       1.353   8.415  17.801  0.00  0.00    +0.000 HD
ENDROOT
BRANCH   1   9
ATOM      6  C   UNL     1       0.873  13.037  18.810  0.00  0.00    +0.000 A 
ATOM      7  C   UNL     1      -0.154  12.194  19.219  0.00  0.00    +0.000 A 
ATOM      8  C   UNL     1       0.008  10.807  19.200  0.00  0.00    +0.000 A 
ATOM      9  C   UNL     1       1.197  10.227  18.747  0.00  0.00    +0.000 A 
ATOM     10  C   UNL     1       2.230  11.082  18.327  0.00  0.00    +0.000 A 
ATOM     11  C   UNL     1       2.065  12.478  18.353  0.00  0.00    +0.000 A 
BRANCH   6  13
ATOM     12  C   UNL     1       1.680  15.260  18.758  0.00  0.00    +0.000 C 
ATOM     13  O   UNL     1       0.578  14.369  18.865  0.00  0.00    +0.000 OA
ENDBRANCH   6  13
ENDBRANCH   1   9
BRANCH   4  14
ATOM     14  C   UNL     1       2.161   6.090  18.202  0.00  0.00    +0.000 C 
BRANCH  14  15
ATOM     15  C   UNL     1       3.558   5.919  17.655  0.00  0.00    +0.000 A 
ATOM     16  C   UNL     1       4.079   4.681  17.305  0.00  0.00    +0.000 A 
ATOM     17  C   UNL     1       5.131   4.672  16.397  0.00  0.00    +0.000 A 
ATOM     18  C   UNL     1       5.129   3.837  15.268  0.00  0.00    +0.000 A 
ATOM     19  C   UNL     1       6.148   3.983  14.328  0.00  0.00    +0.000 A 
ATOM     20  C   UNL     1       5.929   3.624  12.899  0.00  0.00    +0.000 C 
ATOM     21  C   UNL     1       7.316   4.635  14.717  0.00  0.00    +0.000 A 
ATOM     22  C   UNL     1       7.251   5.523  15.787  0.00  0.00    +0.000 A 
ATOM     23  C   UNL     1       6.026   5.728  16.418  0.00  0.00    +0.000 A 
ATOM     24  N   UNL     1       5.605   6.935  16.849  0.00  0.00    +0.000 NA
ATOM     25  C   UNL     1       4.317   7.002  17.261  0.00  0.00    +0.000 A 
BRANCH  25  26
ATOM     26  O   UNL     1       3.667   8.171  16.959  0.00  0.00    +0.000 OA
ATOM     27  H   UNL     1       3.042   8.278  17.693  0.00  0.00    +0.000 HD
ENDBRANCH  25  26
ENDBRANCH  14  15
ENDBRANCH   4  14
BRANCH   4  28
ATOM     28  C   UNL     1       2.569   5.942  20.663  0.00  0.00    +0.000 C 
BRANCH  28  29
ATOM     29  C   UNL     1       2.362   4.433  20.519  0.00  0.00    +0.000 C 
ATOM     30  C   UNL     1       0.942   4.091  20.101  0.00  0.00    +0.000 C 
ATOM     31  C   UNL     1       0.836   2.649  20.525  0.00  0.00    +0.000 C 
ATOM     32  C   UNL     1       1.687   2.600  21.780  0.00  0.00    +0.000 C 
ATOM     33  O   UNL     1       2.532   3.763  21.785  0.00  0.00    +0.000 OA
ENDBRANCH  28  29
ENDBRANCH   4  28
TORSDOF 7
ENDMDL
MODEL 3
REMARK VINA RESULT:      -7.2      3.943      8.107
REMARK  Name = 
REMARK  9 active torsions:
REMARK  status: ('A' for Active; 'I' for Inactive)
REMARK    1  A    between atoms: C_1  and  O_2
REMARK    2  A    between atoms: O_2  and  C_3
REMARK    3  A    between atoms: C_6  and  N_7
REMARK    4  A    between atoms: N_10  and  C_11
REMARK    5  A    between atoms: N_10  and  C_24
REMARK    6  A    between atoms: C_11  and  C_12
REMARK    7  A    between atoms: C_16  and  C_17
REMARK    8  A    between atoms: C_22  and  O_23
REMARK    9  A    between atoms: C_24  and  C_25
REMARK                            x       y       z     vdW  Elec       q    Type
REMARK                         _______ _______ _______ _____ _____    ______ ____
ROOT
ATOM      1  N   UNL     1      -1.742  11.593  19.417  0.00  0.00    +0.000 N 
ATOM      2  C   UNL     1      -0.599  12.208  18.943  0.00  0.00    +0.000 C 
ATOM      3  O   UNL     1      -0.610  13.133  18.138  0.00  0.00    +0.000 OA
ATOM      4  N   UNL     1       0.608  11.714  19.411  0.00  0.00    +0.000 N 
ATOM      5  H   UNL     1      -1.672  10.998  20.204  0.00  0.00    +0.000 HD
ENDROOT
BRANCH   1   9
ATOM      6  C   UNL     1      -5.626  12.111  17.781  0.00  0.00    +0.000 A 
ATOM      7  C   UNL     1      -5.322  12.649  19.027  0.00  0.00    +0.000 A 
ATOM      8  C   UNL     1      -4.048  12.499  19.579  0.00  0.00    +0.000 A 
ATOM      9  C   UNL     1      -3.051  11.785  18.907  0.00  0.00    +0.000 A 
ATOM     10  C   UNL     1      -3.365  11.236  17.652  0.00  0.00    +0.000 A 
ATOM     11  C   UNL     1      -4.647  11.393  17.097  0.00  0.00    +0.000 A 
BRANCH   6  13
ATOM     12  C   UNL     1      -7.767  12.984  18.284  0.00  0.00    +0.000 C 
ATOM     13  O   UNL     1      -6.911  12.317  17.366  0.00  0.00    +0.000 OA
ENDBRANCH   6  13
ENDBRANCH   1   9
BRANCH   4  14
ATOM     14  C   UNL     1       0.793  10.719  20.467  0.00  0.00    +0.000 C 
BRANCH  14  15
ATOM     15  C   UNL     1       1.153   9.335  19.986  0.00  0.00    +0.000 A 
ATOM     16  C   UNL     1       1.432   9.053  18.656  0.00  0.00    +0.000 A 
ATOM     17  C   UNL     1       2.195   7.920  18.396  0.00  0.00    +0.000 A 
ATOM     18  C   UNL     1       3.315   7.959  17.550  0.00  0.00    +0.000 A 
ATOM     19  C   UNL     1       4.113   6.821  17.447  0.00  0.00    +0.000 A 
ATOM     20  C   UNL     1       5.559   6.928  17.103  0.00  0.00    +0.000 C 
ATOM     21  C   UNL     1       3.575   5.599  17.845  0.00  0.00    +0.000 A 
ATOM     22  C   UNL     1       2.522   5.607  18.756  0.00  0.00    +0.000 A 
ATOM     23  C   UNL     1       2.057   6.829  19.236  0.00  0.00    +0.000 A 
ATOM     24  N   UNL     1       1.685   7.031  20.517  0.00  0.00    +0.000 NA
ATOM     25  C   UNL     1       1.444   8.315  20.870  0.00  0.00    +0.000 A 
BRANCH  25  26
ATOM     26  O   UNL     1       1.828   8.653  22.141  0.00  0.00    +0.000 OA
ATOM     27  H   UNL     1       2.119   9.574  22.052  0.00  0.00    +0.000 HD
ENDBRANCH  25  26
ENDBRANCH  14  15
ENDBRANCH   4  14
BRANCH   4  28
ATOM     28  C   UNL     1       1.819  12.195  18.732  0.00  0.00    +0.000 C 
BRANCH  28  29
ATOM     29  C   UNL     1       2.311  13.556  19.225  0.00  0.00    +0.000 C 
ATOM     30  C   UNL     1       3.493  14.061  18.415  0.00  0.00    +0.000 C 
ATOM     31  C   UNL     1       4.102  15.070  19.355  0.00  0.00    +0.000 C 
ATOM     32  C   UNL     1       3.846  14.460  20.720  0.00  0.00    +0.000 C 
ATOM     33  O   UNL     1       2.815  13.468  20.574  0.00  0.00    +0.000 OA
ENDBRANCH  28  29
ENDBRANCH   4  28
TORSDOF 7
ENDMDL
MODEL 4
REMARK VINA RESULT:      -7.2      4.628     11.140
REMARK  Name = 
REMARK  9 active torsions:
REMARK  status: ('A' for Active; 'I' for Inactive)
REMARK    1  A    between atoms: C_1  and  O_2
REMARK    2  A    between atoms: O_2  and  C_3
REMARK    3  A    between atoms: C_6  and  N_7
REMARK    4  A    between atoms: N_10  and  C_11
REMARK    5  A    between atoms: N_10  and  C_24
REMARK    6  A    between atoms: C_11  and  C_12
REMARK    7  A    between atoms: C_16  and  C_17
REMARK    8  A    between atoms: C_22  and  O_23
REMARK    9  A    between atoms: C_24  and  C_25
REMARK                            x       y       z     vdW  Elec       q    Type
REMARK                         _______ _______ _______ _____ _____    ______ ____
ROOT
ATOM      1  N   UNL     1       0.462  10.837  19.894  0.00  0.00    +0.000 N 
ATOM      2  C   UNL     1       0.280  11.240  21.203  0.00  0.00    +0.000 C 
ATOM      3  O   UNL     1       0.842  10.715  22.158  0.00  0.00    +0.000 OA
ATOM      4  N   UNL     1      -0.607  12.284  21.411  0.00  0.00    +0.000 N 
ATOM      5  H   UNL     1       0.139  11.424  19.165  0.00  0.00    +0.000 HD
ENDROOT
BRANCH   1   9
ATOM      6  C   UNL     1       2.498   7.365  18.542  0.00  0.00    +0.000 A 
ATOM      7  C   UNL     1       2.007   7.418  19.842  0.00  0.00    +0.000 A 
ATOM      8  C   UNL     1       1.325   8.546  20.303  0.00  0.00    +0.000 A 
ATOM      9  C   UNL     1       1.138   9.661  19.481  0.00  0.00    +0.000 A 
ATOM     10  C   UNL     1       1.643   9.607  18.171  0.00  0.00    +0.000 A 
ATOM     11  C   UNL     1       2.324   8.469  17.708  0.00  0.00    +0.000 A 
BRANCH   6  13
ATOM     12  C   UNL     1       3.893   5.601  19.276  0.00  0.00    +0.000 C 
ATOM     13  O   UNL     1       3.157   6.212  18.224  0.00  0.00    +0.000 OA
ENDBRANCH   6  13
ENDBRANCH   1   9
BRANCH   4  14
ATOM     14  C   UNL     1      -1.247  13.103  20.382  0.00  0.00    +0.000 C 
BRANCH  14  15
ATOM     15  C   UNL     1      -2.474  12.491  19.750  0.00  0.00    +0.000 A 
ATOM     16  C   UNL     1      -3.743  12.619  20.298  0.00  0.00    +0.000 A 
ATOM     17  C   UNL     1      -4.823  12.456  19.439  0.00  0.00    +0.000 A 
ATOM     18  C   UNL     1      -5.876  13.382  19.387  0.00  0.00    +0.000 A 
ATOM     19  C   UNL     1      -6.852  13.229  18.404  0.00  0.00    +0.000 A 
ATOM     20  C   UNL     1      -7.610  14.403  17.889  0.00  0.00    +0.000 C 
ATOM     21  C   UNL     1      -6.980  11.986  17.789  0.00  0.00    +0.000 A 
ATOM     22  C   UNL     1      -5.878  11.134  17.788  0.00  0.00    +0.000 A 
ATOM     23  C   UNL     1      -4.697  11.560  18.390  0.00  0.00    +0.000 A 
ATOM     24  N   UNL     1      -3.472  11.314  17.882  0.00  0.00    +0.000 NA
ATOM     25  C   UNL     1      -2.442  11.958  18.477  0.00  0.00    +0.000 A 
BRANCH  25  26
ATOM     26  O   UNL     1      -1.442  12.365  17.632  0.00  0.00    +0.000 OA
ATOM     27  H   UNL     1      -1.586  11.831  16.836  0.00  0.00    +0.000 HD
ENDBRANCH  25  26
ENDBRANCH  14  15
ENDBRANCH   4  14
BRANCH   4  28
ATOM     28  C   UNL     1      -0.986  12.552  22.805  0.00  0.00    +0.000 C 
BRANCH  28  29
ATOM     29  C   UNL     1      -2.467  12.882  22.996  0.00  0.00    +0.000 C 
ATOM     30  C   UNL     1      -2.667  14.129  23.840  0.00  0.00    +0.000 C 
ATOM     31  C   UNL     1      -4.087  13.956  24.314  0.00  0.00    +0.000 C 
ATOM     32  C   UNL     1      -4.211  12.452  24.473  0.00  0.00    +0.000 C 
ATOM     33  O   UNL     1      -3.140  11.841  23.734  0.00  0.00    +0.000 OA
ENDBRANCH  28  29
ENDBRANCH   4  28
TORSDOF 7
ENDMDL
MODEL 5
REMARK VINA RESULT:      -7.2      4.078      9.783
REMARK  Name = 
REMARK  9 active torsions:
REMARK  status: ('A' for Active; 'I' for Inactive)
REMARK    1  A    between atoms: C_1  and  O_2
REMARK    2  A    between atoms: O_2  and  C_3
REMARK    3  A    between atoms: C_6  and  N_7
REMARK    4  A    between atoms: N_10  and  C_11
REMARK    5  A    between atoms: N_10  and  C_24
REMARK    6  A    between atoms: C_11  and  C_12
REMARK    7  A    between atoms: C_16  and  C_17
REMARK    8  A    between atoms: C_22  and  O_23
REMARK    9  A    between atoms: C_24  and  C_25
REMARK                            x       y       z     vdW  Elec       q    Type
REMARK                         _______ _______ _______ _____ _____    ______ ____
ROOT
ATOM      1  N   UNL     1       1.109   9.094  19.862  0.00  0.00    +0.000 N 
ATOM      2  C   UNL     1       0.860   9.598  21.125  0.00  0.00    +0.000 C 
ATOM      3  O   UNL     1       1.399   9.175  22.142  0.00  0.00    +0.000 OA
ATOM      4  N   UNL     1      -0.069  10.623  21.209  0.00  0.00    +0.000 N 
ATOM      5  H   UNL     1       0.798   9.607  19.075  0.00  0.00    +0.000 HD
ENDROOT
BRANCH   1   9
ATOM      6  C   UNL     1       3.335   5.610  18.896  0.00  0.00    +0.000 A 
ATOM      7  C   UNL     1       2.593   5.654  20.071  0.00  0.00    +0.000 A 
ATOM      8  C   UNL     1       1.846   6.786  20.403  0.00  0.00    +0.000 A 
ATOM      9  C   UNL     1       1.841   7.914  19.577  0.00  0.00    +0.000 A 
ATOM     10  C   UNL     1       2.598   7.869  18.394  0.00  0.00    +0.000 A 
ATOM     11  C   UNL     1       3.346   6.726  18.060  0.00  0.00    +0.000 A 
BRANCH   6  13
ATOM     12  C   UNL     1       5.446   4.547  18.796  0.00  0.00    +0.000 C 
ATOM     13  O   UNL     1       4.031   4.452  18.700  0.00  0.00    +0.000 OA
ENDBRANCH   6  13
ENDBRANCH   1   9
BRANCH   4  14
ATOM     14  C   UNL     1      -0.693  11.329  20.091  0.00  0.00    +0.000 C 
BRANCH  14  15
ATOM     15  C   UNL     1      -0.090  12.675  19.768  0.00  0.00    +0.000 A 
ATOM     16  C   UNL     1       1.069  13.141  20.374  0.00  0.00    +0.000 A 
ATOM     17  C   UNL     1       1.787  14.119  19.696  0.00  0.00    +0.000 A 
ATOM     18  C   UNL     1       3.171  14.012  19.487  0.00  0.00    +0.000 A 
ATOM     19  C   UNL     1       3.799  14.958  18.678  0.00  0.00    +0.000 A 
ATOM     20  C   UNL     1       5.042  14.621  17.929  0.00  0.00    +0.000 C 
ATOM     21  C   UNL     1       3.145  16.166  18.446  0.00  0.00    +0.000 A 
ATOM     22  C   UNL     1       1.760  16.202  18.580  0.00  0.00    +0.000 A 
ATOM     23  C   UNL     1       1.086  15.035  18.930  0.00  0.00    +0.000 A 
ATOM     24  N   UNL     1      -0.101  14.674  18.399  0.00  0.00    +0.000 NA
ATOM     25  C   UNL     1      -0.527  13.424  18.696  0.00  0.00    +0.000 A 
BRANCH  25  26
ATOM     26  O   UNL     1      -1.188  12.778  17.683  0.00  0.00    +0.000 OA
ATOM     27  H   UNL     1      -2.063  12.600  18.061  0.00  0.00    +0.000 HD
ENDBRANCH  25  26
ENDBRANCH  14  15
ENDBRANCH   4  14
BRANCH   4  28
ATOM     28  C   UNL     1      -0.514  10.991  22.560  0.00  0.00    +0.000 C 
BRANCH  28  29
ATOM     29  C   UNL     1      -1.718  11.934  22.584  0.00  0.00    +0.000 C 
ATOM     30  C   UNL     1      -1.376  13.277  23.207  0.00  0.00    +0.000 C 
ATOM     31  C   UNL     1      -2.738  13.793  23.592  0.00  0.00    +0.000 C 
ATOM     32  C   UNL     1      -3.486  12.529  23.973  0.00  0.00    +0.000 C 
ATOM     33  O   UNL     1      -2.770  11.411  23.422  0.00  0.00    +0.000 OA
ENDBRANCH  28  29
ENDBRANCH   4  28
TORSDOF 7
ENDMDL
MODEL 6
REMARK VINA RESULT:      -7.2      4.279      8.416
REMARK  Name = 
REMARK  9 active torsions:
REMARK  status: ('A' for Active; 'I' for Inactive)
REMARK    1  A    between atoms: C_1  and  O_2
REMARK    2  A    between atoms: O_2  and  C_3
REMARK    3  A    between atoms: C_6  and  N_7
REMARK    4  A    between atoms: N_10  and  C_11
REMARK    5  A    between atoms: N_10  and  C_24
REMARK    6  A    between atoms: C_11  and  C_12
REMARK    7  A    between atoms: C_16  and  C_17
REMARK    8  A    between atoms: C_22  and  O_23
REMARK    9  A    between atoms: C_24  and  C_25
REMARK                            x       y       z     vdW  Elec       q    Type
REMARK                         _______ _______ _______ _____ _____    ______ ____
ROOT
ATOM      1  N   UNL     1      -2.013  11.839  21.746  0.00  0.00    +0.000 N 
ATOM      2  C   UNL     1      -0.670  12.162  21.715  0.00  0.00    +0.000 C 
ATOM      3  O   UNL     1      -0.183  13.098  22.340  0.00  0.00    +0.000 OA
ATOM      4  N   UNL     1       0.137  11.376  20.909  0.00  0.00    +0.000 N 
ATOM      5  H   UNL     1      -2.301  10.964  21.385  0.00  0.00    +0.000 HD
ENDROOT
BRANCH   1   9
ATOM      6  C   UNL     1      -5.073  14.155  23.564  0.00  0.00    +0.000 A 
ATOM      7  C   UNL     1      -4.725  14.386  22.237  0.00  0.00    +0.000 A 
ATOM      8  C   UNL     1      -3.729  13.628  21.617  0.00  0.00    +0.000 A 
ATOM      9  C   UNL     1      -3.038  12.635  22.317  0.00  0.00    +0.000 A 
ATOM     10  C   UNL     1      -3.387  12.411  23.660  0.00  0.00    +0.000 A 
ATOM     11  C   UNL     1      -4.393  13.171  24.280  0.00  0.00    +0.000 A 
BRANCH   6  13
ATOM     12  C   UNL     1      -5.708  16.347  24.186  0.00  0.00    +0.000 C 
ATOM     13  O   UNL     1      -6.050  14.975  24.051  0.00  0.00    +0.000 OA
ENDBRANCH   6  13
ENDBRANCH   1   9
BRANCH   4  14
ATOM     14  C   UNL     1      -0.255  10.150  20.214  0.00  0.00    +0.000 C 
BRANCH  14  15
ATOM     15  C   UNL     1       0.871   9.418  19.523  0.00  0.00    +0.000 A 
ATOM     16  C   UNL     1       1.610   8.422  20.146  0.00  0.00    +0.000 A 
ATOM     17  C   UNL     1       2.261   7.511  19.324  0.00  0.00    +0.000 A 
ATOM     18  C   UNL     1       2.156   6.125  19.523  0.00  0.00    +0.000 A 
ATOM     19  C   UNL     1       2.720   5.270  18.577  0.00  0.00    +0.000 A 
ATOM     20  C   UNL     1       2.176   3.900  18.363  0.00  0.00    +0.000 C 
ATOM     21  C   UNL     1       3.686   5.784  17.715  0.00  0.00    +0.000 A 
ATOM     22  C   UNL     1       3.696   7.156  17.478  0.00  0.00    +0.000 A 
ATOM     23  C   UNL     1       2.739   7.954  18.102  0.00  0.00    +0.000 A 
ATOM     24  N   UNL     1       2.125   8.991  17.495  0.00  0.00    +0.000 NA
ATOM     25  C   UNL     1       1.086   9.540  18.166  0.00  0.00    +0.000 A 
BRANCH  25  26
ATOM     26  O   UNL     1       0.044   9.963  17.382  0.00  0.00    +0.000 OA
ATOM     27  H   UNL     1       0.207   9.525  16.533  0.00  0.00    +0.000 HD
ENDBRANCH  25  26
ENDBRANCH  14  15
ENDBRANCH   4  14
BRANCH   4  28
ATOM     28  C   UNL     1       1.505  11.860  20.682  0.00  0.00    +0.000 C 
BRANCH  28  29
ATOM     29  C   UNL     1       1.592  13.079  19.763  0.00  0.00    +0.000 C 
ATOM     30  C   UNL     1       2.447  12.807  18.537  0.00  0.00    +0.000 C 
ATOM     31  C   UNL     1       2.808  14.203  18.098  0.00  0.00    +0.000 C 
ATOM     32  C   UNL     1       2.922  14.954  19.412  0.00  0.00    +0.000 C 
ATOM     33  O   UNL     1       2.252  14.179  20.421  0.00  0.00    +0.000 OA
ENDBRANCH  28  29
ENDBRANCH   4  28
TORSDOF 7
ENDMDL
MODEL 7
REMARK VINA RESULT:      -7.2      1.271      1.706
REMARK  Name = 
REMARK  9 active torsions:
REMARK  status: ('A' for Active; 'I' for Inactive)
REMARK    1  A    between atoms: C_1  and  O_2
REMARK    2  A    between atoms: O_2  and  C_3
REMARK    3  A    between atoms: C_6  and  N_7
REMARK    4  A    between atoms: N_10  and  C_11
REMARK    5  A    between atoms: N_10  and  C_24
REMARK    6  A    between atoms: C_11  and  C_12
REMARK    7  A    between atoms: C_16  and  C_17
REMARK    8  A    between atoms: C_22  and  O_23
REMARK    9  A    between atoms: C_24  and  C_25
REMARK                            x       y       z     vdW  Elec       q    Type
REMARK                         _______ _______ _______ _____ _____    ______ ____
ROOT
ATOM      1  N   UNL     1       2.667   7.257  19.710  0.00  0.00    +0.000 N 
ATOM      2  C   UNL     1       2.230   6.142  19.020  0.00  0.00    +0.000 C 
ATOM      3  O   UNL     1       1.080   5.999  18.621  0.00  0.00    +0.000 OA
ATOM      4  N   UNL     1       3.166   5.143  18.804  0.00  0.00    +0.000 N 
ATOM      5  H   UNL     1       3.640   7.396  19.824  0.00  0.00    +0.000 HD
ENDROOT
BRANCH   1   9
ATOM      6  C   UNL     1       0.174  10.379  21.148  0.00  0.00    +0.000 A 
ATOM      7  C   UNL     1       0.656   9.416  22.028  0.00  0.00    +0.000 A 
ATOM      8  C   UNL     1       1.486   8.387  21.578  0.00  0.00    +0.000 A 
ATOM      9  C   UNL     1       1.835   8.282  20.229  0.00  0.00    +0.000 A 
ATOM     10  C   UNL     1       1.340   9.252  19.341  0.00  0.00    +0.000 A 
ATOM     11  C   UNL     1       0.509  10.289  19.798  0.00  0.00    +0.000 A 
BRANCH   6  13
ATOM     12  C   UNL     1      -1.205  10.980  22.974  0.00  0.00    +0.000 C 
ATOM     13  O   UNL     1      -0.638  11.319  21.715  0.00  0.00    +0.000 OA
ENDBRANCH   6  13
ENDBRANCH   1   9
BRANCH   4  14
ATOM     14  C   UNL     1       4.599   5.214  19.089  0.00  0.00    +0.000 C 
BRANCH  14  15
ATOM     15  C   UNL     1       5.491   5.257  17.873  0.00  0.00    +0.000 A 
ATOM     16  C   UNL     1       5.881   4.114  17.188  0.00  0.00    +0.000 A 
ATOM     17  C   UNL     1       6.274   4.274  15.864  0.00  0.00    +0.000 A 
ATOM     18  C   UNL     1       5.761   3.467  14.836  0.00  0.00    +0.000 A 
ATOM     19  C   UNL     1       6.092   3.775  13.518  0.00  0.00    +0.000 A 
ATOM     20  C   UNL     1       5.182   3.412  12.395  0.00  0.00    +0.000 C 
ATOM     21  C   UNL     1       7.202   4.584  13.288  0.00  0.00    +0.000 A 
ATOM     22  C   UNL     1       7.621   5.435  14.307  0.00  0.00    +0.000 A 
ATOM     23  C   UNL     1       6.912   5.449  15.506  0.00  0.00    +0.000 A 
ATOM     24  N   UNL     1       6.654   6.574  16.204  0.00  0.00    +0.000 NA
ATOM     25  C   UNL     1       5.792   6.446  17.239  0.00  0.00    +0.000 A 
BRANCH  25  26
ATOM     26  O   UNL     1       4.953   7.512  17.436  0.00  0.00    +0.000 OA
ATOM     27  H   UNL     1       4.902   7.925  16.560  0.00  0.00    +0.000 HD
ENDBRANCH  25  26
ENDBRANCH  14  15
ENDBRANCH   4  14
BRANCH   4  28
ATOM     28  C   UNL     1       2.652   3.865  18.295  0.00  0.00    +0.000 C 
BRANCH  28  29
ATOM     29  C   UNL     1       2.268   2.866  19.388  0.00  0.00    +0.000 C 
ATOM     30  C   UNL     1       1.191   3.416  20.307  0.00  0.00    +0.000 C 
ATOM     31  C   UNL     1       1.358   2.550  21.529  0.00  0.00    +0.000 C 
ATOM     32  C   UNL     1       2.854   2.299  21.566  0.00  0.00    +0.000 C 
ATOM     33  O   UNL     1       3.383   2.603  20.264  0.00  0.00    +0.000 OA
ENDBRANCH  28  29
ENDBRANCH   4  28
TORSDOF 7
ENDMDL
MODEL 8
REMARK VINA RESULT:      -7.2      4.039     11.029
REMARK  Name = 
REMARK  9 active torsions:
REMARK  status: ('A' for Active; 'I' for Inactive)
REMARK    1  A    between atoms: C_1  and  O_2
REMARK    2  A    between atoms: O_2  and  C_3
REMARK    3  A    between atoms: C_6  and  N_7
REMARK    4  A    between atoms: N_10  and  C_11
REMARK    5  A    between atoms: N_10  and  C_24
REMARK    6  A    between atoms: C_11  and  C_12
REMARK    7  A    between atoms: C_16  and  C_17
REMARK    8  A    between atoms: C_22  and  O_23
REMARK    9  A    between atoms: C_24  and  C_25
REMARK                            x       y       z     vdW  Elec       q    Type
REMARK                         _______ _______ _______ _____ _____    ______ ____
ROOT
ATOM      1  N   UNL     1       1.273   9.502  19.484  0.00  0.00    +0.000 N 
ATOM      2  C   UNL     1       0.246  10.049  18.738  0.00  0.00    +0.000 C 
ATOM      3  O   UNL     1      -0.293   9.470  17.800  0.00  0.00    +0.000 OA
ATOM      4  N   UNL     1      -0.156  11.329  19.084  0.00  0.00    +0.000 N 
ATOM      5  H   UNL     1       1.522   9.932  20.340  0.00  0.00    +0.000 HD
ENDROOT
BRANCH   1   9
ATOM      6  C   UNL     1       3.426   6.002  18.413  0.00  0.00    +0.000 A 
ATOM      7  C   UNL     1       2.721   6.042  19.611  0.00  0.00    +0.000 A 
ATOM      8  C   UNL     1       1.998   7.180  19.978  0.00  0.00    +0.000 A 
ATOM      9  C   UNL     1       1.981   8.316  19.164  0.00  0.00    +0.000 A 
ATOM     10  C   UNL     1       2.701   8.275  17.958  0.00  0.00    +0.000 A 
ATOM     11  C   UNL     1       3.424   7.127  17.589  0.00  0.00    +0.000 A 
BRANCH   6  13
ATOM     12  C   UNL     1       5.086   4.485  19.146  0.00  0.00    +0.000 C 
ATOM     13  O   UNL     1       4.101   4.838  18.184  0.00  0.00    +0.000 OA
ENDBRANCH   6  13
ENDBRANCH   1   9
BRANCH   4  14
ATOM     14  C   UNL     1       0.282  12.095  20.250  0.00  0.00    +0.000 C 
BRANCH  14  15
ATOM     15  C   UNL     1      -0.757  12.263  21.332  0.00  0.00    +0.000 A 
ATOM     16  C   UNL     1      -1.701  13.280  21.313  0.00  0.00    +0.000 A 
ATOM     17  C   UNL     1      -2.864  13.078  22.047  0.00  0.00    +0.000 A 
ATOM     18  C   UNL     1      -4.137  13.289  21.492  0.00  0.00    +0.000 A 
ATOM     19  C   UNL     1      -5.258  12.931  22.239  0.00  0.00    +0.000 A 
ATOM     20  C   UNL     1      -6.533  12.550  21.570  0.00  0.00    +0.000 C 
ATOM     21  C   UNL     1      -5.109  12.765  23.614  0.00  0.00    +0.000 A 
ATOM     22  C   UNL     1      -3.843  12.468  24.110  0.00  0.00    +0.000 A 
ATOM     23  C   UNL     1      -2.783  12.341  23.216  0.00  0.00    +0.000 A 
ATOM     24  N   UNL     1      -1.817  11.406  23.336  0.00  0.00    +0.000 NA
ATOM     25  C   UNL     1      -0.971  11.289  22.286  0.00  0.00    +0.000 A 
BRANCH  25  26
ATOM     26  O   UNL     1      -0.564  10.010  22.005  0.00  0.00    +0.000 OA
ATOM     27  H   UNL     1      -1.338   9.615  21.574  0.00  0.00    +0.000 HD
ENDBRANCH  25  26
ENDBRANCH  14  15
ENDBRANCH   4  14
BRANCH   4  28
ATOM     28  C   UNL     1      -1.068  12.003  18.150  0.00  0.00    +0.000 C 
BRANCH  28  29
ATOM     29  C   UNL     1      -2.386  11.262  17.921  0.00  0.00    +0.000 C 
ATOM     30  C   UNL     1      -2.818  11.307  16.465  0.00  0.00    +0.000 C 
ATOM     31  C   UNL     1      -4.292  11.013  16.573  0.00  0.00    +0.000 C 
ATOM     32  C   UNL     1      -4.675  11.670  17.886  0.00  0.00    +0.000 C 
ATOM     33  O   UNL     1      -3.468  11.896  18.633  0.00  0.00    +0.000 OA
ENDBRANCH  28  29
ENDBRANCH   4  28
TORSDOF 7
ENDMDL
MODEL 9
REMARK VINA RESULT:      -7.1      4.414      8.639
REMARK  Name = 
REMARK  9 active torsions:
REMARK  status: ('A' for Active; 'I' for Inactive)
REMARK    1  A    between atoms: C_1  and  O_2
REMARK    2  A    between atoms: O_2  and  C_3
REMARK    3  A    between atoms: C_6  and  N_7
REMARK    4  A    between atoms: N_10  and  C_11
REMARK    5  A    between atoms: N_10  and  C_24
REMARK    6  A    between atoms: C_11  and  C_12
REMARK    7  A    between atoms: C_16  and  C_17
REMARK    8  A    between atoms: C_22  and  O_23
REMARK    9  A    between atoms: C_24  and  C_25
REMARK                            x       y       z     vdW  Elec       q    Type
REMARK                         _______ _______ _______ _____ _____    ______ ____
ROOT
ATOM      1  N   UNL     1      -1.842  11.840  21.483  0.00  0.00    +0.000 N 
ATOM      2  C   UNL     1      -0.507  12.188  21.565  0.00  0.00    +0.000 C 
ATOM      3  O   UNL     1      -0.064  12.990  22.380  0.00  0.00    +0.000 OA
ATOM      4  N   UNL     1       0.344  11.591  20.648  0.00  0.00    +0.000 N 
ATOM      5  H   UNL     1      -2.097  11.049  20.946  0.00  0.00    +0.000 HD
ENDROOT
BRANCH   1   9
ATOM      6  C   UNL     1      -4.994  13.715  23.623  0.00  0.00    +0.000 A 
ATOM      7  C   UNL     1      -4.817  13.988  22.271  0.00  0.00    +0.000 A 
ATOM      8  C   UNL     1      -3.793  13.374  21.546  0.00  0.00    +0.000 A 
ATOM      9  C   UNL     1      -2.904  12.489  22.162  0.00  0.00    +0.000 A 
ATOM     10  C   UNL     1      -3.081  12.222  23.531  0.00  0.00    +0.000 A 
ATOM     11  C   UNL     1      -4.116  12.837  24.257  0.00  0.00    +0.000 A 
BRANCH   6  13
ATOM     12  C   UNL     1      -6.772  15.254  23.370  0.00  0.00    +0.000 C 
ATOM     13  O   UNL     1      -6.020  14.393  24.215  0.00  0.00    +0.000 OA
ENDBRANCH   6  13
ENDBRANCH   1   9
BRANCH   4  14
ATOM     14  C   UNL     1       0.005  10.521  19.711  0.00  0.00    +0.000 C 
BRANCH  14  15
ATOM     15  C   UNL     1       1.022   9.409  19.616  0.00  0.00    +0.000 A 
ATOM     16  C   UNL     1       1.255   8.517  20.654  0.00  0.00    +0.000 A 
ATOM     17  C   UNL     1       1.820   7.292  20.319  0.00  0.00    +0.000 A 
ATOM     18  C   UNL     1       1.280   6.078  20.773  0.00  0.00    +0.000 A 
ATOM     19  C   UNL     1       1.812   4.886  20.283  0.00  0.00    +0.000 A 
ATOM     20  C   UNL     1       0.983   3.651  20.208  0.00  0.00    +0.000 C 
ATOM     21  C   UNL     1       3.078   4.918  19.703  0.00  0.00    +0.000 A 
ATOM     22  C   UNL     1       3.537   6.127  19.186  0.00  0.00    +0.000 A 
ATOM     23  C   UNL     1       2.713   7.247  19.262  0.00  0.00    +0.000 A 
ATOM     24  N   UNL     1       2.601   8.157  18.271  0.00  0.00    +0.000 NA
ATOM     25  C   UNL     1       1.619   9.076  18.418  0.00  0.00    +0.000 A 
BRANCH  25  26
ATOM     26  O   UNL     1       0.987   9.445  17.258  0.00  0.00    +0.000 OA
ATOM     27  H   UNL     1       0.594  10.303  17.478  0.00  0.00    +0.000 HD
ENDBRANCH  25  26
ENDBRANCH  14  15
ENDBRANCH   4  14
BRANCH   4  28
ATOM     28  C   UNL     1       1.707  12.136  20.572  0.00  0.00    +0.000 C 
BRANCH  28  29
ATOM     29  C   UNL     1       1.849  13.331  19.628  0.00  0.00    +0.000 C 
ATOM     30  C   UNL     1       2.611  12.969  18.364  0.00  0.00    +0.000 C 
ATOM     31  C   UNL     1       3.067  14.323  17.883  0.00  0.00    +0.000 C 
ATOM     32  C   UNL     1       3.316  15.077  19.175  0.00  0.00    +0.000 C 
ATOM     33  O   UNL     1       2.637  14.377  20.232  0.00  0.00    +0.000 OA
ENDBRANCH  28  29
ENDBRANCH   4  28
TORSDOF 7
ENDMDL
