MODEL 1
REMARK VINA RESULT:      -4.0      0.000      0.000
REMARK  Name = 
REMARK  4 active torsions:
REMARK  status: ('A' for Active; 'I' for Inactive)
REMARK    1  A    between atoms: C_1  and  C_2
REMARK    2  A    between atoms: C_2  and  O_3
REMARK    3  A    between atoms: C_2  and  C_4
REMARK    4  A    between atoms: C_4  and  C_5
REMARK                            x       y       z     vdW  Elec       q    Type
REMARK                         _______ _______ _______ _____ _____    ______ ____
ROOT
ATOM      1  C   UNL     1       8.010   8.400  17.697  0.00  0.00    +0.000 C 
ATOM      2  C   UNL     1       7.275   7.071  17.622  0.00  0.00    +0.000 C 
ENDROOT
BRANCH   2   3
ATOM      3  O   UNL     1       7.527   6.514  16.336  0.00  0.00    +0.000 OA
ATOM      4  H   UNL     1       8.347   5.976  16.407  0.00  0.00    +0.000 HD
ENDBRANCH   2   3
BRANCH   2   5
ATOM      5  C   UNL     1       7.760   6.132  18.719  0.00  0.00    +0.000 C 
BRANCH   5   6
ATOM      6  C   UNL     1       7.408   4.747  18.228  0.00  0.00    +0.000 C 
ATOM      7  O   UNL     1       8.411   4.122  17.740  0.00  0.00    +0.000 OA
ATOM      8  O   UNL     1       6.240   4.354  18.441  0.00  0.00    +0.000 OA
ENDBRANCH   5   6
ENDBRANCH   2   5
TORSDOF 3
ENDMDL
MODEL 2
REMARK VINA RESULT:      -4.0      0.177      1.229
REMARK  Name = 
REMARK  4 active torsions:
REMARK  status: ('A' for Active; 'I' for Inactive)
REMARK    1  A    between atoms: C_1  and  C_2
REMARK    2  A    between atoms: C_2  and  O_3
REMARK    3  A    between atoms: C_2  and  C_4
REMARK    4  A    between atoms: C_4  and  C_5
REMARK                            x       y       z     vdW  Elec       q    Type
REMARK                         _______ _______ _______ _____ _____    ______ ____
ROOT
ATOM      1  C   UNL     1       8.055   8.394  17.815  0.00  0.00    +0.000 C 
ATOM      2  C   UNL     1       7.290   7.087  17.677  0.00  0.00    +0.000 C 
ENDROOT
BRANCH   2   3
ATOM      3  O   UNL     1       7.505   6.603  16.355  0.00  0.00    +0.000 OA
ATOM      4  H   UNL     1       7.356   5.631  16.373  0.00  0.00    +0.000 HD
ENDBRANCH   2   3
BRANCH   2   5
ATOM      5  C   UNL     1       7.776   6.075  18.705  0.00  0.00    +0.000 C 
BRANCH   5   6
ATOM      6  C   UNL     1       7.420   4.727  18.121  0.00  0.00    +0.000 C 
ATOM      7  O   UNL     1       6.234   4.352  18.422  0.00  0.00    +0.000 OA
ATOM      8  O   UNL     1       8.261   4.203  17.360  0.00  0.00    +0.000 OA
ENDBRANCH   5   6
ENDBRANCH   2   5
TORSDOF 3
ENDMDL
MODEL 3
REMARK VINA RESULT:      -3.7      2.284      3.533
REMARK  Name = 
REMARK  4 active torsions:
REMARK  status: ('A' for Active; 'I' for Inactive)
REMARK    1  A    between atoms: C_1  and  C_2
REMARK    2  A    between atoms: C_2  and  O_3
REMARK    3  A    between atoms: C_2  and  C_4
REMARK    4  A    between atoms: C_4  and  C_5
REMARK                            x       y       z     vdW  Elec       q    Type
REMARK                         _______ _______ _______ _____ _____    ______ ____
ROOT
ATOM      1  C   UNL     1       3.863   4.709  18.006  0.00  0.00    +0.000 C 
ATOM      2  C   UNL     1       5.379   4.611  17.933  0.00  0.00    +0.000 C 
ENDROOT
BRANCH   2   3
ATOM      3  O   UNL     1       5.793   3.644  18.893  0.00  0.00    +0.000 OA
ATOM      4  H   UNL     1       5.655   2.757  18.491  0.00  0.00    +0.000 HD
ENDBRANCH   2   3
BRANCH   2   5
ATOM      5  C   UNL     1       5.819   4.201  16.534  0.00  0.00    +0.000 C 
BRANCH   5   6
ATOM      6  C   UNL     1       7.234   4.715  16.405  0.00  0.00    +0.000 C 
ATOM      7  O   UNL     1       7.338   5.684  15.577  0.00  0.00    +0.000 OA
ATOM      8  O   UNL     1       8.087   4.214  17.170  0.00  0.00    +0.000 OA
ENDBRANCH   5   6
ENDBRANCH   2   5
TORSDOF 3
ENDMDL
MODEL 4
REMARK VINA RESULT:      -3.7      6.486      7.211
REMARK  Name = 
REMARK  4 active torsions:
REMARK  status: ('A' for Active; 'I' for Inactive)
REMARK    1  A    between atoms: C_1  and  C_2
REMARK    2  A    between atoms: C_2  and  O_3
REMARK    3  A    between atoms: C_2  and  C_4
REMARK    4  A    between atoms: C_4  and  C_5
REMARK                            x       y       z     vdW  Elec       q    Type
REMARK                         _______ _______ _______ _____ _____    ______ ____
ROOT
ATOM      1  C   UNL     1       1.588   3.703  17.901  0.00  0.00    +0.000 C 
ATOM      2  C   UNL     1       0.934   2.952  19.050  0.00  0.00    +0.000 C 
ENDROOT
BRANCH   2   3
ATOM      3  O   UNL     1       1.571   1.682  19.151  0.00  0.00    +0.000 OA
ATOM      4  H   UNL     1       0.928   1.066  19.568  0.00  0.00    +0.000 HD
ENDBRANCH   2   3
BRANCH   2   5
ATOM      5  C   UNL     1       1.084   3.733  20.349  0.00  0.00    +0.000 C 
BRANCH   5   6
ATOM      6  C   UNL     1       1.974   2.874  21.218  0.00  0.00    +0.000 C 
ATOM      7  O   UNL     1       3.208   2.947  20.890  0.00  0.00    +0.000 OA
ATOM      8  O   UNL     1       1.429   2.292  22.181  0.00  0.00    +0.000 OA
ENDBRANCH   5   6
ENDBRANCH   2   5
TORSDOF 3
ENDMDL
MODEL 5
REMARK VINA RESULT:      -3.7      1.947      3.327
REMARK  Name = 
REMARK  4 active torsions:
REMARK  status: ('A' for Active; 'I' for Inactive)
REMARK    1  A    between atoms: C_1  and  C_2
REMARK    2  A    between atoms: C_2  and  O_3
REMARK    3  A    between atoms: C_2  and  C_4
REMARK    4  A    between atoms: C_4  and  C_5
REMARK                            x       y       z     vdW  Elec       q    Type
REMARK                         _______ _______ _______ _____ _____    ______ ____
ROOT
ATOM      1  C   UNL     1       4.577   4.148  16.905  0.00  0.00    +0.000 C 
ATOM      2  C   UNL     1       4.984   4.619  18.293  0.00  0.00    +0.000 C 
ENDROOT
BRANCH   2   3
ATOM      3  O   UNL     1       5.530   3.498  18.982  0.00  0.00    +0.000 OA
ATOM      4  H   UNL     1       4.787   3.051  19.445  0.00  0.00    +0.000 HD
ENDBRANCH   2   3
BRANCH   2   5
ATOM      5  C   UNL     1       6.009   5.741  18.195  0.00  0.00    +0.000 C 
BRANCH   5   6
ATOM      6  C   UNL     1       7.270   5.169  18.799  0.00  0.00    +0.000 C 
ATOM      7  O   UNL     1       7.401   5.454  20.039  0.00  0.00    +0.000 OA
ATOM      8  O   UNL     1       7.960   4.428  18.065  0.00  0.00    +0.000 OA
ENDBRANCH   5   6
ENDBRANCH   2   5
TORSDOF 3
ENDMDL
MODEL 6
REMARK VINA RESULT:      -3.7      2.191      2.906
REMARK  Name = 
REMARK  4 active torsions:
REMARK  status: ('A' for Active; 'I' for Inactive)
REMARK    1  A    between atoms: C_1  and  C_2
REMARK    2  A    between atoms: C_2  and  O_3
REMARK    3  A    between atoms: C_2  and  C_4
REMARK    4  A    between atoms: C_4  and  C_5
REMARK                            x       y       z     vdW  Elec       q    Type
REMARK                         _______ _______ _______ _____ _____    ______ ____
ROOT
ATOM      1  C   UNL     1       7.850   6.021  18.860  0.00  0.00    +0.000 C 
ATOM      2  C   UNL     1       7.083   6.229  17.563  0.00  0.00    +0.000 C 
ENDROOT
BRANCH   2   3
ATOM      3  O   UNL     1       7.765   7.234  16.819  0.00  0.00    +0.000 OA
ATOM      4  H   UNL     1       8.311   7.747  17.456  0.00  0.00    +0.000 HD
ENDBRANCH   2   3
BRANCH   2   5
ATOM      5  C   UNL     1       7.013   4.930  16.772  0.00  0.00    +0.000 C 
BRANCH   5   6
ATOM      6  C   UNL     1       6.803   5.359  15.338  0.00  0.00    +0.000 C 
ATOM      7  O   UNL     1       5.651   5.877  15.137  0.00  0.00    +0.000 OA
ATOM      8  O   UNL     1       7.783   5.251  14.569  0.00  0.00    +0.000 OA
ENDBRANCH   5   6
ENDBRANCH   2   5
TORSDOF 3
ENDMDL
MODEL 7
REMARK VINA RESULT:      -3.6      6.177      6.923
REMARK  Name = 
REMARK  4 active torsions:
REMARK  status: ('A' for Active; 'I' for Inactive)
REMARK    1  A    between atoms: C_1  and  C_2
REMARK    2  A    between atoms: C_2  and  O_3
REMARK    3  A    between atoms: C_2  and  C_4
REMARK    4  A    between atoms: C_4  and  C_5
REMARK                            x       y       z     vdW  Elec       q    Type
REMARK                         _______ _______ _______ _____ _____    ______ ____
ROOT
ATOM      1  C   UNL     1       1.569   4.108  17.864  0.00  0.00    +0.000 C 
ATOM      2  C   UNL     1       1.662   3.015  18.918  0.00  0.00    +0.000 C 
ENDROOT
BRANCH   2   3
ATOM      3  O   UNL     1       3.034   2.881  19.274  0.00  0.00    +0.000 OA
ATOM      4  H   UNL     1       3.566   3.162  18.496  0.00  0.00    +0.000 HD
ENDBRANCH   2   3
BRANCH   2   5
ATOM      5  C   UNL     1       0.824   3.378  20.136  0.00  0.00    +0.000 C 
BRANCH   5   6
ATOM      6  C   UNL     1       1.823   3.559  21.255  0.00  0.00    +0.000 C 
ATOM      7  O   UNL     1       2.316   4.738  21.295  0.00  0.00    +0.000 OA
ATOM      8  O   UNL     1       1.969   2.598  22.041  0.00  0.00    +0.000 OA
ENDBRANCH   5   6
ENDBRANCH   2   5
TORSDOF 3
ENDMDL
MODEL 8
REMARK VINA RESULT:      -3.6      2.249      2.785
REMARK  Name = 
REMARK  4 active torsions:
REMARK  status: ('A' for Active; 'I' for Inactive)
REMARK    1  A    between atoms: C_1  and  C_2
REMARK    2  A    between atoms: C_2  and  O_3
REMARK    3  A    between atoms: C_2  and  C_4
REMARK    4  A    between atoms: C_4  and  C_5
REMARK                            x       y       z     vdW  Elec       q    Type
REMARK                         _______ _______ _______ _____ _____    ______ ____
ROOT
ATOM      1  C   UNL     1       7.452   6.730  17.837  0.00  0.00    +0.000 C 
ATOM      2  C   UNL     1       6.452   5.851  17.102  0.00  0.00    +0.000 C 
ENDROOT
BRANCH   2   3
ATOM      3  O   UNL     1       5.877   6.635  16.061  0.00  0.00    +0.000 OA
ATOM      4  H   UNL     1       5.433   7.402  16.486  0.00  0.00    +0.000 HD
ENDBRANCH   2   3
BRANCH   2   5
ATOM      5  C   UNL     1       7.145   4.622  16.528  0.00  0.00    +0.000 C 
BRANCH   5   6
ATOM      6  C   UNL     1       6.921   4.711  15.036  0.00  0.00    +0.000 C 
ATOM      7  O   UNL     1       7.818   5.400  14.439  0.00  0.00    +0.000 OA
ATOM      8  O   UNL     1       5.975   4.041  14.568  0.00  0.00    +0.000 OA
ENDBRANCH   5   6
ENDBRANCH   2   5
TORSDOF 3
ENDMDL
MODEL 9
REMARK VINA RESULT:      -3.6      2.775      3.691
REMARK  Name = 
REMARK  4 active torsions:
REMARK  status: ('A' for Active; 'I' for Inactive)
REMARK    1  A    between atoms: C_1  and  C_2
REMARK    2  A    between atoms: C_2  and  O_3
REMARK    3  A    between atoms: C_2  and  C_4
REMARK    4  A    between atoms: C_4  and  C_5
REMARK                            x       y       z     vdW  Elec       q    Type
REMARK                         _______ _______ _______ _____ _____    ______ ____
ROOT
ATOM      1  C   UNL     1       6.211   3.905  13.635  0.00  0.00    +0.000 C 
ATOM      2  C   UNL     1       5.908   4.180  15.100  0.00  0.00    +0.000 C 
ENDROOT
BRANCH   2   3
ATOM      3  O   UNL     1       5.986   2.939  15.794  0.00  0.00    +0.000 OA
ATOM      4  H   UNL     1       6.924   2.813  16.062  0.00  0.00    +0.000 HD
ENDBRANCH   2   3
BRANCH   2   5
ATOM      5  C   UNL     1       6.907   5.178  15.671  0.00  0.00    +0.000 C 
BRANCH   5   6
ATOM      6  C   UNL     1       7.120   4.738  17.101  0.00  0.00    +0.000 C 
ATOM      7  O   UNL     1       6.090   4.924  17.837  0.00  0.00    +0.000 OA
ATOM      8  O   UNL     1       8.205   4.175  17.361  0.00  0.00    +0.000 OA
ENDBRANCH   5   6
ENDBRANCH   2   5
TORSDOF 3
ENDMDL
