MODEL 1
REMARK VINA RESULT:      -7.5      0.000      0.000
REMARK  Name = 
REMARK  5 active torsions:
REMARK  status: ('A' for Active; 'I' for Inactive)
REMARK    1  A    between atoms: C_1  and  C_2
REMARK    2  A    between atoms: C_2  and  O_3
REMARK    3  A    between atoms: O_3  and  C_4
REMARK    4  A    between atoms: C_4  and  C_6
REMARK    5  A    between atoms: C_7  and  N_8
REMARK                            x       y       z     vdW  Elec       q    Type
REMARK                         _______ _______ _______ _____ _____    ______ ____
ROOT
ATOM      1  C   UNL     1       6.479   4.740  16.097  0.00  0.00    +0.000 A 
ATOM      2  C   UNL     1       5.197   4.307  16.433  0.00  0.00    +0.000 A 
ATOM      3  S   UNL     1       4.345   3.650  15.118  0.00  0.00    +0.000 S 
ATOM      4  C   UNL     1       5.606   4.009  14.038  0.00  0.00    +0.000 A 
ATOM      5  C   UNL     1       6.702   4.579  14.663  0.00  0.00    +0.000 A 
ATOM      6  C   UNL     1       7.941   4.921  13.872  0.00  0.00    +0.000 C 
ATOM      7  C   UNL     1       7.658   5.029  12.365  0.00  0.00    +0.000 C 
ATOM      8  C   UNL     1       6.833   3.843  11.860  0.00  0.00    +0.000 C 
ATOM      9  C   UNL     1       5.475   3.747  12.567  0.00  0.00    +0.000 C 
ENDROOT
BRANCH   2  10
ATOM     10  N   UNL     1       4.515   4.373  17.639  0.00  0.00    +0.000 N 
ATOM     11  C   UNL     1       4.160   3.260  18.352  0.00  0.00    +0.000 C 
ATOM     12  O   UNL     1       4.302   2.079  18.061  0.00  0.00    +0.000 OA
ATOM     13  C   UNL     1       3.576   3.710  19.665  0.00  0.00    +0.000 C 
ATOM     14  C   UNL     1       2.099   3.331  19.717  0.00  0.00    +0.000 C 
ATOM     15  C   UNL     1       1.458   3.837  20.973  0.00  0.00    +0.000 C 
ATOM     16  C   UNL     1       1.381   5.170  20.841  0.00  0.00    +0.000 C 
ATOM     17  C   UNL     1       2.012   5.502  19.517  0.00  0.00    +0.000 C 
ATOM     18  O   UNL     1       1.569   4.323  18.787  0.00  0.00    +0.000 OA
ATOM     19  C   UNL     1       3.524   5.248  19.568  0.00  0.00    +0.000 C 
ATOM     20  C   UNL     1       4.207   5.565  18.261  0.00  0.00    +0.000 C 
ATOM     21  O   UNL     1       4.375   6.705  17.846  0.00  0.00    +0.000 OA
ENDBRANCH   2  10
BRANCH   1  22
ATOM     22  C   UNL     1       7.421   5.246  17.099  0.00  0.00    +0.000 C 
ATOM     23  O   UNL     1       7.882   4.557  18.005  0.00  0.00    +0.000 OA
BRANCH  22  24
ATOM     24  O   UNL     1       7.704   6.565  16.933  0.00  0.00    +0.000 OA
BRANCH  24  26
ATOM     25  C   UNL     1       7.939   8.785  17.752  0.00  0.00    +0.000 C 
ATOM     26  C   UNL     1       7.866   7.318  18.140  0.00  0.00    +0.000 C 
ENDBRANCH  24  26
ENDBRANCH  22  24
ENDBRANCH   1  22
TORSDOF 4
ENDMDL
MODEL 2
REMARK VINA RESULT:      -7.1      0.970      1.309
REMARK  Name = 
REMARK  5 active torsions:
REMARK  status: ('A' for Active; 'I' for Inactive)
REMARK    1  A    between atoms: C_1  and  C_2
REMARK    2  A    between atoms: C_2  and  O_3
REMARK    3  A    between atoms: O_3  and  C_4
REMARK    4  A    between atoms: C_4  and  C_6
REMARK    5  A    between atoms: C_7  and  N_8
REMARK                            x       y       z     vdW  Elec       q    Type
REMARK                         _______ _______ _______ _____ _____    ______ ____
ROOT
ATOM      1  C   UNL     1       6.489   5.467  16.015  0.00  0.00    +0.000 A 
ATOM      2  C   UNL     1       5.367   4.793  16.495  0.00  0.00    +0.000 A 
ATOM      3  S   UNL     1       4.743   3.661  15.393  0.00  0.00    +0.000 S 
ATOM      4  C   UNL     1       5.875   4.098  14.203  0.00  0.00    +0.000 A 
ATOM      5  C   UNL     1       6.767   5.062  14.639  0.00  0.00    +0.000 A 
ATOM      6  C   UNL     1       7.878   5.540  13.737  0.00  0.00    +0.000 C 
ATOM      7  C   UNL     1       7.598   5.235  12.257  0.00  0.00    +0.000 C 
ATOM      8  C   UNL     1       7.131   3.790  12.057  0.00  0.00    +0.000 C 
ATOM      9  C   UNL     1       5.839   3.494  12.831  0.00  0.00    +0.000 C 
ENDROOT
BRANCH   2  10
ATOM     10  N   UNL     1       4.677   4.938  17.688  0.00  0.00    +0.000 N 
ATOM     11  C   UNL     1       4.788   4.049  18.723  0.00  0.00    +0.000 C 
ATOM     12  O   UNL     1       5.416   2.998  18.773  0.00  0.00    +0.000 OA
ATOM     13  C   UNL     1       4.024   4.597  19.899  0.00  0.00    +0.000 C 
ATOM     14  C   UNL     1       2.835   3.688  20.196  0.00  0.00    +0.000 C 
ATOM     15  C   UNL     1       1.998   4.243  21.307  0.00  0.00    +0.000 C 
ATOM     16  C   UNL     1       1.382   5.324  20.803  0.00  0.00    +0.000 C 
ATOM     17  C   UNL     1       1.866   5.467  19.387  0.00  0.00    +0.000 C 
ATOM     18  O   UNL     1       1.976   4.049  19.073  0.00  0.00    +0.000 OA
ATOM     19  C   UNL     1       3.344   5.874  19.367  0.00  0.00    +0.000 C 
ATOM     20  C   UNL     1       3.881   6.030  17.966  0.00  0.00    +0.000 C 
ATOM     21  O   UNL     1       3.578   6.958  17.226  0.00  0.00    +0.000 OA
ENDBRANCH   2  10
BRANCH   1  22
ATOM     22  C   UNL     1       7.245   6.414  16.839  0.00  0.00    +0.000 C 
ATOM     23  O   UNL     1       7.182   7.633  16.703  0.00  0.00    +0.000 OA
BRANCH  22  24
ATOM     24  O   UNL     1       8.044   5.795  17.749  0.00  0.00    +0.000 OA
BRANCH  24  26
ATOM     25  C   UNL     1       7.865   5.353  20.079  0.00  0.00    +0.000 C 
ATOM     26  C   UNL     1       8.120   6.425  19.032  0.00  0.00    +0.000 C 
ENDBRANCH  24  26
ENDBRANCH  22  24
ENDBRANCH   1  22
TORSDOF 4
ENDMDL
MODEL 3
REMARK VINA RESULT:      -6.7      0.920      1.914
REMARK  Name = 
REMARK  5 active torsions:
REMARK  status: ('A' for Active; 'I' for Inactive)
REMARK    1  A    between atoms: C_1  and  C_2
REMARK    2  A    between atoms: C_2  and  O_3
REMARK    3  A    between atoms: O_3  and  C_4
REMARK    4  A    between atoms: C_4  and  C_6
REMARK    5  A    between atoms: C_7  and  N_8
REMARK                            x       y       z     vdW  Elec       q    Type
REMARK                         _______ _______ _______ _____ _____    ______ ____
ROOT
ATOM      1  C   UNL     1       6.148   4.672  16.145  0.00  0.00    +0.000 A 
ATOM      2  C   UNL     1       4.878   4.099  16.192  0.00  0.00    +0.000 A 
ATOM      3  S   UNL     1       4.371   3.469  14.698  0.00  0.00    +0.000 S 
ATOM      4  C   UNL     1       5.773   4.026  13.915  0.00  0.00    +0.000 A 
ATOM      5  C   UNL     1       6.660   4.645  14.778  0.00  0.00    +0.000 A 
ATOM      6  C   UNL     1       7.986   5.160  14.272  0.00  0.00    +0.000 C 
ATOM      7  C   UNL     1       7.990   5.357  12.748  0.00  0.00    +0.000 C 
ATOM      8  C   UNL     1       7.408   4.142  12.020  0.00  0.00    +0.000 C 
ATOM      9  C   UNL     1       5.957   3.867  12.434  0.00  0.00    +0.000 C 
ENDROOT
BRANCH   2  10
ATOM     10  N   UNL     1       3.973   4.009  17.239  0.00  0.00    +0.000 N 
ATOM     11  C   UNL     1       3.319   5.097  17.750  0.00  0.00    +0.000 C 
ATOM     12  O   UNL     1       3.440   6.279  17.453  0.00  0.00    +0.000 OA
ATOM     13  C   UNL     1       2.316   4.611  18.761  0.00  0.00    +0.000 C 
ATOM     14  C   UNL     1       2.717   5.106  20.147  0.00  0.00    +0.000 C 
ATOM     15  C   UNL     1       1.791   4.572  21.197  0.00  0.00    +0.000 C 
ATOM     16  C   UNL     1       2.060   3.261  21.299  0.00  0.00    +0.000 C 
ATOM     17  C   UNL     1       3.128   2.967  20.283  0.00  0.00    +0.000 C 
ATOM     18  O   UNL     1       3.854   4.225  20.392  0.00  0.00    +0.000 OA
ATOM     19  C   UNL     1       2.562   3.093  18.863  0.00  0.00    +0.000 C 
ATOM     20  C   UNL     1       3.596   2.807  17.802  0.00  0.00    +0.000 C 
ATOM     21  O   UNL     1       4.033   1.688  17.569  0.00  0.00    +0.000 OA
ENDBRANCH   2  10
BRANCH   1  22
ATOM     22  C   UNL     1       6.820   5.185  17.343  0.00  0.00    +0.000 C 
ATOM     23  O   UNL     1       7.317   4.462  18.202  0.00  0.00    +0.000 OA
BRANCH  22  24
ATOM     24  O   UNL     1       6.806   6.542  17.411  0.00  0.00    +0.000 OA
BRANCH  24  26
ATOM     25  C   UNL     1       7.963   8.592  17.747  0.00  0.00    +0.000 C 
ATOM     26  C   UNL     1       7.875   7.133  18.158  0.00  0.00    +0.000 C 
ENDBRANCH  24  26
ENDBRANCH  22  24
ENDBRANCH   1  22
TORSDOF 4
ENDMDL
MODEL 4
REMARK VINA RESULT:      -6.7      9.061     12.808
REMARK  Name = 
REMARK  5 active torsions:
REMARK  status: ('A' for Active; 'I' for Inactive)
REMARK    1  A    between atoms: C_1  and  C_2
REMARK    2  A    between atoms: C_2  and  O_3
REMARK    3  A    between atoms: O_3  and  C_4
REMARK    4  A    between atoms: C_4  and  C_6
REMARK    5  A    between atoms: C_7  and  N_8
REMARK                            x       y       z     vdW  Elec       q    Type
REMARK                         _______ _______ _______ _____ _____    ______ ____
ROOT
ATOM      1  C   UNL     1      -2.478  12.972  22.437  0.00  0.00    +0.000 A 
ATOM      2  C   UNL     1      -2.488  13.087  21.048  0.00  0.00    +0.000 A 
ATOM      3  S   UNL     1      -4.053  13.154  20.392  0.00  0.00    +0.000 S 
ATOM      4  C   UNL     1      -4.771  12.929  21.915  0.00  0.00    +0.000 A 
ATOM      5  C   UNL     1      -3.844  12.855  22.940  0.00  0.00    +0.000 A 
ATOM      6  C   UNL     1      -4.297  12.707  24.372  0.00  0.00    +0.000 C 
ATOM      7  C   UNL     1      -5.737  12.180  24.475  0.00  0.00    +0.000 C 
ATOM      8  C   UNL     1      -6.683  12.932  23.535  0.00  0.00    +0.000 C 
ATOM      9  C   UNL     1      -6.258  12.798  22.067  0.00  0.00    +0.000 C 
ENDROOT
BRANCH   2  10
ATOM     10  N   UNL     1      -1.438  13.109  20.143  0.00  0.00    +0.000 N 
ATOM     11  C   UNL     1      -0.942  11.977  19.554  0.00  0.00    +0.000 C 
ATOM     12  O   UNL     1      -1.258  10.808  19.742  0.00  0.00    +0.000 OA
ATOM     13  C   UNL     1       0.080  12.389  18.528  0.00  0.00    +0.000 C 
ATOM     14  C   UNL     1       1.457  11.897  18.962  0.00  0.00    +0.000 C 
ATOM     15  C   UNL     1       2.517  12.360  18.010  0.00  0.00    +0.000 C 
ATOM     16  C   UNL     1       2.639  13.683  18.204  0.00  0.00    +0.000 C 
ATOM     17  C   UNL     1       1.625  14.053  19.250  0.00  0.00    +0.000 C 
ATOM     18  O   UNL     1       1.712  12.837  20.047  0.00  0.00    +0.000 OA
ATOM     19  C   UNL     1       0.205  13.917  18.687  0.00  0.00    +0.000 C 
ATOM     20  C   UNL     1      -0.854  14.278  19.700  0.00  0.00    +0.000 C 
ATOM     21  O   UNL     1      -1.071  15.424  20.072  0.00  0.00    +0.000 OA
ENDBRANCH   2  10
BRANCH   1  22
ATOM     22  C   UNL     1      -1.237  13.000  23.216  0.00  0.00    +0.000 C 
ATOM     23  O   UNL     1      -0.915  13.934  23.946  0.00  0.00    +0.000 OA
BRANCH  22  24
ATOM     24  O   UNL     1      -0.470  11.894  23.021  0.00  0.00    +0.000 OA
BRANCH  24  26
ATOM     25  C   UNL     1      -0.076   9.552  23.134  0.00  0.00    +0.000 C 
ATOM     26  C   UNL     1      -1.132  10.641  23.225  0.00  0.00    +0.000 C 
ENDBRANCH  24  26
ENDBRANCH  22  24
ENDBRANCH   1  22
TORSDOF 4
ENDMDL
MODEL 5
REMARK VINA RESULT:      -6.5      2.441      7.061
REMARK  Name = 
REMARK  5 active torsions:
REMARK  status: ('A' for Active; 'I' for Inactive)
REMARK    1  A    between atoms: C_1  and  C_2
REMARK    2  A    between atoms: C_2  and  O_3
REMARK    3  A    between atoms: O_3  and  C_4
REMARK    4  A    between atoms: C_4  and  C_6
REMARK    5  A    between atoms: C_7  and  N_8
REMARK                            x       y       z     vdW  Elec       q    Type
REMARK                         _______ _______ _______ _____ _____    ______ ____
ROOT
ATOM      1  C   UNL     1       2.766   6.344  19.693  0.00  0.00    +0.000 A 
ATOM      2  C   UNL     1       3.364   6.634  18.467  0.00  0.00    +0.000 A 
ATOM      3  S   UNL     1       2.915   8.150  17.845  0.00  0.00    +0.000 S 
ATOM      4  C   UNL     1       1.835   8.428  19.127  0.00  0.00    +0.000 A 
ATOM      5  C   UNL     1       1.839   7.409  20.064  0.00  0.00    +0.000 A 
ATOM      6  C   UNL     1       0.980   7.504  21.301  0.00  0.00    +0.000 C 
ATOM      7  C   UNL     1      -0.164   8.518  21.138  0.00  0.00    +0.000 C 
ATOM      8  C   UNL     1       0.334   9.841  20.552  0.00  0.00    +0.000 C 
ATOM      9  C   UNL     1       0.967   9.652  19.167  0.00  0.00    +0.000 C 
ENDROOT
BRANCH   2  10
ATOM     10  N   UNL     1       4.212   5.871  17.680  0.00  0.00    +0.000 N 
ATOM     11  C   UNL     1       5.545   6.150  17.538  0.00  0.00    +0.000 C 
ATOM     12  O   UNL     1       6.188   7.091  17.988  0.00  0.00    +0.000 OA
ATOM     13  C   UNL     1       6.177   5.039  16.744  0.00  0.00    +0.000 C 
ATOM     14  C   UNL     1       6.657   5.588  15.404  0.00  0.00    +0.000 C 
ATOM     15  C   UNL     1       7.217   4.495  14.545  0.00  0.00    +0.000 C 
ATOM     16  C   UNL     1       6.169   3.749  14.162  0.00  0.00    +0.000 C 
ATOM     17  C   UNL     1       4.957   4.354  14.815  0.00  0.00    +0.000 C 
ATOM     18  O   UNL     1       5.369   5.749  14.739  0.00  0.00    +0.000 OA
ATOM     19  C   UNL     1       5.002   4.131  16.331  0.00  0.00    +0.000 C 
ATOM     20  C   UNL     1       3.805   4.720  17.037  0.00  0.00    +0.000 C 
ATOM     21  O   UNL     1       2.678   4.249  16.964  0.00  0.00    +0.000 OA
ENDBRANCH   2  10
BRANCH   1  22
ATOM     22  C   UNL     1       3.092   5.135  20.455  0.00  0.00    +0.000 C 
ATOM     23  O   UNL     1       4.186   4.579  20.409  0.00  0.00    +0.000 OA
BRANCH  22  24
ATOM     24  O   UNL     1       2.044   4.683  21.193  0.00  0.00    +0.000 OA
BRANCH  24  26
ATOM     25  C   UNL     1       0.919   3.059  19.869  0.00  0.00    +0.000 C 
ATOM     26  C   UNL     1       1.784   3.278  21.099  0.00  0.00    +0.000 C 
ENDBRANCH  24  26
ENDBRANCH  22  24
ENDBRANCH   1  22
TORSDOF 4
ENDMDL
MODEL 6
REMARK VINA RESULT:      -6.4      9.831     12.510
REMARK  Name = 
REMARK  5 active torsions:
REMARK  status: ('A' for Active; 'I' for Inactive)
REMARK    1  A    between atoms: C_1  and  C_2
REMARK    2  A    between atoms: C_2  and  O_3
REMARK    3  A    between atoms: O_3  and  C_4
REMARK    4  A    between atoms: C_4  and  C_6
REMARK    5  A    between atoms: C_7  and  N_8
REMARK                            x       y       z     vdW  Elec       q    Type
REMARK                         _______ _______ _______ _____ _____    ______ ____
ROOT
ATOM      1  C   UNL     1      -1.317  12.226  20.905  0.00  0.00    +0.000 A 
ATOM      2  C   UNL     1      -2.302  13.153  21.243  0.00  0.00    +0.000 A 
ATOM      3  S   UNL     1      -3.677  13.062  20.249  0.00  0.00    +0.000 S 
ATOM      4  C   UNL     1      -2.973  11.863  19.273  0.00  0.00    +0.000 A 
ATOM      5  C   UNL     1      -1.718  11.479  19.715  0.00  0.00    +0.000 A 
ATOM      6  C   UNL     1      -0.957  10.387  19.004  0.00  0.00    +0.000 C 
ATOM      7  C   UNL     1      -1.474  10.154  17.575  0.00  0.00    +0.000 C 
ATOM      8  C   UNL     1      -3.001  10.057  17.536  0.00  0.00    +0.000 C 
ATOM      9  C   UNL     1      -3.670  11.338  18.053  0.00  0.00    +0.000 C 
ENDROOT
BRANCH   2  10
ATOM     10  N   UNL     1      -2.307  14.141  22.215  0.00  0.00    +0.000 N 
ATOM     11  C   UNL     1      -1.811  15.398  21.998  0.00  0.00    +0.000 C 
ATOM     12  O   UNL     1      -1.249  15.845  21.005  0.00  0.00    +0.000 OA
ATOM     13  C   UNL     1      -2.115  16.240  23.208  0.00  0.00    +0.000 C 
ATOM     14  C   UNL     1      -0.809  16.625  23.896  0.00  0.00    +0.000 C 
ATOM     15  C   UNL     1      -1.071  17.394  25.155  0.00  0.00    +0.000 C 
ATOM     16  C   UNL     1      -1.578  16.511  26.031  0.00  0.00    +0.000 C 
ATOM     17  C   UNL     1      -1.669  15.198  25.304  0.00  0.00    +0.000 C 
ATOM     18  O   UNL     1      -0.468  15.338  24.492  0.00  0.00    +0.000 OA
ATOM     19  C   UNL     1      -2.750  15.264  24.218  0.00  0.00    +0.000 C 
ATOM     20  C   UNL     1      -2.883  13.968  23.457  0.00  0.00    +0.000 C 
ATOM     21  O   UNL     1      -3.372  12.952  23.933  0.00  0.00    +0.000 OA
ENDBRANCH   2  10
BRANCH   1  22
ATOM     22  C   UNL     1      -0.093  12.062  21.694  0.00  0.00    +0.000 C 
ATOM     23  O   UNL     1       1.034  12.254  21.244  0.00  0.00    +0.000 OA
BRANCH  22  24
ATOM     24  O   UNL     1      -0.340  11.648  22.965  0.00  0.00    +0.000 OA
BRANCH  24  26
ATOM     25  C   UNL     1       0.206   9.334  22.942  0.00  0.00    +0.000 C 
ATOM     26  C   UNL     1      -0.919  10.344  23.087  0.00  0.00    +0.000 C 
ENDBRANCH  24  26
ENDBRANCH  22  24
ENDBRANCH   1  22
TORSDOF 4
ENDMDL
MODEL 7
REMARK VINA RESULT:      -6.4      7.377      9.981
REMARK  Name = 
REMARK  5 active torsions:
REMARK  status: ('A' for Active; 'I' for Inactive)
REMARK    1  A    between atoms: C_1  and  C_2
REMARK    2  A    between atoms: C_2  and  O_3
REMARK    3  A    between atoms: O_3  and  C_4
REMARK    4  A    between atoms: C_4  and  C_6
REMARK    5  A    between atoms: C_7  and  N_8
REMARK                            x       y       z     vdW  Elec       q    Type
REMARK                         _______ _______ _______ _____ _____    ______ ____
ROOT
ATOM      1  C   UNL     1       0.885   9.867  20.691  0.00  0.00    +0.000 A 
ATOM      2  C   UNL     1       0.942  10.930  19.791  0.00  0.00    +0.000 A 
ATOM      3  S   UNL     1       1.522  10.481  18.259  0.00  0.00    +0.000 S 
ATOM      4  C   UNL     1       1.815   8.886  18.766  0.00  0.00    +0.000 A 
ATOM      5  C   UNL     1       1.431   8.660  20.076  0.00  0.00    +0.000 A 
ATOM      6  C   UNL     1       1.567   7.287  20.687  0.00  0.00    +0.000 C 
ATOM      7  C   UNL     1       2.564   6.405  19.919  0.00  0.00    +0.000 C 
ATOM      8  C   UNL     1       2.318   6.458  18.409  0.00  0.00    +0.000 C 
ATOM      9  C   UNL     1       2.458   7.882  17.855  0.00  0.00    +0.000 C 
ENDROOT
BRANCH   2  10
ATOM     10  N   UNL     1       0.646  12.273  19.970  0.00  0.00    +0.000 N 
ATOM     11  C   UNL     1      -0.463  12.867  19.429  0.00  0.00    +0.000 C 
ATOM     12  O   UNL     1      -1.310  12.386  18.686  0.00  0.00    +0.000 OA
ATOM     13  C   UNL     1      -0.542  14.277  19.948  0.00  0.00    +0.000 C 
ATOM     14  C   UNL     1      -0.343  15.252  18.792  0.00  0.00    +0.000 C 
ATOM     15  C   UNL     1      -0.329  16.669  19.279  0.00  0.00    +0.000 C 
ATOM     16  C   UNL     1       0.823  16.820  19.951  0.00  0.00    +0.000 C 
ATOM     17  C   UNL     1       1.512  15.484  19.916  0.00  0.00    +0.000 C 
ATOM     18  O   UNL     1       1.091  15.080  18.582  0.00  0.00    +0.000 OA
ATOM     19  C   UNL     1       0.747  14.467  20.772  0.00  0.00    +0.000 C 
ATOM     20  C   UNL     1       1.398  13.106  20.771  0.00  0.00    +0.000 C 
ATOM     21  O   UNL     1       2.448  12.859  21.351  0.00  0.00    +0.000 OA
ENDBRANCH   2  10
BRANCH   1  22
ATOM     22  C   UNL     1       0.321  10.010  22.036  0.00  0.00    +0.000 C 
ATOM     23  O   UNL     1       0.946   9.759  23.063  0.00  0.00    +0.000 OA
BRANCH  22  24
ATOM     24  O   UNL     1      -0.974  10.421  22.020  0.00  0.00    +0.000 OA
BRANCH  24  26
ATOM     25  C   UNL     1      -2.392  12.249  22.572  0.00  0.00    +0.000 C 
ATOM     26  C   UNL     1      -1.367  11.264  23.109  0.00  0.00    +0.000 C 
ENDBRANCH  24  26
ENDBRANCH  22  24
ENDBRANCH   1  22
TORSDOF 4
ENDMDL
MODEL 8
REMARK VINA RESULT:      -6.4      9.002     11.508
REMARK  Name = 
REMARK  5 active torsions:
REMARK  status: ('A' for Active; 'I' for Inactive)
REMARK    1  A    between atoms: C_1  and  C_2
REMARK    2  A    between atoms: C_2  and  O_3
REMARK    3  A    between atoms: O_3  and  C_4
REMARK    4  A    between atoms: C_4  and  C_6
REMARK    5  A    between atoms: C_7  and  N_8
REMARK                            x       y       z     vdW  Elec       q    Type
REMARK                         _______ _______ _______ _____ _____    ______ ____
ROOT
ATOM      1  C   UNL     1      -1.355  11.301  19.659  0.00  0.00    +0.000 A 
ATOM      2  C   UNL     1      -2.073  12.259  20.374  0.00  0.00    +0.000 A 
ATOM      3  S   UNL     1      -3.580  12.623  19.680  0.00  0.00    +0.000 S 
ATOM      4  C   UNL     1      -3.289  11.601  18.354  0.00  0.00    +0.000 A 
ATOM      5  C   UNL     1      -2.080  10.934  18.445  0.00  0.00    +0.000 A 
ATOM      6  C   UNL     1      -1.671   9.943  17.383  0.00  0.00    +0.000 C 
ATOM      7  C   UNL     1      -2.446  10.143  16.071  0.00  0.00    +0.000 C 
ATOM      8  C   UNL     1      -3.949  10.294  16.321  0.00  0.00    +0.000 C 
ATOM      9  C   UNL     1      -4.262  11.500  17.217  0.00  0.00    +0.000 C 
ENDROOT
BRANCH   2  10
ATOM     10  N   UNL     1      -1.729  12.972  21.512  0.00  0.00    +0.000 N 
ATOM     11  C   UNL     1      -2.224  12.674  22.753  0.00  0.00    +0.000 C 
ATOM     12  O   UNL     1      -3.052  11.829  23.070  0.00  0.00    +0.000 OA
ATOM     13  C   UNL     1      -1.526  13.548  23.760  0.00  0.00    +0.000 C 
ATOM     14  C   UNL     1      -2.536  14.508  24.381  0.00  0.00    +0.000 C 
ATOM     15  C   UNL     1      -1.866  15.454  25.329  0.00  0.00    +0.000 C 
ATOM     16  C   UNL     1      -1.142  16.291  24.569  0.00  0.00    +0.000 C 
ATOM     17  C   UNL     1      -1.329  15.841  23.147  0.00  0.00    +0.000 C 
ATOM     18  O   UNL     1      -2.718  15.418  23.256  0.00  0.00    +0.000 OA
ATOM     19  C   UNL     1      -0.641  14.490  22.920  0.00  0.00    +0.000 C 
ATOM     20  C   UNL     1      -0.799  13.992  21.505  0.00  0.00    +0.000 C 
ATOM     21  O   UNL     1      -0.223  14.488  20.545  0.00  0.00    +0.000 OA
ENDBRANCH   2  10
BRANCH   1  22
ATOM     22  C   UNL     1      -0.076  10.766  20.134  0.00  0.00    +0.000 C 
ATOM     23  O   UNL     1       1.006  11.304  19.916  0.00  0.00    +0.000 OA
BRANCH  22  24
ATOM     24  O   UNL     1      -0.217   9.598  20.815  0.00  0.00    +0.000 OA
BRANCH  24  26
ATOM     25  C   UNL     1      -0.199   9.624  23.193  0.00  0.00    +0.000 C 
ATOM     26  C   UNL     1       0.647   9.435  21.945  0.00  0.00    +0.000 C 
ENDBRANCH  24  26
ENDBRANCH  22  24
ENDBRANCH   1  22
TORSDOF 4
ENDMDL
MODEL 9
REMARK VINA RESULT:      -6.3      1.912      6.881
REMARK  Name = 
REMARK  5 active torsions:
REMARK  status: ('A' for Active; 'I' for Inactive)
REMARK    1  A    between atoms: C_1  and  C_2
REMARK    2  A    between atoms: C_2  and  O_3
REMARK    3  A    between atoms: O_3  and  C_4
REMARK    4  A    between atoms: C_4  and  C_6
REMARK    5  A    between atoms: C_7  and  N_8
REMARK                            x       y       z     vdW  Elec       q    Type
REMARK                         _______ _______ _______ _____ _____    ______ ____
ROOT
ATOM      1  C   UNL     1       3.598   5.281  19.165  0.00  0.00    +0.000 A 
ATOM      2  C   UNL     1       4.099   5.797  17.971  0.00  0.00    +0.000 A 
ATOM      3  S   UNL     1       3.569   7.378  17.649  0.00  0.00    +0.000 S 
ATOM      4  C   UNL     1       2.576   7.395  19.028  0.00  0.00    +0.000 A 
ATOM      5  C   UNL     1       2.673   6.233  19.774  0.00  0.00    +0.000 A 
ATOM      6  C   UNL     1       1.902   6.084  21.062  0.00  0.00    +0.000 C 
ATOM      7  C   UNL     1       0.724   7.068  21.152  0.00  0.00    +0.000 C 
ATOM      8  C   UNL     1       1.146   8.489  20.770  0.00  0.00    +0.000 C 
ATOM      9  C   UNL     1       1.683   8.561  19.334  0.00  0.00    +0.000 C 
ENDROOT
BRANCH   2  10
ATOM     10  N   UNL     1       4.909   5.210  17.011  0.00  0.00    +0.000 N 
ATOM     11  C   UNL     1       6.200   5.605  16.786  0.00  0.00    +0.000 C 
ATOM     12  O   UNL     1       6.826   6.524  17.301  0.00  0.00    +0.000 OA
ATOM     13  C   UNL     1       6.815   4.659  15.790  0.00  0.00    +0.000 C 
ATOM     14  C   UNL     1       7.122   5.415  14.500  0.00  0.00    +0.000 C 
ATOM     15  C   UNL     1       7.658   4.491  13.450  0.00  0.00    +0.000 C 
ATOM     16  C   UNL     1       6.624   3.725  13.065  0.00  0.00    +0.000 C 
ATOM     17  C   UNL     1       5.450   4.146  13.906  0.00  0.00    +0.000 C 
ATOM     18  O   UNL     1       5.765   5.565  13.987  0.00  0.00    +0.000 OA
ATOM     19  C   UNL     1       5.662   3.728  15.366  0.00  0.00    +0.000 C 
ATOM     20  C   UNL     1       4.510   4.128  16.254  0.00  0.00    +0.000 C 
ATOM     21  O   UNL     1       3.412   3.587  16.220  0.00  0.00    +0.000 OA
ENDBRANCH   2  10
BRANCH   1  22
ATOM     22  C   UNL     1       4.008   3.973  19.685  0.00  0.00    +0.000 C 
ATOM     23  O   UNL     1       5.167   3.569  19.665  0.00  0.00    +0.000 OA
BRANCH  22  24
ATOM     24  O   UNL     1       2.962   3.248  20.164  0.00  0.00    +0.000 OA
BRANCH  24  26
ATOM     25  C   UNL     1       0.836   2.764  19.215  0.00  0.00    +0.000 C 
ATOM     26  C   UNL     1       2.311   2.401  19.210  0.00  0.00    +0.000 C 
ENDBRANCH  24  26
ENDBRANCH  22  24
ENDBRANCH   1  22
TORSDOF 4
ENDMDL
