MODEL 1
REMARK VINA RESULT:      -8.8      0.000      0.000
REMARK  Name = 
REMARK  3 active torsions:
REMARK  status: ('A' for Active; 'I' for Inactive)
REMARK    1  A    between atoms: C_1  and  C_2
REMARK    2  A    between atoms: C_8  and  C_9
REMARK    3  A    between atoms: C_11  and  C_12
REMARK                            x       y       z     vdW  Elec       q    Type
REMARK                         _______ _______ _______ _____ _____    ______ ____
ROOT
ATOM      1  C   UNL     1       0.069  10.839  19.154  0.00  0.00    +0.000 A 
ATOM      2  C   UNL     1      -1.316  10.778  19.040  0.00  0.00    +0.000 A 
ATOM      3  C   UNL     1      -2.057  11.949  18.904  0.00  0.00    +0.000 A 
ATOM      4  N   UNL     1      -1.459  13.164  18.819  0.00  0.00    +0.000 NA
ATOM      5  C   UNL     1      -0.099  13.222  18.922  0.00  0.00    +0.000 A 
ATOM      6  C   UNL     1       0.694  12.088  19.085  0.00  0.00    +0.000 A 
ATOM      7  C   UNL     1       2.180  12.234  19.227  0.00  0.00    +0.000 C 
ATOM      8  O   UNL     1       2.775  13.520  19.053  0.00  0.00    +0.000 OA
ATOM      9  C   UNL     1       1.953  14.605  18.965  0.00  0.00    +0.000 A 
ATOM     10  C   UNL     1       2.626  15.832  18.943  0.00  0.00    +0.000 A 
ATOM     11  C   UNL     1       1.912  17.016  18.814  0.00  0.00    +0.000 A 
ATOM     12  C   UNL     1       0.524  16.970  18.700  0.00  0.00    +0.000 A 
ATOM     13  C   UNL     1      -0.147  15.740  18.732  0.00  0.00    +0.000 A 
ATOM     14  C   UNL     1       0.557  14.532  18.872  0.00  0.00    +0.000 A 
ENDROOT
BRANCH   1  22
ATOM     15  C   UNL     1       4.791   5.317  16.989  0.00  0.00    +0.000 C 
ATOM     16  C   UNL     1       3.906   5.981  18.003  0.00  0.00    +0.000 A 
ATOM     17  C   UNL     1       3.744   5.435  19.284  0.00  0.00    +0.000 A 
ATOM     18  C   UNL     1       2.910   6.054  20.217  0.00  0.00    +0.000 A 
ATOM     19  C   UNL     1       2.227   7.219  19.874  0.00  0.00    +0.000 A 
ATOM     20  O   UNL     1       1.399   7.760  20.823  0.00  0.00    +0.000 OA
ATOM     21  C   UNL     1       0.732   8.917  20.505  0.00  0.00    +0.000 A 
ATOM     22  C   UNL     1       0.810   9.587  19.344  0.00  0.00    +0.000 A 
ATOM     23  C   UNL     1       1.679   9.024  18.275  0.00  0.00    +0.000 A 
ATOM     24  O   UNL     1       1.790   9.550  17.178  0.00  0.00    +0.000 OA
ATOM     25  C   UNL     1       2.396   7.778  18.609  0.00  0.00    +0.000 A 
ATOM     26  C   UNL     1       3.230   7.162  17.670  0.00  0.00    +0.000 A 
ENDBRANCH   1  22
BRANCH   3  27
ATOM     27  C   UNL     1      -3.534  11.886  18.854  0.00  0.00    +0.000 A 
ATOM     28  C   UNL     1      -4.305  12.462  19.888  0.00  0.00    +0.000 A 
ATOM     29  C   UNL     1      -5.691  12.330  19.935  0.00  0.00    +0.000 A 
ATOM     30  C   UNL     1      -6.346  11.643  18.925  0.00  0.00    +0.000 A 
ATOM     31  C   UNL     1      -5.620  11.099  17.866  0.00  0.00    +0.000 A 
ATOM     32  C   UNL     1      -4.225  11.222  17.830  0.00  0.00    +0.000 A 
ENDBRANCH   3  27
TORSDOF 2
ENDMDL
MODEL 2
REMARK VINA RESULT:      -8.8      2.353      7.336
REMARK  Name = 
REMARK  3 active torsions:
REMARK  status: ('A' for Active; 'I' for Inactive)
REMARK    1  A    between atoms: C_1  and  C_2
REMARK    2  A    between atoms: C_8  and  C_9
REMARK    3  A    between atoms: C_11  and  C_12
REMARK                            x       y       z     vdW  Elec       q    Type
REMARK                         _______ _______ _______ _____ _____    ______ ____
ROOT
ATOM      1  C   UNL     1      -1.000  12.063  19.446  0.00  0.00    +0.000 A 
ATOM      2  C   UNL     1      -0.433  10.794  19.418  0.00  0.00    +0.000 A 
ATOM      3  C   UNL     1       0.910  10.637  19.082  0.00  0.00    +0.000 A 
ATOM      4  N   UNL     1       1.711  11.704  18.834  0.00  0.00    +0.000 NA
ATOM      5  C   UNL     1       1.154  12.950  18.872  0.00  0.00    +0.000 A 
ATOM      6  C   UNL     1      -0.187  13.169  19.176  0.00  0.00    +0.000 A 
ATOM      7  C   UNL     1      -0.735  14.564  19.163  0.00  0.00    +0.000 C 
ATOM      8  O   UNL     1       0.157  15.663  18.977  0.00  0.00    +0.000 OA
ATOM      9  C   UNL     1       1.444  15.395  18.615  0.00  0.00    +0.000 A 
ATOM     10  C   UNL     1       2.202  16.531  18.313  0.00  0.00    +0.000 A 
ATOM     11  C   UNL     1       3.542  16.405  17.969  0.00  0.00    +0.000 A 
ATOM     12  C   UNL     1       4.123  15.140  17.934  0.00  0.00    +0.000 A 
ATOM     13  C   UNL     1       3.358  14.003  18.228  0.00  0.00    +0.000 A 
ATOM     14  C   UNL     1       1.999  14.109  18.568  0.00  0.00    +0.000 A 
ENDROOT
BRANCH   1  22
ATOM     15  C   UNL     1      -6.887  13.488  24.006  0.00  0.00    +0.000 C 
ATOM     16  C   UNL     1      -6.302  13.133  22.670  0.00  0.00    +0.000 A 
ATOM     17  C   UNL     1      -7.127  12.910  21.560  0.00  0.00    +0.000 A 
ATOM     18  C   UNL     1      -6.574  12.569  20.324  0.00  0.00    +0.000 A 
ATOM     19  C   UNL     1      -5.193  12.443  20.191  0.00  0.00    +0.000 A 
ATOM     20  O   UNL     1      -4.715  12.074  18.961  0.00  0.00    +0.000 OA
ATOM     21  C   UNL     1      -3.355  11.962  18.811  0.00  0.00    +0.000 A 
ATOM     22  C   UNL     1      -2.429  12.182  19.758  0.00  0.00    +0.000 A 
ATOM     23  C   UNL     1      -2.904  12.561  21.116  0.00  0.00    +0.000 A 
ATOM     24  O   UNL     1      -2.135  12.754  22.047  0.00  0.00    +0.000 OA
ATOM     25  C   UNL     1      -4.365  12.680  21.286  0.00  0.00    +0.000 A 
ATOM     26  C   UNL     1      -4.913  13.022  22.526  0.00  0.00    +0.000 A 
ENDBRANCH   1  22
BRANCH   3  27
ATOM     27  C   UNL     1       1.493   9.281  18.981  0.00  0.00    +0.000 A 
ATOM     28  C   UNL     1       1.457   8.408  20.090  0.00  0.00    +0.000 A 
ATOM     29  C   UNL     1       2.089   7.167  20.073  0.00  0.00    +0.000 A 
ATOM     30  C   UNL     1       2.750   6.753  18.926  0.00  0.00    +0.000 A 
ATOM     31  C   UNL     1       2.769   7.573  17.798  0.00  0.00    +0.000 A 
ATOM     32  C   UNL     1       2.143   8.826  17.825  0.00  0.00    +0.000 A 
ENDBRANCH   3  27
TORSDOF 2
ENDMDL
MODEL 3
REMARK VINA RESULT:      -8.6      1.366      1.607
REMARK  Name = 
REMARK  3 active torsions:
REMARK  status: ('A' for Active; 'I' for Inactive)
REMARK    1  A    between atoms: C_1  and  C_2
REMARK    2  A    between atoms: C_8  and  C_9
REMARK    3  A    between atoms: C_11  and  C_12
REMARK                            x       y       z     vdW  Elec       q    Type
REMARK                         _______ _______ _______ _____ _____    ______ ____
ROOT
ATOM      1  C   UNL     1       0.064  10.745  19.637  0.00  0.00    +0.000 A 
ATOM      2  C   UNL     1      -1.226  10.732  19.118  0.00  0.00    +0.000 A 
ATOM      3  C   UNL     1      -2.016  11.877  19.185  0.00  0.00    +0.000 A 
ATOM      4  N   UNL     1      -1.541  13.041  19.696  0.00  0.00    +0.000 NA
ATOM      5  C   UNL     1      -0.270  13.054  20.197  0.00  0.00    +0.000 A 
ATOM      6  C   UNL     1       0.558  11.934  20.181  0.00  0.00    +0.000 A 
ATOM      7  C   UNL     1       1.930  12.016  20.782  0.00  0.00    +0.000 C 
ATOM      8  O   UNL     1       2.420  13.277  21.236  0.00  0.00    +0.000 OA
ATOM      9  C   UNL     1       1.549  14.325  21.294  0.00  0.00    +0.000 A 
ATOM     10  C   UNL     1       2.078  15.477  21.886  0.00  0.00    +0.000 A 
ATOM     11  C   UNL     1       1.311  16.632  21.972  0.00  0.00    +0.000 A 
ATOM     12  C   UNL     1       0.016  16.633  21.459  0.00  0.00    +0.000 A 
ATOM     13  C   UNL     1      -0.514  15.475  20.875  0.00  0.00    +0.000 A 
ATOM     14  C   UNL     1       0.242  14.294  20.787  0.00  0.00    +0.000 A 
ENDROOT
BRANCH   1  22
ATOM     15  C   UNL     1       4.953   5.885  16.481  0.00  0.00    +0.000 C 
ATOM     16  C   UNL     1       4.053   6.318  17.601  0.00  0.00    +0.000 A 
ATOM     17  C   UNL     1       3.917   5.538  18.757  0.00  0.00    +0.000 A 
ATOM     18  C   UNL     1       3.067   5.943  19.789  0.00  0.00    +0.000 A 
ATOM     19  C   UNL     1       2.345   7.129  19.669  0.00  0.00    +0.000 A 
ATOM     20  O   UNL     1       1.504   7.454  20.701  0.00  0.00    +0.000 OA
ATOM     21  C   UNL     1       0.798   8.627  20.605  0.00  0.00    +0.000 A 
ATOM     22  C   UNL     1       0.847   9.505  19.590  0.00  0.00    +0.000 A 
ATOM     23  C   UNL     1       1.729   9.180  18.435  0.00  0.00    +0.000 A 
ATOM     24  O   UNL     1       1.815   9.906  17.456  0.00  0.00    +0.000 OA
ATOM     25  C   UNL     1       2.488   7.919  18.531  0.00  0.00    +0.000 A 
ATOM     26  C   UNL     1       3.337   7.517  17.494  0.00  0.00    +0.000 A 
ENDBRANCH   1  22
BRANCH   3  27
ATOM     27  C   UNL     1      -3.412  11.841  18.698  0.00  0.00    +0.000 A 
ATOM     28  C   UNL     1      -3.695  11.421  17.380  0.00  0.00    +0.000 A 
ATOM     29  C   UNL     1      -4.982  11.476  16.849  0.00  0.00    +0.000 A 
ATOM     30  C   UNL     1      -6.028  11.926  17.639  0.00  0.00    +0.000 A 
ATOM     31  C   UNL     1      -5.792  12.308  18.959  0.00  0.00    +0.000 A 
ATOM     32  C   UNL     1      -4.494  12.264  19.485  0.00  0.00    +0.000 A 
ENDBRANCH   3  27
TORSDOF 2
ENDMDL
MODEL 4
REMARK VINA RESULT:      -8.6      2.083      7.296
REMARK  Name = 
REMARK  3 active torsions:
REMARK  status: ('A' for Active; 'I' for Inactive)
REMARK    1  A    between atoms: C_1  and  C_2
REMARK    2  A    between atoms: C_8  and  C_9
REMARK    3  A    between atoms: C_11  and  C_12
REMARK                            x       y       z     vdW  Elec       q    Type
REMARK                         _______ _______ _______ _____ _____    ______ ____
ROOT
ATOM      1  C   UNL     1      -0.971  11.737  18.673  0.00  0.00    +0.000 A 
ATOM      2  C   UNL     1      -0.379  10.481  18.760  0.00  0.00    +0.000 A 
ATOM      3  C   UNL     1       1.008  10.365  18.790  0.00  0.00    +0.000 A 
ATOM      4  N   UNL     1       1.814  11.457  18.797  0.00  0.00    +0.000 NA
ATOM      5  C   UNL     1       1.231  12.689  18.722  0.00  0.00    +0.000 A 
ATOM      6  C   UNL     1      -0.149  12.868  18.663  0.00  0.00    +0.000 A 
ATOM      7  C   UNL     1      -0.715  14.252  18.546  0.00  0.00    +0.000 C 
ATOM      8  O   UNL     1       0.161  15.375  18.637  0.00  0.00    +0.000 OA
ATOM      9  C   UNL     1       1.506  15.147  18.624  0.00  0.00    +0.000 A 
ATOM     10  C   UNL     1       2.283  16.309  18.569  0.00  0.00    +0.000 A 
ATOM     11  C   UNL     1       3.669  16.224  18.592  0.00  0.00    +0.000 A 
ATOM     12  C   UNL     1       4.275  14.973  18.676  0.00  0.00    +0.000 A 
ATOM     13  C   UNL     1       3.494  13.810  18.721  0.00  0.00    +0.000 A 
ATOM     14  C   UNL     1       2.091  13.876  18.689  0.00  0.00    +0.000 A 
ENDROOT
BRANCH   1  22
ATOM     15  C   UNL     1      -7.882  13.119  21.467  0.00  0.00    +0.000 C 
ATOM     16  C   UNL     1      -6.959  12.734  20.349  0.00  0.00    +0.000 A 
ATOM     17  C   UNL     1      -7.458  12.437  19.074  0.00  0.00    +0.000 A 
ATOM     18  C   UNL     1      -6.591  12.069  18.042  0.00  0.00    +0.000 A 
ATOM     19  C   UNL     1      -5.221  11.989  18.281  0.00  0.00    +0.000 A 
ATOM     20  O   UNL     1      -4.428  11.590  17.237  0.00  0.00    +0.000 OA
ATOM     21  C   UNL     1      -3.074  11.523  17.452  0.00  0.00    +0.000 A 
ATOM     22  C   UNL     1      -2.434  11.815  18.596  0.00  0.00    +0.000 A 
ATOM     23  C   UNL     1      -3.258  12.229  19.764  0.00  0.00    +0.000 A 
ATOM     24  O   UNL     1      -2.765  12.486  20.852  0.00  0.00    +0.000 OA
ATOM     25  C   UNL     1      -4.715  12.300  19.541  0.00  0.00    +0.000 A 
ATOM     26  C   UNL     1      -5.578  12.669  20.578  0.00  0.00    +0.000 A 
ENDBRANCH   1  22
BRANCH   3  27
ATOM     27  C   UNL     1       1.637   9.026  18.809  0.00  0.00    +0.000 A 
ATOM     28  C   UNL     1       1.531   8.207  19.954  0.00  0.00    +0.000 A 
ATOM     29  C   UNL     1       2.198   6.988  20.054  0.00  0.00    +0.000 A 
ATOM     30  C   UNL     1       2.967   6.542  18.991  0.00  0.00    +0.000 A 
ATOM     31  C   UNL     1       3.060   7.306  17.828  0.00  0.00    +0.000 A 
ATOM     32  C   UNL     1       2.398   8.537  17.737  0.00  0.00    +0.000 A 
ENDBRANCH   3  27
TORSDOF 2
ENDMDL
MODEL 5
REMARK VINA RESULT:      -8.3      0.745      1.749
REMARK  Name = 
REMARK  3 active torsions:
REMARK  status: ('A' for Active; 'I' for Inactive)
REMARK    1  A    between atoms: C_1  and  C_2
REMARK    2  A    between atoms: C_8  and  C_9
REMARK    3  A    between atoms: C_11  and  C_12
REMARK                            x       y       z     vdW  Elec       q    Type
REMARK                         _______ _______ _______ _____ _____    ______ ____
ROOT
ATOM      1  C   UNL     1       0.322  10.976  18.768  0.00  0.00    +0.000 A 
ATOM      2  C   UNL     1      -1.066  10.896  18.807  0.00  0.00    +0.000 A 
ATOM      3  C   UNL     1      -1.830  12.058  18.887  0.00  0.00    +0.000 A 
ATOM      4  N   UNL     1      -1.257  13.289  18.868  0.00  0.00    +0.000 NA
ATOM      5  C   UNL     1       0.105  13.365  18.819  0.00  0.00    +0.000 A 
ATOM      6  C   UNL     1       0.922  12.239  18.764  0.00  0.00    +0.000 A 
ATOM      7  C   UNL     1       2.413  12.402  18.750  0.00  0.00    +0.000 C 
ATOM      8  O   UNL     1       2.972  13.712  18.650  0.00  0.00    +0.000 OA
ATOM      9  C   UNL     1       2.135  14.781  18.776  0.00  0.00    +0.000 A 
ATOM     10  C   UNL     1       2.788  16.018  18.811  0.00  0.00    +0.000 A 
ATOM     11  C   UNL     1       2.053  17.193  18.896  0.00  0.00    +0.000 A 
ATOM     12  C   UNL     1       0.662  17.128  18.939  0.00  0.00    +0.000 A 
ATOM     13  C   UNL     1       0.011  15.888  18.913  0.00  0.00    +0.000 A 
ATOM     14  C   UNL     1       0.738  14.688  18.837  0.00  0.00    +0.000 A 
ENDROOT
BRANCH   1  22
ATOM     15  C   UNL     1       2.498   4.230  21.457  0.00  0.00    +0.000 C 
ATOM     16  C   UNL     1       2.521   5.310  20.415  0.00  0.00    +0.000 A 
ATOM     17  C   UNL     1       3.299   5.177  19.257  0.00  0.00    +0.000 A 
ATOM     18  C   UNL     1       3.322   6.194  18.300  0.00  0.00    +0.000 A 
ATOM     19  C   UNL     1       2.572   7.351  18.496  0.00  0.00    +0.000 A 
ATOM     20  O   UNL     1       2.664   8.324  17.535  0.00  0.00    +0.000 OA
ATOM     21  C   UNL     1       1.918   9.464  17.707  0.00  0.00    +0.000 A 
ATOM     22  C   UNL     1       1.092   9.728  18.733  0.00  0.00    +0.000 A 
ATOM     23  C   UNL     1       0.981   8.709  19.812  0.00  0.00    +0.000 A 
ATOM     24  O   UNL     1       0.276   8.876  20.797  0.00  0.00    +0.000 OA
ATOM     25  C   UNL     1       1.783   7.484  19.636  0.00  0.00    +0.000 A 
ATOM     26  C   UNL     1       1.755   6.469  20.599  0.00  0.00    +0.000 A 
ENDBRANCH   1  22
BRANCH   3  27
ATOM     27  C   UNL     1      -3.302  11.969  19.001  0.00  0.00    +0.000 A 
ATOM     28  C   UNL     1      -3.972  12.601  20.072  0.00  0.00    +0.000 A 
ATOM     29  C   UNL     1      -5.341  12.451  20.277  0.00  0.00    +0.000 A 
ATOM     30  C   UNL     1      -6.084  11.686  19.391  0.00  0.00    +0.000 A 
ATOM     31  C   UNL     1      -5.462  11.082  18.299  0.00  0.00    +0.000 A 
ATOM     32  C   UNL     1      -4.082  11.225  18.104  0.00  0.00    +0.000 A 
ENDBRANCH   3  27
TORSDOF 2
ENDMDL
MODEL 6
REMARK VINA RESULT:      -8.2      0.938      2.067
REMARK  Name = 
REMARK  3 active torsions:
REMARK  status: ('A' for Active; 'I' for Inactive)
REMARK    1  A    between atoms: C_1  and  C_2
REMARK    2  A    between atoms: C_8  and  C_9
REMARK    3  A    between atoms: C_11  and  C_12
REMARK                            x       y       z     vdW  Elec       q    Type
REMARK                         _______ _______ _______ _____ _____    ______ ____
ROOT
ATOM      1  C   UNL     1       0.374  11.221  18.971  0.00  0.00    +0.000 A 
ATOM      2  C   UNL     1      -0.982  11.196  19.280  0.00  0.00    +0.000 A 
ATOM      3  C   UNL     1      -1.676  12.388  19.469  0.00  0.00    +0.000 A 
ATOM      4  N   UNL     1      -1.077  13.595  19.302  0.00  0.00    +0.000 NA
ATOM      5  C   UNL     1       0.252  13.617  18.989  0.00  0.00    +0.000 A 
ATOM      6  C   UNL     1       1.005  12.459  18.813  0.00  0.00    +0.000 A 
ATOM      7  C   UNL     1       2.469  12.563  18.506  0.00  0.00    +0.000 C 
ATOM      8  O   UNL     1       3.041  13.847  18.260  0.00  0.00    +0.000 OA
ATOM      9  C   UNL     1       2.281  14.951  18.512  0.00  0.00    +0.000 A 
ATOM     10  C   UNL     1       2.970  16.162  18.383  0.00  0.00    +0.000 A 
ATOM     11  C   UNL     1       2.305  17.367  18.571  0.00  0.00    +0.000 A 
ATOM     12  C   UNL     1       0.948  17.357  18.883  0.00  0.00    +0.000 A 
ATOM     13  C   UNL     1       0.263  16.143  19.021  0.00  0.00    +0.000 A 
ATOM     14  C   UNL     1       0.920  14.914  18.845  0.00  0.00    +0.000 A 
ENDROOT
BRANCH   1  22
ATOM     15  C   UNL     1       2.500   4.310  21.252  0.00  0.00    +0.000 C 
ATOM     16  C   UNL     1       2.468   5.420  20.243  0.00  0.00    +0.000 A 
ATOM     17  C   UNL     1       3.122   5.290  19.010  0.00  0.00    +0.000 A 
ATOM     18  C   UNL     1       3.096   6.333  18.082  0.00  0.00    +0.000 A 
ATOM     19  C   UNL     1       2.422   7.514  18.382  0.00  0.00    +0.000 A 
ATOM     20  O   UNL     1       2.462   8.512  17.443  0.00  0.00    +0.000 OA
ATOM     21  C   UNL     1       1.788   9.675  17.717  0.00  0.00    +0.000 A 
ATOM     22  C   UNL     1       1.080   9.943  18.827  0.00  0.00    +0.000 A 
ATOM     23  C   UNL     1       1.030   8.898  19.885  0.00  0.00    +0.000 A 
ATOM     24  O   UNL     1       0.434   9.064  20.939  0.00  0.00    +0.000 OA
ATOM     25  C   UNL     1       1.755   7.645  19.598  0.00  0.00    +0.000 A 
ATOM     26  C   UNL     1       1.777   6.604  20.532  0.00  0.00    +0.000 A 
ENDBRANCH   1  22
BRANCH   3  27
ATOM     27  C   UNL     1      -3.100  12.359  19.868  0.00  0.00    +0.000 A 
ATOM     28  C   UNL     1      -4.087  11.934  18.951  0.00  0.00    +0.000 A 
ATOM     29  C   UNL     1      -5.446  11.994  19.250  0.00  0.00    +0.000 A 
ATOM     30  C   UNL     1      -5.852  12.455  20.493  0.00  0.00    +0.000 A 
ATOM     31  C   UNL     1      -4.902  12.844  21.437  0.00  0.00    +0.000 A 
ATOM     32  C   UNL     1      -3.537  12.793  21.128  0.00  0.00    +0.000 A 
ENDBRANCH   3  27
TORSDOF 2
ENDMDL
MODEL 7
REMARK VINA RESULT:      -8.1      1.746      2.324
REMARK  Name = 
REMARK  3 active torsions:
REMARK  status: ('A' for Active; 'I' for Inactive)
REMARK    1  A    between atoms: C_1  and  C_2
REMARK    2  A    between atoms: C_8  and  C_9
REMARK    3  A    between atoms: C_11  and  C_12
REMARK                            x       y       z     vdW  Elec       q    Type
REMARK                         _______ _______ _______ _____ _____    ______ ____
ROOT
ATOM      1  C   UNL     1      -0.140  11.326  19.458  0.00  0.00    +0.000 A 
ATOM      2  C   UNL     1      -1.477  11.229  19.087  0.00  0.00    +0.000 A 
ATOM      3  C   UNL     1      -2.384  12.208  19.483  0.00  0.00    +0.000 A 
ATOM      4  N   UNL     1      -1.989  13.303  20.180  0.00  0.00    +0.000 NA
ATOM      5  C   UNL     1      -0.674  13.403  20.535  0.00  0.00    +0.000 A 
ATOM      6  C   UNL     1       0.274  12.443  20.190  0.00  0.00    +0.000 A 
ATOM      7  C   UNL     1       1.694  12.603  20.647  0.00  0.00    +0.000 C 
ATOM      8  O   UNL     1       2.083  13.806  21.308  0.00  0.00    +0.000 OA
ATOM      9  C   UNL     1       1.107  14.682  21.683  0.00  0.00    +0.000 A 
ATOM     10  C   UNL     1       1.566  15.757  22.451  0.00  0.00    +0.000 A 
ATOM     11  C   UNL     1       0.684  16.746  22.865  0.00  0.00    +0.000 A 
ATOM     12  C   UNL     1      -0.659  16.660  22.504  0.00  0.00    +0.000 A 
ATOM     13  C   UNL     1      -1.117  15.577  21.742  0.00  0.00    +0.000 A 
ATOM     14  C   UNL     1      -0.242  14.561  21.322  0.00  0.00    +0.000 A 
ENDROOT
BRANCH   1  22
ATOM     15  C   UNL     1       3.231   4.588  20.300  0.00  0.00    +0.000 C 
ATOM     16  C   UNL     1       2.975   5.854  19.537  0.00  0.00    +0.000 A 
ATOM     17  C   UNL     1       3.605   6.093  18.308  0.00  0.00    +0.000 A 
ATOM     18  C   UNL     1       3.369   7.280  17.611  0.00  0.00    +0.000 A 
ATOM     19  C   UNL     1       2.507   8.238  18.140  0.00  0.00    +0.000 A 
ATOM     20  O   UNL     1       2.344   9.395  17.424  0.00  0.00    +0.000 OA
ATOM     21  C   UNL     1       1.485  10.341  17.925  0.00  0.00    +0.000 A 
ATOM     22  C   UNL     1       0.775  10.250  19.061  0.00  0.00    +0.000 A 
ATOM     23  C   UNL     1       0.940   9.021  19.884  0.00  0.00    +0.000 A 
ATOM     24  O   UNL     1       0.356   8.863  20.946  0.00  0.00    +0.000 OA
ATOM     25  C   UNL     1       1.864   8.001  19.353  0.00  0.00    +0.000 A 
ATOM     26  C   UNL     1       2.097   6.814  20.056  0.00  0.00    +0.000 A 
ENDBRANCH   1  22
BRANCH   3  27
ATOM     27  C   UNL     1      -3.818  12.066  19.150  0.00  0.00    +0.000 A 
ATOM     28  C   UNL     1      -4.806  12.525  20.048  0.00  0.00    +0.000 A 
ATOM     29  C   UNL     1      -6.164  12.313  19.823  0.00  0.00    +0.000 A 
ATOM     30  C   UNL     1      -6.571  11.659  18.669  0.00  0.00    +0.000 A 
ATOM     31  C   UNL     1      -5.624  11.230  17.740  0.00  0.00    +0.000 A 
ATOM     32  C   UNL     1      -4.259  11.434  17.977  0.00  0.00    +0.000 A 
ENDBRANCH   3  27
TORSDOF 2
ENDMDL
MODEL 8
REMARK VINA RESULT:      -8.1      1.680      2.658
REMARK  Name = 
REMARK  3 active torsions:
REMARK  status: ('A' for Active; 'I' for Inactive)
REMARK    1  A    between atoms: C_1  and  C_2
REMARK    2  A    between atoms: C_8  and  C_9
REMARK    3  A    between atoms: C_11  and  C_12
REMARK                            x       y       z     vdW  Elec       q    Type
REMARK                         _______ _______ _______ _____ _____    ______ ____
ROOT
ATOM      1  C   UNL     1       0.675  11.016  19.513  0.00  0.00    +0.000 A 
ATOM      2  C   UNL     1      -0.496  11.104  20.258  0.00  0.00    +0.000 A 
ATOM      3  C   UNL     1      -1.019  12.351  20.589  0.00  0.00    +0.000 A 
ATOM      4  N   UNL     1      -0.448  13.502  20.153  0.00  0.00    +0.000 NA
ATOM      5  C   UNL     1       0.696  13.413  19.412  0.00  0.00    +0.000 A 
ATOM      6  C   UNL     1       1.281  12.196  19.071  0.00  0.00    +0.000 A 
ATOM      7  C   UNL     1       2.559  12.179  18.286  0.00  0.00    +0.000 C 
ATOM      8  O   UNL     1       3.083  13.406  17.779  0.00  0.00    +0.000 OA
ATOM      9  C   UNL     1       2.514  14.573  18.197  0.00  0.00    +0.000 A 
ATOM     10  C   UNL     1       3.183  15.723  17.765  0.00  0.00    +0.000 A 
ATOM     11  C   UNL     1       2.688  16.980  18.086  0.00  0.00    +0.000 A 
ATOM     12  C   UNL     1       1.517  17.084  18.833  0.00  0.00    +0.000 A 
ATOM     13  C   UNL     1       0.855  15.930  19.273  0.00  0.00    +0.000 A 
ATOM     14  C   UNL     1       1.346  14.650  18.967  0.00  0.00    +0.000 A 
ENDROOT
BRANCH   1  22
ATOM     15  C   UNL     1       2.459   3.856  21.256  0.00  0.00    +0.000 C 
ATOM     16  C   UNL     1       2.372   5.001  20.290  0.00  0.00    +0.000 A 
ATOM     17  C   UNL     1       2.801   4.859  18.964  0.00  0.00    +0.000 A 
ATOM     18  C   UNL     1       2.727   5.934  18.076  0.00  0.00    +0.000 A 
ATOM     19  C   UNL     1       2.229   7.161  18.510  0.00  0.00    +0.000 A 
ATOM     20  O   UNL     1       2.213   8.185  17.600  0.00  0.00    +0.000 OA
ATOM     21  C   UNL     1       1.710   9.395  18.008  0.00  0.00    +0.000 A 
ATOM     22  C   UNL     1       1.221   9.684  19.225  0.00  0.00    +0.000 A 
ATOM     23  C   UNL     1       1.241   8.609  20.253  0.00  0.00    +0.000 A 
ATOM     24  O   UNL     1       0.843   8.789  21.394  0.00  0.00    +0.000 OA
ATOM     25  C   UNL     1       1.784   7.306  19.822  0.00  0.00    +0.000 A 
ATOM     26  C   UNL     1       1.856   6.233  20.716  0.00  0.00    +0.000 A 
ENDBRANCH   1  22
BRANCH   3  27
ATOM     27  C   UNL     1      -2.224  12.444  21.443  0.00  0.00    +0.000 A 
ATOM     28  C   UNL     1      -3.452  12.878  20.895  0.00  0.00    +0.000 A 
ATOM     29  C   UNL     1      -4.580  13.083  21.686  0.00  0.00    +0.000 A 
ATOM     30  C   UNL     1      -4.517  12.826  23.046  0.00  0.00    +0.000 A 
ATOM     31  C   UNL     1      -3.332  12.355  23.613  0.00  0.00    +0.000 A 
ATOM     32  C   UNL     1      -2.196  12.163  22.817  0.00  0.00    +0.000 A 
ENDBRANCH   3  27
TORSDOF 2
ENDMDL
MODEL 9
REMARK VINA RESULT:      -8.0      2.243      5.230
REMARK  Name = 
REMARK  3 active torsions:
REMARK  status: ('A' for Active; 'I' for Inactive)
REMARK    1  A    between atoms: C_1  and  C_2
REMARK    2  A    between atoms: C_8  and  C_9
REMARK    3  A    between atoms: C_11  and  C_12
REMARK                            x       y       z     vdW  Elec       q    Type
REMARK                         _______ _______ _______ _____ _____    ______ ____
ROOT
ATOM      1  C   UNL     1      -0.366  11.142  19.615  0.00  0.00    +0.000 A 
ATOM      2  C   UNL     1       0.025  12.104  20.541  0.00  0.00    +0.000 A 
ATOM      3  C   UNL     1      -0.885  13.063  20.978  0.00  0.00    +0.000 A 
ATOM      4  N   UNL     1      -2.178  13.056  20.567  0.00  0.00    +0.000 NA
ATOM      5  C   UNL     1      -2.563  12.105  19.666  0.00  0.00    +0.000 A 
ATOM      6  C   UNL     1      -1.693  11.136  19.174  0.00  0.00    +0.000 A 
ATOM      7  C   UNL     1      -2.180  10.146  18.157  0.00  0.00    +0.000 C 
ATOM      8  O   UNL     1      -3.565  10.123  17.813  0.00  0.00    +0.000 OA
ATOM      9  C   UNL     1      -4.360  11.133  18.267  0.00  0.00    +0.000 A 
ATOM     10  C   UNL     1      -5.664  11.107  17.762  0.00  0.00    +0.000 A 
ATOM     11  C   UNL     1      -6.591  12.055  18.174  0.00  0.00    +0.000 A 
ATOM     12  C   UNL     1      -6.213  13.025  19.099  0.00  0.00    +0.000 A 
ATOM     13  C   UNL     1      -4.903  13.054  19.597  0.00  0.00    +0.000 A 
ATOM     14  C   UNL     1      -3.948  12.110  19.184  0.00  0.00    +0.000 A 
ENDROOT
BRANCH   1  22
ATOM     15  C   UNL     1       3.583   4.682  19.996  0.00  0.00    +0.000 C 
ATOM     16  C   UNL     1       3.212   5.969  19.319  0.00  0.00    +0.000 A 
ATOM     17  C   UNL     1       3.807   6.343  18.107  0.00  0.00    +0.000 A 
ATOM     18  C   UNL     1       3.464   7.548  17.492  0.00  0.00    +0.000 A 
ATOM     19  C   UNL     1       2.527   8.391  18.087  0.00  0.00    +0.000 A 
ATOM     20  O   UNL     1       2.258   9.573  17.449  0.00  0.00    +0.000 OA
ATOM     21  C   UNL     1       1.325  10.406  18.015  0.00  0.00    +0.000 A 
ATOM     22  C   UNL     1       0.635  10.178  19.145  0.00  0.00    +0.000 A 
ATOM     23  C   UNL     1       0.913   8.916  19.884  0.00  0.00    +0.000 A 
ATOM     24  O   UNL     1       0.354   8.638  20.934  0.00  0.00    +0.000 OA
ATOM     25  C   UNL     1       1.918   8.018  19.283  0.00  0.00    +0.000 A 
ATOM     26  C   UNL     1       2.258   6.812  19.904  0.00  0.00    +0.000 A 
ENDBRANCH   1  22
BRANCH   3  27
ATOM     27  C   UNL     1      -0.447  14.128  21.907  0.00  0.00    +0.000 A 
ATOM     28  C   UNL     1      -1.212  14.427  23.056  0.00  0.00    +0.000 A 
ATOM     29  C   UNL     1      -0.895  15.492  23.896  0.00  0.00    +0.000 A 
ATOM     30  C   UNL     1       0.221  16.268  23.622  0.00  0.00    +0.000 A 
ATOM     31  C   UNL     1       1.023  15.974  22.520  0.00  0.00    +0.000 A 
ATOM     32  C   UNL     1       0.692  14.911  21.670  0.00  0.00    +0.000 A 
ENDBRANCH   3  27
TORSDOF 2
ENDMDL
