MODEL 1
REMARK VINA RESULT:      -7.8      0.000      0.000
REMARK  Name = 
REMARK  9 active torsions:
REMARK  status: ('A' for Active; 'I' for Inactive)
REMARK    1  A    between atoms: C_1  and  O_2
REMARK    2  A    between atoms: O_2  and  C_3
REMARK    3  A    between atoms: C_6  and  O_7
REMARK    4  A    between atoms: O_7  and  C_8
REMARK    5  A    between atoms: C_9  and  C_10
REMARK    6  A    between atoms: C_10  and  O_11
REMARK    7  A    between atoms: O_11  and  C_12
REMARK    8  A    between atoms: C_17  and  C_18
REMARK    9  A    between atoms: N_20  and  C_21
REMARK                            x       y       z     vdW  Elec       q    Type
REMARK                         _______ _______ _______ _____ _____    ______ ____
ROOT
ATOM      1  C   UNL     1       2.236   4.786  19.682  0.00  0.00    +0.000 A 
ATOM      2  C   UNL     1       1.225   4.422  20.590  0.00  0.00    +0.000 A 
ATOM      3  C   UNL     1       1.314   3.266  21.370  0.00  0.00    +0.000 A 
ATOM      4  C   UNL     1       2.422   2.448  21.261  0.00  0.00    +0.000 A 
ATOM      5  C   UNL     1       3.439   2.794  20.375  0.00  0.00    +0.000 A 
ATOM      6  C   UNL     1       3.373   3.961  19.575  0.00  0.00    +0.000 A 
ENDROOT
BRANCH   6   7
ATOM      7  C   UNL     1       4.547   4.156  18.656  0.00  0.00    +0.000 C 
ATOM      8  O   UNL     1       5.666   3.939  19.124  0.00  0.00    +0.000 OA
ATOM      9  N   UNL     1       4.319   4.542  17.347  0.00  0.00    +0.000 N 
ATOM     10  H   UNL     1       3.352   4.724  17.094  0.00  0.00    +0.000 HD
BRANCH   9  11
ATOM     11  C   UNL     1       5.308   4.666  16.331  0.00  0.00    +0.000 A 
ATOM     12  C   UNL     1       5.331   3.918  15.153  0.00  0.00    +0.000 A 
ATOM     13  C   UNL     1       6.321   4.139  14.192  0.00  0.00    +0.000 A 
ATOM     14  C   UNL     1       7.274   5.105  14.438  0.00  0.00    +0.000 A 
ATOM     15  N   UNL     1       7.312   5.848  15.570  0.00  0.00    +0.000 NA
ATOM     16  C   UNL     1       6.330   5.602  16.483  0.00  0.00    +0.000 A 
ENDBRANCH   9  11
ENDBRANCH   6   7
BRANCH   1  17
ATOM     17  O   UNL     1       2.170   5.936  18.930  0.00  0.00    +0.000 OA
BRANCH  17  18
ATOM     18  C   UNL     1       2.700   7.145  19.506  0.00  0.00    +0.000 C 
BRANCH  18  23
ATOM     19  C   UNL     1       0.123   9.049  21.584  0.00  0.00    +0.000 A 
ATOM     20  C   UNL     1      -0.160  10.138  20.766  0.00  0.00    +0.000 A 
ATOM     21  C   UNL     1       0.458  10.273  19.522  0.00  0.00    +0.000 A 
ATOM     22  C   UNL     1       1.365   9.309  19.064  0.00  0.00    +0.000 A 
ATOM     23  C   UNL     1       1.707   8.231  19.898  0.00  0.00    +0.000 A 
ATOM     24  C   UNL     1       1.062   8.110  21.155  0.00  0.00    +0.000 A 
BRANCH  19  26
ATOM     25  C   UNL     1      -1.030  10.264  23.280  0.00  0.00    +0.000 C 
ATOM     26  O   UNL     1      -0.584   9.023  22.752  0.00  0.00    +0.000 OA
ENDBRANCH  19  26
BRANCH  22  27
ATOM     27  O   UNL     1       1.966   9.367  17.835  0.00  0.00    +0.000 OA
ATOM     28  C   UNL     1       2.588  10.605  17.500  0.00  0.00    +0.000 C 
ENDBRANCH  22  27
ENDBRANCH  18  23
ENDBRANCH  17  18
ENDBRANCH   1  17
TORSDOF 7
ENDMDL
MODEL 2
REMARK VINA RESULT:      -7.3      2.528      6.978
REMARK  Name = 
REMARK  9 active torsions:
REMARK  status: ('A' for Active; 'I' for Inactive)
REMARK    1  A    between atoms: C_1  and  O_2
REMARK    2  A    between atoms: O_2  and  C_3
REMARK    3  A    between atoms: C_6  and  O_7
REMARK    4  A    between atoms: O_7  and  C_8
REMARK    5  A    between atoms: C_9  and  C_10
REMARK    6  A    between atoms: C_10  and  O_11
REMARK    7  A    between atoms: O_11  and  C_12
REMARK    8  A    between atoms: C_17  and  C_18
REMARK    9  A    between atoms: N_20  and  C_21
REMARK                            x       y       z     vdW  Elec       q    Type
REMARK                         _______ _______ _______ _____ _____    ______ ____
ROOT
ATOM      1  C   UNL     1       2.168   4.023  18.904  0.00  0.00    +0.000 A 
ATOM      2  C   UNL     1       2.065   2.643  19.159  0.00  0.00    +0.000 A 
ATOM      3  C   UNL     1       1.848   2.143  20.445  0.00  0.00    +0.000 A 
ATOM      4  C   UNL     1       1.725   3.016  21.509  0.00  0.00    +0.000 A 
ATOM      5  C   UNL     1       1.813   4.386  21.279  0.00  0.00    +0.000 A 
ATOM      6  C   UNL     1       2.031   4.917  19.984  0.00  0.00    +0.000 A 
ENDROOT
BRANCH   6   7
ATOM      7  C   UNL     1       2.130   6.417  19.932  0.00  0.00    +0.000 C 
ATOM      8  O   UNL     1       2.988   6.896  19.189  0.00  0.00    +0.000 OA
ATOM      9  N   UNL     1       1.254   7.175  20.688  0.00  0.00    +0.000 N 
ATOM     10  H   UNL     1       0.615   6.659  21.288  0.00  0.00    +0.000 HD
BRANCH   9  11
ATOM     11  C   UNL     1       1.149   8.594  20.669  0.00  0.00    +0.000 A 
ATOM     12  C   UNL     1       1.027   9.364  19.512  0.00  0.00    +0.000 A 
ATOM     13  C   UNL     1       0.889  10.752  19.594  0.00  0.00    +0.000 A 
ATOM     14  C   UNL     1       0.882  11.340  20.840  0.00  0.00    +0.000 A 
ATOM     15  N   UNL     1       1.014  10.646  21.997  0.00  0.00    +0.000 NA
ATOM     16  C   UNL     1       1.148   9.296  21.874  0.00  0.00    +0.000 A 
ENDBRANCH   9  11
ENDBRANCH   6   7
BRANCH   1  17
ATOM     17  O   UNL     1       2.354   4.526  17.638  0.00  0.00    +0.000 OA
BRANCH  17  18
ATOM     18  C   UNL     1       3.307   3.862  16.786  0.00  0.00    +0.000 C 
BRANCH  18  23
ATOM     19  C   UNL     1       6.537   4.810  18.589  0.00  0.00    +0.000 A 
ATOM     20  C   UNL     1       7.460   4.811  17.548  0.00  0.00    +0.000 A 
ATOM     21  C   UNL     1       7.058   4.526  16.242  0.00  0.00    +0.000 A 
ATOM     22  C   UNL     1       5.718   4.246  15.948  0.00  0.00    +0.000 A 
ATOM     23  C   UNL     1       4.781   4.184  16.994  0.00  0.00    +0.000 A 
ATOM     24  C   UNL     1       5.209   4.484  18.312  0.00  0.00    +0.000 A 
BRANCH  19  26
ATOM     25  C   UNL     1       8.311   5.818  19.821  0.00  0.00    +0.000 C 
ATOM     26  O   UNL     1       7.060   5.146  19.805  0.00  0.00    +0.000 OA
ENDBRANCH  19  26
BRANCH  22  27
ATOM     27  O   UNL     1       5.261   4.004  14.681  0.00  0.00    +0.000 OA
ATOM     28  C   UNL     1       6.247   3.989  13.652  0.00  0.00    +0.000 C 
ENDBRANCH  22  27
ENDBRANCH  18  23
ENDBRANCH  17  18
ENDBRANCH   1  17
TORSDOF 7
ENDMDL
MODEL 3
REMARK VINA RESULT:      -7.1      2.190      6.868
REMARK  Name = 
REMARK  9 active torsions:
REMARK  status: ('A' for Active; 'I' for Inactive)
REMARK    1  A    between atoms: C_1  and  O_2
REMARK    2  A    between atoms: O_2  and  C_3
REMARK    3  A    between atoms: C_6  and  O_7
REMARK    4  A    between atoms: O_7  and  C_8
REMARK    5  A    between atoms: C_9  and  C_10
REMARK    6  A    between atoms: C_10  and  O_11
REMARK    7  A    between atoms: O_11  and  C_12
REMARK    8  A    between atoms: C_17  and  C_18
REMARK    9  A    between atoms: N_20  and  C_21
REMARK                            x       y       z     vdW  Elec       q    Type
REMARK                         _______ _______ _______ _____ _____    ______ ____
ROOT
ATOM      1  C   UNL     1       2.455   7.904  18.155  0.00  0.00    +0.000 A 
ATOM      2  C   UNL     1       2.104   9.261  18.028  0.00  0.00    +0.000 A 
ATOM      3  C   UNL     1       1.451   9.955  19.049  0.00  0.00    +0.000 A 
ATOM      4  C   UNL     1       1.138   9.306  20.228  0.00  0.00    +0.000 A 
ATOM      5  C   UNL     1       1.485   7.967  20.381  0.00  0.00    +0.000 A 
ATOM      6  C   UNL     1       2.148   7.242  19.360  0.00  0.00    +0.000 A 
ENDROOT
BRANCH   6   7
ATOM      7  C   UNL     1       2.414   5.799  19.690  0.00  0.00    +0.000 C 
ATOM      8  O   UNL     1       1.745   5.299  20.596  0.00  0.00    +0.000 OA
ATOM      9  N   UNL     1       3.364   5.106  18.960  0.00  0.00    +0.000 N 
ATOM     10  H   UNL     1       3.873   5.642  18.262  0.00  0.00    +0.000 HD
BRANCH   9  11
ATOM     11  C   UNL     1       3.657   3.719  19.077  0.00  0.00    +0.000 A 
ATOM     12  C   UNL     1       3.132   2.726  18.249  0.00  0.00    +0.000 A 
ATOM     13  C   UNL     1       3.509   1.391  18.415  0.00  0.00    +0.000 A 
ATOM     14  C   UNL     1       4.404   1.079  19.416  0.00  0.00    +0.000 A 
ATOM     15  N   UNL     1       4.932   1.998  20.262  0.00  0.00    +0.000 NA
ATOM     16  C   UNL     1       4.538   3.287  20.068  0.00  0.00    +0.000 A 
ENDBRANCH   9  11
ENDBRANCH   6   7
BRANCH   1  17
ATOM     17  O   UNL     1       3.122   7.220  17.167  0.00  0.00    +0.000 OA
BRANCH  17  18
ATOM     18  C   UNL     1       4.544   7.423  17.052  0.00  0.00    +0.000 C 
BRANCH  18  23
ATOM     19  C   UNL     1       5.840   4.624  14.801  0.00  0.00    +0.000 A 
ATOM     20  C   UNL     1       6.843   4.064  15.584  0.00  0.00    +0.000 A 
ATOM     21  C   UNL     1       7.111   4.562  16.860  0.00  0.00    +0.000 A 
ATOM     22  C   UNL     1       6.367   5.627  17.385  0.00  0.00    +0.000 A 
ATOM     23  C   UNL     1       5.388   6.244  16.587  0.00  0.00    +0.000 A 
ATOM     24  C   UNL     1       5.128   5.717  15.297  0.00  0.00    +0.000 A 
BRANCH  19  26
ATOM     25  C   UNL     1       6.765   3.968  12.704  0.00  0.00    +0.000 C 
ATOM     26  O   UNL     1       5.659   4.011  13.594  0.00  0.00    +0.000 OA
ENDBRANCH  19  26
BRANCH  22  27
ATOM     27  O   UNL     1       6.556   6.126  18.645  0.00  0.00    +0.000 OA
ATOM     28  C   UNL     1       7.755   5.726  19.304  0.00  0.00    +0.000 C 
ENDBRANCH  22  27
ENDBRANCH  18  23
ENDBRANCH  17  18
ENDBRANCH   1  17
TORSDOF 7
ENDMDL
MODEL 4
REMARK VINA RESULT:      -7.1      2.443      7.580
REMARK  Name = 
REMARK  9 active torsions:
REMARK  status: ('A' for Active; 'I' for Inactive)
REMARK    1  A    between atoms: C_1  and  O_2
REMARK    2  A    between atoms: O_2  and  C_3
REMARK    3  A    between atoms: C_6  and  O_7
REMARK    4  A    between atoms: O_7  and  C_8
REMARK    5  A    between atoms: C_9  and  C_10
REMARK    6  A    between atoms: C_10  and  O_11
REMARK    7  A    between atoms: O_11  and  C_12
REMARK    8  A    between atoms: C_17  and  C_18
REMARK    9  A    between atoms: N_20  and  C_21
REMARK                            x       y       z     vdW  Elec       q    Type
REMARK                         _______ _______ _______ _____ _____    ______ ____
ROOT
ATOM      1  C   UNL     1       3.967   4.853  19.423  0.00  0.00    +0.000 A 
ATOM      2  C   UNL     1       4.776   3.707  19.308  0.00  0.00    +0.000 A 
ATOM      3  C   UNL     1       4.436   2.498  19.919  0.00  0.00    +0.000 A 
ATOM      4  C   UNL     1       3.273   2.407  20.659  0.00  0.00    +0.000 A 
ATOM      5  C   UNL     1       2.452   3.525  20.779  0.00  0.00    +0.000 A 
ATOM      6  C   UNL     1       2.775   4.761  20.167  0.00  0.00    +0.000 A 
ENDROOT
BRANCH   6   7
ATOM      7  C   UNL     1       1.788   5.865  20.430  0.00  0.00    +0.000 C 
ATOM      8  O   UNL     1       0.632   5.530  20.696  0.00  0.00    +0.000 OA
ATOM      9  N   UNL     1       2.220   7.178  20.385  0.00  0.00    +0.000 N 
ATOM     10  H   UNL     1       3.190   7.323  20.120  0.00  0.00    +0.000 HD
BRANCH   9  11
ATOM     11  C   UNL     1       1.441   8.324  20.711  0.00  0.00    +0.000 A 
ATOM     12  C   UNL     1       1.001   8.643  21.996  0.00  0.00    +0.000 A 
ATOM     13  C   UNL     1       0.274   9.813  22.227  0.00  0.00    +0.000 A 
ATOM     14  C   UNL     1      -0.003  10.638  21.158  0.00  0.00    +0.000 A 
ATOM     15  N   UNL     1       0.383  10.371  19.886  0.00  0.00    +0.000 NA
ATOM     16  C   UNL     1       1.088   9.220  19.703  0.00  0.00    +0.000 A 
ENDBRANCH   9  11
ENDBRANCH   6   7
BRANCH   1  17
ATOM     17  O   UNL     1       4.279   6.040  18.803  0.00  0.00    +0.000 OA
BRANCH  17  18
ATOM     18  C   UNL     1       4.073   6.127  17.380  0.00  0.00    +0.000 C 
BRANCH  18  23
ATOM     19  C   UNL     1       5.788   4.329  14.480  0.00  0.00    +0.000 A 
ATOM     20  C   UNL     1       7.128   4.615  14.715  0.00  0.00    +0.000 A 
ATOM     21  C   UNL     1       7.510   5.376  15.820  0.00  0.00    +0.000 A 
ATOM     22  C   UNL     1       6.554   5.857  16.725  0.00  0.00    +0.000 A 
ATOM     23  C   UNL     1       5.191   5.627  16.474  0.00  0.00    +0.000 A 
ATOM     24  C   UNL     1       4.826   4.845  15.350  0.00  0.00    +0.000 A 
BRANCH  19  26
ATOM     25  C   UNL     1       6.500   3.607  12.323  0.00  0.00    +0.000 C 
ATOM     26  O   UNL     1       5.563   3.540  13.388  0.00  0.00    +0.000 OA
ENDBRANCH  19  26
BRANCH  22  27
ATOM     27  O   UNL     1       6.875   6.569  17.848  0.00  0.00    +0.000 OA
ATOM     28  C   UNL     1       7.770   5.934  18.759  0.00  0.00    +0.000 C 
ENDBRANCH  22  27
ENDBRANCH  18  23
ENDBRANCH  17  18
ENDBRANCH   1  17
TORSDOF 7
ENDMDL
MODEL 5
REMARK VINA RESULT:      -7.0      2.210      6.905
REMARK  Name = 
REMARK  9 active torsions:
REMARK  status: ('A' for Active; 'I' for Inactive)
REMARK    1  A    between atoms: C_1  and  O_2
REMARK    2  A    between atoms: O_2  and  C_3
REMARK    3  A    between atoms: C_6  and  O_7
REMARK    4  A    between atoms: O_7  and  C_8
REMARK    5  A    between atoms: C_9  and  C_10
REMARK    6  A    between atoms: C_10  and  O_11
REMARK    7  A    between atoms: O_11  and  C_12
REMARK    8  A    between atoms: C_17  and  C_18
REMARK    9  A    between atoms: N_20  and  C_21
REMARK                            x       y       z     vdW  Elec       q    Type
REMARK                         _______ _______ _______ _____ _____    ______ ____
ROOT
ATOM      1  C   UNL     1       2.474   8.230  18.016  0.00  0.00    +0.000 A 
ATOM      2  C   UNL     1       2.081   9.574  17.876  0.00  0.00    +0.000 A 
ATOM      3  C   UNL     1       1.359  10.240  18.869  0.00  0.00    +0.000 A 
ATOM      4  C   UNL     1       1.016   9.576  20.031  0.00  0.00    +0.000 A 
ATOM      5  C   UNL     1       1.402   8.248  20.195  0.00  0.00    +0.000 A 
ATOM      6  C   UNL     1       2.135   7.552  19.204  0.00  0.00    +0.000 A 
ENDROOT
BRANCH   6   7
ATOM      7  C   UNL     1       2.437   6.117  19.542  0.00  0.00    +0.000 C 
ATOM      8  O   UNL     1       2.075   5.715  20.649  0.00  0.00    +0.000 OA
ATOM      9  N   UNL     1       3.074   5.325  18.603  0.00  0.00    +0.000 N 
ATOM     10  H   UNL     1       3.353   5.786  17.741  0.00  0.00    +0.000 HD
BRANCH   9  11
ATOM     11  C   UNL     1       3.334   3.932  18.727  0.00  0.00    +0.000 A 
ATOM     12  C   UNL     1       4.298   3.378  19.572  0.00  0.00    +0.000 A 
ATOM     13  C   UNL     1       4.455   1.993  19.656  0.00  0.00    +0.000 A 
ATOM     14  C   UNL     1       3.643   1.189  18.884  0.00  0.00    +0.000 A 
ATOM     15  N   UNL     1       2.704   1.671  18.033  0.00  0.00    +0.000 NA
ATOM     16  C   UNL     1       2.583   3.027  17.979  0.00  0.00    +0.000 A 
ENDBRANCH   9  11
ENDBRANCH   6   7
BRANCH   1  17
ATOM     17  O   UNL     1       3.208   7.573  17.057  0.00  0.00    +0.000 OA
BRANCH  17  18
ATOM     18  C   UNL     1       4.642   7.574  17.192  0.00  0.00    +0.000 C 
BRANCH  18  23
ATOM     19  C   UNL     1       5.678   4.733  14.861  0.00  0.00    +0.000 A 
ATOM     20  C   UNL     1       6.685   4.112  15.592  0.00  0.00    +0.000 A 
ATOM     21  C   UNL     1       7.038   4.582  16.858  0.00  0.00    +0.000 A 
ATOM     22  C   UNL     1       6.379   5.680  17.425  0.00  0.00    +0.000 A 
ATOM     23  C   UNL     1       5.399   6.356  16.679  0.00  0.00    +0.000 A 
ATOM     24  C   UNL     1       5.050   5.857  15.399  0.00  0.00    +0.000 A 
BRANCH  19  26
ATOM     25  C   UNL     1       6.512   3.775  12.844  0.00  0.00    +0.000 C 
ATOM     26  O   UNL     1       5.409   4.143  13.659  0.00  0.00    +0.000 OA
ENDBRANCH  19  26
BRANCH  22  27
ATOM     27  O   UNL     1       6.653   6.155  18.679  0.00  0.00    +0.000 OA
ATOM     28  C   UNL     1       7.950   5.860  19.191  0.00  0.00    +0.000 C 
ENDBRANCH  22  27
ENDBRANCH  18  23
ENDBRANCH  17  18
ENDBRANCH   1  17
TORSDOF 7
ENDMDL
MODEL 6
REMARK VINA RESULT:      -7.0      2.500      7.591
REMARK  Name = 
REMARK  9 active torsions:
REMARK  status: ('A' for Active; 'I' for Inactive)
REMARK    1  A    between atoms: C_1  and  O_2
REMARK    2  A    between atoms: O_2  and  C_3
REMARK    3  A    between atoms: C_6  and  O_7
REMARK    4  A    between atoms: O_7  and  C_8
REMARK    5  A    between atoms: C_9  and  C_10
REMARK    6  A    between atoms: C_10  and  O_11
REMARK    7  A    between atoms: O_11  and  C_12
REMARK    8  A    between atoms: C_17  and  C_18
REMARK    9  A    between atoms: N_20  and  C_21
REMARK                            x       y       z     vdW  Elec       q    Type
REMARK                         _______ _______ _______ _____ _____    ______ ____
ROOT
ATOM      1  C   UNL     1       3.694   4.640  19.971  0.00  0.00    +0.000 A 
ATOM      2  C   UNL     1       3.788   3.292  20.362  0.00  0.00    +0.000 A 
ATOM      3  C   UNL     1       2.712   2.612  20.938  0.00  0.00    +0.000 A 
ATOM      4  C   UNL     1       1.511   3.268  21.131  0.00  0.00    +0.000 A 
ATOM      5  C   UNL     1       1.391   4.599  20.742  0.00  0.00    +0.000 A 
ATOM      6  C   UNL     1       2.468   5.309  20.156  0.00  0.00    +0.000 A 
ENDROOT
BRANCH   6   7
ATOM      7  C   UNL     1       2.165   6.745  19.829  0.00  0.00    +0.000 C 
ATOM      8  O   UNL     1       2.356   7.107  18.667  0.00  0.00    +0.000 OA
ATOM      9  N   UNL     1       1.673   7.572  20.824  0.00  0.00    +0.000 N 
ATOM     10  H   UNL     1       1.594   7.162  21.751  0.00  0.00    +0.000 HD
BRANCH   9  11
ATOM     11  C   UNL     1       1.241   8.917  20.652  0.00  0.00    +0.000 A 
ATOM     12  C   UNL     1       1.047   9.535  19.416  0.00  0.00    +0.000 A 
ATOM     13  C   UNL     1       0.581  10.850  19.346  0.00  0.00    +0.000 A 
ATOM     14  C   UNL     1       0.326  11.522  20.522  0.00  0.00    +0.000 A 
ATOM     15  N   UNL     1       0.513  10.980  21.751  0.00  0.00    +0.000 NA
ATOM     16  C   UNL     1       0.969   9.696  21.776  0.00  0.00    +0.000 A 
ENDBRANCH   9  11
ENDBRANCH   6   7
BRANCH   1  17
ATOM     17  O   UNL     1       4.739   5.310  19.379  0.00  0.00    +0.000 OA
BRANCH  17  18
ATOM     18  C   UNL     1       5.801   4.524  18.806  0.00  0.00    +0.000 C 
BRANCH  18  23
ATOM     19  C   UNL     1       7.025   5.034  15.225  0.00  0.00    +0.000 A 
ATOM     20  C   UNL     1       6.085   4.316  14.493  0.00  0.00    +0.000 A 
ATOM     21  C   UNL     1       5.028   3.669  15.134  0.00  0.00    +0.000 A 
ATOM     22  C   UNL     1       4.882   3.740  16.526  0.00  0.00    +0.000 A 
ATOM     23  C   UNL     1       5.852   4.412  17.288  0.00  0.00    +0.000 A 
ATOM     24  C   UNL     1       6.914   5.068  16.615  0.00  0.00    +0.000 A 
BRANCH  19  26
ATOM     25  C   UNL     1       7.995   5.370  13.073  0.00  0.00    +0.000 C 
ATOM     26  O   UNL     1       7.979   5.650  14.466  0.00  0.00    +0.000 OA
ENDBRANCH  19  26
BRANCH  22  27
ATOM     27  O   UNL     1       3.841   3.163  17.202  0.00  0.00    +0.000 OA
ATOM     28  C   UNL     1       2.538   3.633  16.866  0.00  0.00    +0.000 C 
ENDBRANCH  22  27
ENDBRANCH  18  23
ENDBRANCH  17  18
ENDBRANCH   1  17
TORSDOF 7
ENDMDL
MODEL 7
REMARK VINA RESULT:      -7.0      2.396      7.171
REMARK  Name = 
REMARK  9 active torsions:
REMARK  status: ('A' for Active; 'I' for Inactive)
REMARK    1  A    between atoms: C_1  and  O_2
REMARK    2  A    between atoms: O_2  and  C_3
REMARK    3  A    between atoms: C_6  and  O_7
REMARK    4  A    between atoms: O_7  and  C_8
REMARK    5  A    between atoms: C_9  and  C_10
REMARK    6  A    between atoms: C_10  and  O_11
REMARK    7  A    between atoms: O_11  and  C_12
REMARK    8  A    between atoms: C_17  and  C_18
REMARK    9  A    between atoms: N_20  and  C_21
REMARK                            x       y       z     vdW  Elec       q    Type
REMARK                         _______ _______ _______ _____ _____    ______ ____
ROOT
ATOM      1  C   UNL     1       3.526   3.375  19.433  0.00  0.00    +0.000 A 
ATOM      2  C   UNL     1       3.735   2.241  20.239  0.00  0.00    +0.000 A 
ATOM      3  C   UNL     1       3.074   2.069  21.458  0.00  0.00    +0.000 A 
ATOM      4  C   UNL     1       2.182   3.030  21.897  0.00  0.00    +0.000 A 
ATOM      5  C   UNL     1       1.953   4.155  21.110  0.00  0.00    +0.000 A 
ATOM      6  C   UNL     1       2.609   4.351  19.871  0.00  0.00    +0.000 A 
ENDROOT
BRANCH   6   7
ATOM      7  C   UNL     1       2.260   5.638  19.175  0.00  0.00    +0.000 C 
ATOM      8  O   UNL     1       1.870   5.555  18.009  0.00  0.00    +0.000 OA
ATOM      9  N   UNL     1       2.369   6.829  19.870  0.00  0.00    +0.000 N 
ATOM     10  H   UNL     1       2.736   6.766  20.816  0.00  0.00    +0.000 HD
BRANCH   9  11
ATOM     11  C   UNL     1       1.980   8.111  19.392  0.00  0.00    +0.000 A 
ATOM     12  C   UNL     1       2.387   8.661  18.176  0.00  0.00    +0.000 A 
ATOM     13  C   UNL     1       1.921   9.913  17.771  0.00  0.00    +0.000 A 
ATOM     14  C   UNL     1       1.056  10.594  18.602  0.00  0.00    +0.000 A 
ATOM     15  N   UNL     1       0.641  10.119  19.802  0.00  0.00    +0.000 NA
ATOM     16  C   UNL     1       1.120   8.895  20.160  0.00  0.00    +0.000 A 
ENDBRANCH   9  11
ENDBRANCH   6   7
BRANCH   1  17
ATOM     17  O   UNL     1       4.150   3.540  18.219  0.00  0.00    +0.000 OA
BRANCH  17  18
ATOM     18  C   UNL     1       5.272   4.442  18.159  0.00  0.00    +0.000 C 
BRANCH  18  23
ATOM     19  C   UNL     1       5.970   4.057  14.424  0.00  0.00    +0.000 A 
ATOM     20  C   UNL     1       7.011   4.960  14.230  0.00  0.00    +0.000 A 
ATOM     21  C   UNL     1       7.522   5.697  15.300  0.00  0.00    +0.000 A 
ATOM     22  C   UNL     1       7.008   5.534  16.593  0.00  0.00    +0.000 A 
ATOM     23  C   UNL     1       5.920   4.670  16.799  0.00  0.00    +0.000 A 
ATOM     24  C   UNL     1       5.421   3.926  15.700  0.00  0.00    +0.000 A 
BRANCH  19  26
ATOM     25  C   UNL     1       6.440   3.477  12.160  0.00  0.00    +0.000 C 
ATOM     26  O   UNL     1       5.599   3.376  13.300  0.00  0.00    +0.000 OA
ENDBRANCH  19  26
BRANCH  22  27
ATOM     27  O   UNL     1       7.500   6.196  17.685  0.00  0.00    +0.000 OA
ATOM     28  C   UNL     1       7.688   7.601  17.534  0.00  0.00    +0.000 C 
ENDBRANCH  22  27
ENDBRANCH  18  23
ENDBRANCH  17  18
ENDBRANCH   1  17
TORSDOF 7
ENDMDL
MODEL 8
REMARK VINA RESULT:      -7.0      3.554      7.727
REMARK  Name = 
REMARK  9 active torsions:
REMARK  status: ('A' for Active; 'I' for Inactive)
REMARK    1  A    between atoms: C_1  and  O_2
REMARK    2  A    between atoms: O_2  and  C_3
REMARK    3  A    between atoms: C_6  and  O_7
REMARK    4  A    between atoms: O_7  and  C_8
REMARK    5  A    between atoms: C_9  and  C_10
REMARK    6  A    between atoms: C_10  and  O_11
REMARK    7  A    between atoms: O_11  and  C_12
REMARK    8  A    between atoms: C_17  and  C_18
REMARK    9  A    between atoms: N_20  and  C_21
REMARK                            x       y       z     vdW  Elec       q    Type
REMARK                         _______ _______ _______ _____ _____    ______ ____
ROOT
ATOM      1  C   UNL     1       0.708   9.116  20.765  0.00  0.00    +0.000 A 
ATOM      2  C   UNL     1       1.126   8.792  22.069  0.00  0.00    +0.000 A 
ATOM      3  C   UNL     1       0.568   9.399  23.197  0.00  0.00    +0.000 A 
ATOM      4  C   UNL     1      -0.428  10.344  23.045  0.00  0.00    +0.000 A 
ATOM      5  C   UNL     1      -0.865  10.674  21.765  0.00  0.00    +0.000 A 
ATOM      6  C   UNL     1      -0.315  10.071  20.606  0.00  0.00    +0.000 A 
ENDROOT
BRANCH   6   7
ATOM      7  C   UNL     1      -0.888  10.573  19.309  0.00  0.00    +0.000 C 
ATOM      8  O   UNL     1      -0.237  11.425  18.703  0.00  0.00    +0.000 OA
ATOM      9  N   UNL     1      -2.085  10.048  18.855  0.00  0.00    +0.000 N 
ATOM     10  H   UNL     1      -2.541   9.375  19.466  0.00  0.00    +0.000 HD
BRANCH   9  11
ATOM     11  C   UNL     1      -2.701  10.337  17.606  0.00  0.00    +0.000 A 
ATOM     12  C   UNL     1      -3.788  11.197  17.440  0.00  0.00    +0.000 A 
ATOM     13  C   UNL     1      -4.303  11.452  16.166  0.00  0.00    +0.000 A 
ATOM     14  C   UNL     1      -3.717  10.831  15.083  0.00  0.00    +0.000 A 
ATOM     15  N   UNL     1      -2.673   9.974  15.185  0.00  0.00    +0.000 NA
ATOM     16  C   UNL     1      -2.201   9.751  16.444  0.00  0.00    +0.000 A 
ENDBRANCH   9  11
ENDBRANCH   6   7
BRANCH   1  17
ATOM     17  O   UNL     1       1.232   8.504  19.650  0.00  0.00    +0.000 OA
BRANCH  17  18
ATOM     18  C   UNL     1       2.416   7.703  19.819  0.00  0.00    +0.000 C 
BRANCH  18  23
ATOM     19  C   UNL     1       1.617   3.974  19.627  0.00  0.00    +0.000 A 
ATOM     20  C   UNL     1       2.241   3.605  18.439  0.00  0.00    +0.000 A 
ATOM     21  C   UNL     1       2.947   4.544  17.686  0.00  0.00    +0.000 A 
ATOM     22  C   UNL     1       3.055   5.873  18.116  0.00  0.00    +0.000 A 
ATOM     23  C   UNL     1       2.385   6.278  19.282  0.00  0.00    +0.000 A 
ATOM     24  C   UNL     1       1.679   5.306  20.035  0.00  0.00    +0.000 A 
BRANCH  19  26
ATOM     25  C   UNL     1       1.431   2.649  21.600  0.00  0.00    +0.000 C 
ATOM     26  O   UNL     1       0.999   2.946  20.280  0.00  0.00    +0.000 OA
ENDBRANCH  19  26
BRANCH  22  27
ATOM     27  O   UNL     1       3.772   6.824  17.441  0.00  0.00    +0.000 OA
ATOM     28  C   UNL     1       4.844   6.344  16.632  0.00  0.00    +0.000 C 
ENDBRANCH  22  27
ENDBRANCH  18  23
ENDBRANCH  17  18
ENDBRANCH   1  17
TORSDOF 7
ENDMDL
MODEL 9
REMARK VINA RESULT:      -6.9      1.079      2.717
REMARK  Name = 
REMARK  9 active torsions:
REMARK  status: ('A' for Active; 'I' for Inactive)
REMARK    1  A    between atoms: C_1  and  O_2
REMARK    2  A    between atoms: O_2  and  C_3
REMARK    3  A    between atoms: C_6  and  O_7
REMARK    4  A    between atoms: O_7  and  C_8
REMARK    5  A    between atoms: C_9  and  C_10
REMARK    6  A    between atoms: C_10  and  O_11
REMARK    7  A    between atoms: O_11  and  C_12
REMARK    8  A    between atoms: C_17  and  C_18
REMARK    9  A    between atoms: N_20  and  C_21
REMARK                            x       y       z     vdW  Elec       q    Type
REMARK                         _______ _______ _______ _____ _____    ______ ____
ROOT
ATOM      1  C   UNL     1       2.485   4.893  20.114  0.00  0.00    +0.000 A 
ATOM      2  C   UNL     1       2.031   4.357  21.333  0.00  0.00    +0.000 A 
ATOM      3  C   UNL     1       2.379   3.070  21.751  0.00  0.00    +0.000 A 
ATOM      4  C   UNL     1       3.196   2.289  20.956  0.00  0.00    +0.000 A 
ATOM      5  C   UNL     1       3.665   2.802  19.750  0.00  0.00    +0.000 A 
ATOM      6  C   UNL     1       3.327   4.104  19.306  0.00  0.00    +0.000 A 
ENDROOT
BRANCH   6   7
ATOM      7  C   UNL     1       3.900   4.476  17.966  0.00  0.00    +0.000 C 
ATOM      8  O   UNL     1       3.249   5.266  17.279  0.00  0.00    +0.000 OA
ATOM      9  N   UNL     1       5.118   3.942  17.584  0.00  0.00    +0.000 N 
ATOM     10  H   UNL     1       5.537   3.275  18.225  0.00  0.00    +0.000 HD
BRANCH   9  11
ATOM     11  C   UNL     1       5.839   4.274  16.403  0.00  0.00    +0.000 A 
ATOM     12  C   UNL     1       5.602   3.715  15.147  0.00  0.00    +0.000 A 
ATOM     13  C   UNL     1       6.336   4.132  14.034  0.00  0.00    +0.000 A 
ATOM     14  C   UNL     1       7.301   5.101  14.208  0.00  0.00    +0.000 A 
ATOM     15  N   UNL     1       7.588   5.666  15.406  0.00  0.00    +0.000 NA
ATOM     16  C   UNL     1       6.851   5.231  16.466  0.00  0.00    +0.000 A 
ENDBRANCH   9  11
ENDBRANCH   6   7
BRANCH   1  17
ATOM     17  O   UNL     1       2.170   6.168  19.707  0.00  0.00    +0.000 OA
BRANCH  17  18
ATOM     18  C   UNL     1       1.643   7.076  20.694  0.00  0.00    +0.000 C 
BRANCH  18  23
ATOM     19  C   UNL     1       1.581  10.283  18.621  0.00  0.00    +0.000 A 
ATOM     20  C   UNL     1       0.557  11.001  19.230  0.00  0.00    +0.000 A 
ATOM     21  C   UNL     1      -0.121  10.477  20.332  0.00  0.00    +0.000 A 
ATOM     22  C   UNL     1       0.222   9.224  20.856  0.00  0.00    +0.000 A 
ATOM     23  C   UNL     1       1.214   8.459  20.220  0.00  0.00    +0.000 A 
ATOM     24  C   UNL     1       1.896   9.013  19.107  0.00  0.00    +0.000 A 
BRANCH  19  26
ATOM     25  C   UNL     1       2.664  12.249  17.818  0.00  0.00    +0.000 C 
ATOM     26  O   UNL     1       2.185  10.933  17.583  0.00  0.00    +0.000 OA
ENDBRANCH  19  26
BRANCH  22  27
ATOM     27  O   UNL     1      -0.378   8.682  21.960  0.00  0.00    +0.000 OA
ATOM     28  C   UNL     1      -0.374   9.489  23.135  0.00  0.00    +0.000 C 
ENDBRANCH  22  27
ENDBRANCH  18  23
ENDBRANCH  17  18
ENDBRANCH   1  17
TORSDOF 7
ENDMDL
