MODEL 1
REMARK VINA RESULT:      -7.2      0.000      0.000
REMARK  Name = 
REMARK  7 active torsions:
REMARK  status: ('A' for Active; 'I' for Inactive)
REMARK    1  A    between atoms: C_1  and  C_2
REMARK    2  A    between atoms: C_2  and  C_3
REMARK    3  A    between atoms: C_2  and  C_4
REMARK    4  A    between atoms: C_2  and  C_6
REMARK    5  A    between atoms: C_4  and  O_5
REMARK    6  A    between atoms: C_6  and  O_7
REMARK    7  A    between atoms: O_7  and  C_8
REMARK                            x       y       z     vdW  Elec       q    Type
REMARK                         _______ _______ _______ _____ _____    ______ ____
ROOT
ATOM      1  C   UNL     1       5.479   4.168  18.381  0.00  0.00    +0.000 A 
ATOM      2  N   UNL     1       6.311   4.691  19.300  0.00  0.00    +0.000 NA
ATOM      3  C   UNL     1       7.356   5.389  18.826  0.00  0.00    +0.000 A 
ATOM      4  N   UNL     1       8.215   5.947  19.750  0.00  0.00    +0.000 N 
ATOM      5  N   UNL     1       7.659   5.563  17.532  0.00  0.00    +0.000 NA
ATOM      6  C   UNL     1       6.797   5.012  16.672  0.00  0.00    +0.000 A 
ATOM      7  C   UNL     1       5.677   4.312  17.042  0.00  0.00    +0.000 A 
ATOM      8  C   UNL     1       4.861   3.894  15.875  0.00  0.00    +0.000 C 
ATOM      9  C   UNL     1       5.878   4.050  14.734  0.00  0.00    +0.000 C 
ATOM     10  C   UNL     1       6.891   5.120  15.177  0.00  0.00    +0.000 C 
ATOM     11  H   UNL     1       8.162   5.437  20.620  0.00  0.00    +0.000 HD
ATOM     12  H   UNL     1       9.128   6.063  19.332  0.00  0.00    +0.000 HD
ENDROOT
BRANCH   1  13
ATOM     13  O   UNL     1       4.374   3.447  18.769  0.00  0.00    +0.000 OA
BRANCH  13  14
ATOM     14  C   UNL     1       3.407   4.189  19.513  0.00  0.00    +0.000 C 
BRANCH  14  16
ATOM     15  C   UNL     1       1.546   4.310  17.808  0.00  0.00    +0.000 C 
ATOM     16  C   UNL     1       1.996   3.675  19.139  0.00  0.00    +0.000 C 
ATOM     17  C   UNL     1       0.990   4.080  20.236  0.00  0.00    +0.000 C 
BRANCH  16  18
ATOM     18  C   UNL     1       2.048   2.141  18.994  0.00  0.00    +0.000 C 
BRANCH  18  19
ATOM     19  O   UNL     1       2.406   1.737  17.677  0.00  0.00    +0.000 OA
ATOM     20  H   UNL     1       2.402   0.766  17.650  0.00  0.00    +0.000 HD
ENDBRANCH  18  19
ENDBRANCH  16  18
ENDBRANCH  14  16
ENDBRANCH  13  14
ENDBRANCH   1  13
TORSDOF 5
ENDMDL
MODEL 2
REMARK VINA RESULT:      -7.0      1.219      1.453
REMARK  Name = 
REMARK  7 active torsions:
REMARK  status: ('A' for Active; 'I' for Inactive)
REMARK    1  A    between atoms: C_1  and  C_2
REMARK    2  A    between atoms: C_2  and  C_3
REMARK    3  A    between atoms: C_2  and  C_4
REMARK    4  A    between atoms: C_2  and  C_6
REMARK    5  A    between atoms: C_4  and  O_5
REMARK    6  A    between atoms: C_6  and  O_7
REMARK    7  A    between atoms: O_7  and  C_8
REMARK                            x       y       z     vdW  Elec       q    Type
REMARK                         _______ _______ _______ _____ _____    ______ ____
ROOT
ATOM      1  C   UNL     1       5.203   5.048  18.526  0.00  0.00    +0.000 A 
ATOM      2  N   UNL     1       6.106   5.240  19.505  0.00  0.00    +0.000 NA
ATOM      3  C   UNL     1       7.396   5.253  19.129  0.00  0.00    +0.000 A 
ATOM      4  N   UNL     1       8.339   5.463  20.115  0.00  0.00    +0.000 N 
ATOM      5  N   UNL     1       7.852   5.045  17.887  0.00  0.00    +0.000 NA
ATOM      6  C   UNL     1       6.904   4.855  16.963  0.00  0.00    +0.000 A 
ATOM      7  C   UNL     1       5.557   4.860  17.225  0.00  0.00    +0.000 A 
ATOM      8  C   UNL     1       4.742   4.710  15.994  0.00  0.00    +0.000 C 
ATOM      9  C   UNL     1       5.790   4.164  15.012  0.00  0.00    +0.000 C 
ATOM     10  C   UNL     1       7.163   4.660  15.497  0.00  0.00    +0.000 C 
ATOM     11  H   UNL     1       7.963   5.191  21.012  0.00  0.00    +0.000 HD
ATOM     12  H   UNL     1       9.216   5.049  19.832  0.00  0.00    +0.000 HD
ENDROOT
BRANCH   1  13
ATOM     13  O   UNL     1       3.858   5.031  18.809  0.00  0.00    +0.000 OA
BRANCH  13  14
ATOM     14  C   UNL     1       3.408   3.864  19.499  0.00  0.00    +0.000 C 
BRANCH  14  16
ATOM     15  C   UNL     1       2.820   2.108  17.780  0.00  0.00    +0.000 C 
ATOM     16  C   UNL     1       2.258   3.221  18.686  0.00  0.00    +0.000 C 
ATOM     17  C   UNL     1       1.597   4.290  17.791  0.00  0.00    +0.000 C 
BRANCH  16  18
ATOM     18  C   UNL     1       1.228   2.627  19.667  0.00  0.00    +0.000 C 
BRANCH  18  19
ATOM     19  O   UNL     1       0.525   3.635  20.385  0.00  0.00    +0.000 OA
ATOM     20  H   UNL     1       0.581   4.460  19.875  0.00  0.00    +0.000 HD
ENDBRANCH  18  19
ENDBRANCH  16  18
ENDBRANCH  14  16
ENDBRANCH  13  14
ENDBRANCH   1  13
TORSDOF 5
ENDMDL
MODEL 3
REMARK VINA RESULT:      -7.0      0.855      1.028
REMARK  Name = 
REMARK  7 active torsions:
REMARK  status: ('A' for Active; 'I' for Inactive)
REMARK    1  A    between atoms: C_1  and  C_2
REMARK    2  A    between atoms: C_2  and  C_3
REMARK    3  A    between atoms: C_2  and  C_4
REMARK    4  A    between atoms: C_2  and  C_6
REMARK    5  A    between atoms: C_4  and  O_5
REMARK    6  A    between atoms: C_6  and  O_7
REMARK    7  A    between atoms: O_7  and  C_8
REMARK                            x       y       z     vdW  Elec       q    Type
REMARK                         _______ _______ _______ _____ _____    ______ ____
ROOT
ATOM      1  C   UNL     1       5.214   4.268  18.259  0.00  0.00    +0.000 A 
ATOM      2  N   UNL     1       6.008   4.649  19.275  0.00  0.00    +0.000 NA
ATOM      3  C   UNL     1       7.216   5.131  18.937  0.00  0.00    +0.000 A 
ATOM      4  N   UNL     1       8.042   5.542  19.964  0.00  0.00    +0.000 N 
ATOM      5  N   UNL     1       7.705   5.217  17.692  0.00  0.00    +0.000 NA
ATOM      6  C   UNL     1       6.869   4.815  16.730  0.00  0.00    +0.000 A 
ATOM      7  C   UNL     1       5.601   4.343  16.955  0.00  0.00    +0.000 A 
ATOM      8  C   UNL     1       4.873   4.056  15.694  0.00  0.00    +0.000 C 
ATOM      9  C   UNL     1       6.035   3.996  14.691  0.00  0.00    +0.000 C 
ATOM     10  C   UNL     1       7.166   4.870  15.259  0.00  0.00    +0.000 C 
ATOM     11  H   UNL     1       7.788   5.070  20.819  0.00  0.00    +0.000 HD
ATOM     12  H   UNL     1       9.005   5.477  19.664  0.00  0.00    +0.000 HD
ENDROOT
BRANCH   1  13
ATOM     13  O   UNL     1       3.956   3.772  18.503  0.00  0.00    +0.000 OA
BRANCH  13  14
ATOM     14  C   UNL     1       3.776   3.213  19.805  0.00  0.00    +0.000 C 
BRANCH  14  16
ATOM     15  C   UNL     1       2.016   4.925  20.401  0.00  0.00    +0.000 C 
ATOM     16  C   UNL     1       2.303   3.420  20.233  0.00  0.00    +0.000 C 
ATOM     17  C   UNL     1       2.054   2.722  21.586  0.00  0.00    +0.000 C 
BRANCH  16  18
ATOM     18  C   UNL     1       1.383   2.830  19.144  0.00  0.00    +0.000 C 
BRANCH  18  19
ATOM     19  O   UNL     1       1.921   1.645  18.569  0.00  0.00    +0.000 OA
ATOM     20  H   UNL     1       1.182   1.117  18.224  0.00  0.00    +0.000 HD
ENDBRANCH  18  19
ENDBRANCH  16  18
ENDBRANCH  14  16
ENDBRANCH  13  14
ENDBRANCH   1  13
TORSDOF 5
ENDMDL
MODEL 4
REMARK VINA RESULT:      -7.0      1.000      1.797
REMARK  Name = 
REMARK  7 active torsions:
REMARK  status: ('A' for Active; 'I' for Inactive)
REMARK    1  A    between atoms: C_1  and  C_2
REMARK    2  A    between atoms: C_2  and  C_3
REMARK    3  A    between atoms: C_2  and  C_4
REMARK    4  A    between atoms: C_2  and  C_6
REMARK    5  A    between atoms: C_4  and  O_5
REMARK    6  A    between atoms: C_6  and  O_7
REMARK    7  A    between atoms: O_7  and  C_8
REMARK                            x       y       z     vdW  Elec       q    Type
REMARK                         _______ _______ _______ _____ _____    ______ ____
ROOT
ATOM      1  C   UNL     1       5.242   4.136  18.028  0.00  0.00    +0.000 A 
ATOM      2  N   UNL     1       5.978   4.541  19.078  0.00  0.00    +0.000 NA
ATOM      3  C   UNL     1       7.154   5.124  18.790  0.00  0.00    +0.000 A 
ATOM      4  N   UNL     1       7.920   5.561  19.852  0.00  0.00    +0.000 N 
ATOM      5  N   UNL     1       7.667   5.287  17.563  0.00  0.00    +0.000 NA
ATOM      6  C   UNL     1       6.888   4.856  16.565  0.00  0.00    +0.000 A 
ATOM      7  C   UNL     1       5.654   4.283  16.739  0.00  0.00    +0.000 A 
ATOM      8  C   UNL     1       4.983   3.984  15.450  0.00  0.00    +0.000 C 
ATOM      9  C   UNL     1       6.172   4.045  14.478  0.00  0.00    +0.000 C 
ATOM     10  C   UNL     1       7.218   4.982  15.105  0.00  0.00    +0.000 C 
ATOM     11  H   UNL     1       7.680   5.043  20.684  0.00  0.00    +0.000 HD
ATOM     12  H   UNL     1       8.892   5.579  19.577  0.00  0.00    +0.000 HD
ENDROOT
BRANCH   1  13
ATOM     13  O   UNL     1       4.018   3.539  18.222  0.00  0.00    +0.000 OA
BRANCH  13  14
ATOM     14  C   UNL     1       3.531   3.595  19.563  0.00  0.00    +0.000 C 
BRANCH  14  16
ATOM     15  C   UNL     1       1.209   3.356  20.530  0.00  0.00    +0.000 C 
ATOM     16  C   UNL     1       2.086   4.149  19.541  0.00  0.00    +0.000 C 
ATOM     17  C   UNL     1       1.491   3.989  18.127  0.00  0.00    +0.000 C 
BRANCH  16  18
ATOM     18  C   UNL     1       2.118   5.636  19.948  0.00  0.00    +0.000 C 
BRANCH  18  19
ATOM     19  O   UNL     1       3.446   6.143  20.026  0.00  0.00    +0.000 OA
ATOM     20  H   UNL     1       3.779   6.251  19.120  0.00  0.00    +0.000 HD
ENDBRANCH  18  19
ENDBRANCH  16  18
ENDBRANCH  14  16
ENDBRANCH  13  14
ENDBRANCH   1  13
TORSDOF 5
ENDMDL
MODEL 5
REMARK VINA RESULT:      -6.9      1.329      1.492
REMARK  Name = 
REMARK  7 active torsions:
REMARK  status: ('A' for Active; 'I' for Inactive)
REMARK    1  A    between atoms: C_1  and  C_2
REMARK    2  A    between atoms: C_2  and  C_3
REMARK    3  A    between atoms: C_2  and  C_4
REMARK    4  A    between atoms: C_2  and  C_6
REMARK    5  A    between atoms: C_4  and  O_5
REMARK    6  A    between atoms: C_6  and  O_7
REMARK    7  A    between atoms: O_7  and  C_8
REMARK                            x       y       z     vdW  Elec       q    Type
REMARK                         _______ _______ _______ _____ _____    ______ ____
ROOT
ATOM      1  C   UNL     1       5.286   4.263  18.271  0.00  0.00    +0.000 A 
ATOM      2  N   UNL     1       6.099   4.660  19.267  0.00  0.00    +0.000 NA
ATOM      3  C   UNL     1       7.282   5.178  18.897  0.00  0.00    +0.000 A 
ATOM      4  N   UNL     1       8.126   5.606  19.902  0.00  0.00    +0.000 N 
ATOM      5  N   UNL     1       7.732   5.285  17.639  0.00  0.00    +0.000 NA
ATOM      6  C   UNL     1       6.880   4.866  16.699  0.00  0.00    +0.000 A 
ATOM      7  C   UNL     1       5.632   4.356  16.958  0.00  0.00    +0.000 A 
ATOM      8  C   UNL     1       4.876   4.056  15.717  0.00  0.00    +0.000 C 
ATOM      9  C   UNL     1       6.010   4.035  14.679  0.00  0.00    +0.000 C 
ATOM     10  C   UNL     1       7.132   4.937  15.220  0.00  0.00    +0.000 C 
ATOM     11  H   UNL     1       7.910   5.122  20.761  0.00  0.00    +0.000 HD
ATOM     12  H   UNL     1       9.081   5.570  19.574  0.00  0.00    +0.000 HD
ENDROOT
BRANCH   1  13
ATOM     13  O   UNL     1       4.050   3.730  18.548  0.00  0.00    +0.000 OA
BRANCH  13  14
ATOM     14  C   UNL     1       3.409   4.277  19.702  0.00  0.00    +0.000 C 
BRANCH  14  16
ATOM     15  C   UNL     1       2.089   2.217  19.073  0.00  0.00    +0.000 C 
ATOM     16  C   UNL     1       2.263   3.328  20.127  0.00  0.00    +0.000 C 
ATOM     17  C   UNL     1       0.943   4.120  20.222  0.00  0.00    +0.000 C 
BRANCH  16  18
ATOM     18  C   UNL     1       2.616   2.702  21.492  0.00  0.00    +0.000 C 
BRANCH  18  19
ATOM     19  O   UNL     1       1.461   2.451  22.284  0.00  0.00    +0.000 OA
ATOM     20  H   UNL     1       1.315   1.491  22.306  0.00  0.00    +0.000 HD
ENDBRANCH  18  19
ENDBRANCH  16  18
ENDBRANCH  14  16
ENDBRANCH  13  14
ENDBRANCH   1  13
TORSDOF 5
ENDMDL
MODEL 6
REMARK VINA RESULT:      -6.9      0.873      1.138
REMARK  Name = 
REMARK  7 active torsions:
REMARK  status: ('A' for Active; 'I' for Inactive)
REMARK    1  A    between atoms: C_1  and  C_2
REMARK    2  A    between atoms: C_2  and  C_3
REMARK    3  A    between atoms: C_2  and  C_4
REMARK    4  A    between atoms: C_2  and  C_6
REMARK    5  A    between atoms: C_4  and  O_5
REMARK    6  A    between atoms: C_6  and  O_7
REMARK    7  A    between atoms: O_7  and  C_8
REMARK                            x       y       z     vdW  Elec       q    Type
REMARK                         _______ _______ _______ _____ _____    ______ ____
ROOT
ATOM      1  C   UNL     1       5.308   4.238  18.206  0.00  0.00    +0.000 A 
ATOM      2  N   UNL     1       6.111   4.641  19.207  0.00  0.00    +0.000 NA
ATOM      3  C   UNL     1       7.291   5.172  18.845  0.00  0.00    +0.000 A 
ATOM      4  N   UNL     1       8.125   5.606  19.856  0.00  0.00    +0.000 N 
ATOM      5  N   UNL     1       7.747   5.286  17.590  0.00  0.00    +0.000 NA
ATOM      6  C   UNL     1       6.904   4.861  16.644  0.00  0.00    +0.000 A 
ATOM      7  C   UNL     1       5.660   4.339  16.894  0.00  0.00    +0.000 A 
ATOM      8  C   UNL     1       4.914   4.034  15.648  0.00  0.00    +0.000 C 
ATOM      9  C   UNL     1       6.054   4.027  14.618  0.00  0.00    +0.000 C 
ATOM     10  C   UNL     1       7.164   4.939  15.167  0.00  0.00    +0.000 C 
ATOM     11  H   UNL     1       7.909   5.117  20.713  0.00  0.00    +0.000 HD
ATOM     12  H   UNL     1       9.082   5.580  19.533  0.00  0.00    +0.000 HD
ENDROOT
BRANCH   1  13
ATOM     13  O   UNL     1       4.075   3.693  18.475  0.00  0.00    +0.000 OA
BRANCH  13  14
ATOM     14  C   UNL     1       3.514   4.075  19.732  0.00  0.00    +0.000 C 
BRANCH  14  16
ATOM     15  C   UNL     1       2.328   6.305  19.785  0.00  0.00    +0.000 C 
ATOM     16  C   UNL     1       2.173   4.803  19.473  0.00  0.00    +0.000 C 
ATOM     17  C   UNL     1       1.082   4.223  20.397  0.00  0.00    +0.000 C 
BRANCH  16  18
ATOM     18  C   UNL     1       1.783   4.614  17.993  0.00  0.00    +0.000 C 
BRANCH  18  19
ATOM     19  O   UNL     1       1.242   3.322  17.741  0.00  0.00    +0.000 OA
ATOM     20  H   UNL     1       0.274   3.396  17.749  0.00  0.00    +0.000 HD
ENDBRANCH  18  19
ENDBRANCH  16  18
ENDBRANCH  14  16
ENDBRANCH  13  14
ENDBRANCH   1  13
TORSDOF 5
ENDMDL
MODEL 7
REMARK VINA RESULT:      -6.9      0.923      1.456
REMARK  Name = 
REMARK  7 active torsions:
REMARK  status: ('A' for Active; 'I' for Inactive)
REMARK    1  A    between atoms: C_1  and  C_2
REMARK    2  A    between atoms: C_2  and  C_3
REMARK    3  A    between atoms: C_2  and  C_4
REMARK    4  A    between atoms: C_2  and  C_6
REMARK    5  A    between atoms: C_4  and  O_5
REMARK    6  A    between atoms: C_6  and  O_7
REMARK    7  A    between atoms: O_7  and  C_8
REMARK                            x       y       z     vdW  Elec       q    Type
REMARK                         _______ _______ _______ _____ _____    ______ ____
ROOT
ATOM      1  C   UNL     1       5.224   4.826  18.638  0.00  0.00    +0.000 A 
ATOM      2  N   UNL     1       6.143   5.105  19.580  0.00  0.00    +0.000 NA
ATOM      3  C   UNL     1       7.411   5.233  19.154  0.00  0.00    +0.000 A 
ATOM      4  N   UNL     1       8.369   5.534  20.101  0.00  0.00    +0.000 N 
ATOM      5  N   UNL     1       7.835   5.060  17.895  0.00  0.00    +0.000 NA
ATOM      6  C   UNL     1       6.874   4.777  17.010  0.00  0.00    +0.000 A 
ATOM      7  C   UNL     1       5.544   4.662  17.325  0.00  0.00    +0.000 A 
ATOM      8  C   UNL     1       4.698   4.430  16.128  0.00  0.00    +0.000 C 
ATOM      9  C   UNL     1       5.752   3.975  15.106  0.00  0.00    +0.000 C 
ATOM     10  C   UNL     1       7.092   4.597  15.535  0.00  0.00    +0.000 C 
ATOM     11  H   UNL     1       8.055   5.235  21.013  0.00  0.00    +0.000 HD
ATOM     12  H   UNL     1       9.268   5.200  19.785  0.00  0.00    +0.000 HD
ENDROOT
BRANCH   1  13
ATOM     13  O   UNL     1       3.899   4.688  18.974  0.00  0.00    +0.000 OA
BRANCH  13  14
ATOM     14  C   UNL     1       3.601   3.543  19.775  0.00  0.00    +0.000 C 
BRANCH  14  16
ATOM     15  C   UNL     1       1.438   3.217  21.039  0.00  0.00    +0.000 C 
ATOM     16  C   UNL     1       2.092   3.226  19.644  0.00  0.00    +0.000 C 
ATOM     17  C   UNL     1       1.908   1.832  19.010  0.00  0.00    +0.000 C 
BRANCH  16  18
ATOM     18  C   UNL     1       1.433   4.309  18.765  0.00  0.00    +0.000 C 
BRANCH  18  19
ATOM     19  O   UNL     1       1.433   3.956  17.386  0.00  0.00    +0.000 OA
ATOM     20  H   UNL     1       0.734   4.467  16.946  0.00  0.00    +0.000 HD
ENDBRANCH  18  19
ENDBRANCH  16  18
ENDBRANCH  14  16
ENDBRANCH  13  14
ENDBRANCH   1  13
TORSDOF 5
ENDMDL
MODEL 8
REMARK VINA RESULT:      -6.7      1.193      1.414
REMARK  Name = 
REMARK  7 active torsions:
REMARK  status: ('A' for Active; 'I' for Inactive)
REMARK    1  A    between atoms: C_1  and  C_2
REMARK    2  A    between atoms: C_2  and  C_3
REMARK    3  A    between atoms: C_2  and  C_4
REMARK    4  A    between atoms: C_2  and  C_6
REMARK    5  A    between atoms: C_4  and  O_5
REMARK    6  A    between atoms: C_6  and  O_7
REMARK    7  A    between atoms: O_7  and  C_8
REMARK                            x       y       z     vdW  Elec       q    Type
REMARK                         _______ _______ _______ _____ _____    ______ ____
ROOT
ATOM      1  C   UNL     1       5.094   4.407  17.312  0.00  0.00    +0.000 A 
ATOM      2  N   UNL     1       5.848   4.662  18.396  0.00  0.00    +0.000 NA
ATOM      3  C   UNL     1       7.136   4.971  18.165  0.00  0.00    +0.000 A 
ATOM      4  N   UNL     1       7.925   5.251  19.262  0.00  0.00    +0.000 N 
ATOM      5  N   UNL     1       7.731   4.998  16.965  0.00  0.00    +0.000 NA
ATOM      6  C   UNL     1       6.927   4.729  15.931  0.00  0.00    +0.000 A 
ATOM      7  C   UNL     1       5.591   4.440  16.045  0.00  0.00    +0.000 A 
ATOM      8  C   UNL     1       4.935   4.271  14.725  0.00  0.00    +0.000 C 
ATOM      9  C   UNL     1       6.154   4.056  13.816  0.00  0.00    +0.000 C 
ATOM     10  C   UNL     1       7.347   4.756  14.489  0.00  0.00    +0.000 C 
ATOM     11  H   UNL     1       7.538   4.811  20.084  0.00  0.00    +0.000 HD
ATOM     12  H   UNL     1       8.890   5.053  19.038  0.00  0.00    +0.000 HD
ENDROOT
BRANCH   1  13
ATOM     13  O   UNL     1       3.762   4.093  17.446  0.00  0.00    +0.000 OA
BRANCH  13  14
ATOM     14  C   UNL     1       3.195   4.421  18.716  0.00  0.00    +0.000 C 
BRANCH  14  16
ATOM     15  C   UNL     1       2.310   2.106  18.226  0.00  0.00    +0.000 C 
ATOM     16  C   UNL     1       2.596   3.136  19.336  0.00  0.00    +0.000 C 
ATOM     17  C   UNL     1       1.267   3.473  20.043  0.00  0.00    +0.000 C 
BRANCH  16  18
ATOM     18  C   UNL     1       3.610   2.552  20.342  0.00  0.00    +0.000 C 
BRANCH  18  19
ATOM     19  O   UNL     1       4.819   2.144  19.711  0.00  0.00    +0.000 OA
ATOM     20  H   UNL     1       4.630   1.993  18.770  0.00  0.00    +0.000 HD
ENDBRANCH  18  19
ENDBRANCH  16  18
ENDBRANCH  14  16
ENDBRANCH  13  14
ENDBRANCH   1  13
TORSDOF 5
ENDMDL
MODEL 9
REMARK VINA RESULT:      -6.7      2.498      5.565
REMARK  Name = 
REMARK  7 active torsions:
REMARK  status: ('A' for Active; 'I' for Inactive)
REMARK    1  A    between atoms: C_1  and  C_2
REMARK    2  A    between atoms: C_2  and  C_3
REMARK    3  A    between atoms: C_2  and  C_4
REMARK    4  A    between atoms: C_2  and  C_6
REMARK    5  A    between atoms: C_4  and  O_5
REMARK    6  A    between atoms: C_6  and  O_7
REMARK    7  A    between atoms: O_7  and  C_8
REMARK                            x       y       z     vdW  Elec       q    Type
REMARK                         _______ _______ _______ _____ _____    ______ ____
ROOT
ATOM      1  C   UNL     1       4.364   4.193  19.309  0.00  0.00    +0.000 A 
ATOM      2  N   UNL     1       4.727   2.960  18.913  0.00  0.00    +0.000 NA
ATOM      3  C   UNL     1       3.753   2.034  18.886  0.00  0.00    +0.000 A 
ATOM      4  N   UNL     1       4.100   0.765  18.468  0.00  0.00    +0.000 N 
ATOM      5  N   UNL     1       2.481   2.224  19.262  0.00  0.00    +0.000 NA
ATOM      6  C   UNL     1       2.189   3.469  19.652  0.00  0.00    +0.000 A 
ATOM      7  C   UNL     1       3.091   4.501  19.682  0.00  0.00    +0.000 A 
ATOM      8  C   UNL     1       2.464   5.788  20.073  0.00  0.00    +0.000 C 
ATOM      9  C   UNL     1       1.154   5.296  20.707  0.00  0.00    +0.000 C 
ATOM     10  C   UNL     1       0.823   3.940  20.062  0.00  0.00    +0.000 C 
ATOM     11  H   UNL     1       5.087   0.613  18.615  0.00  0.00    +0.000 HD
ATOM     12  H   UNL     1       3.460   0.095  18.871  0.00  0.00    +0.000 HD
ENDROOT
BRANCH   1  13
ATOM     13  O   UNL     1       5.286   5.211  19.359  0.00  0.00    +0.000 OA
BRANCH  13  14
ATOM     14  C   UNL     1       5.564   5.828  18.100  0.00  0.00    +0.000 C 
BRANCH  14  16
ATOM     15  C   UNL     1       7.799   5.720  19.274  0.00  0.00    +0.000 C 
ATOM     16  C   UNL     1       7.098   5.900  17.913  0.00  0.00    +0.000 C 
ATOM     17  C   UNL     1       7.486   7.280  17.344  0.00  0.00    +0.000 C 
BRANCH  16  18
ATOM     18  C   UNL     1       7.533   4.777  16.949  0.00  0.00    +0.000 C 
BRANCH  18  19
ATOM     19  O   UNL     1       6.491   3.836  16.714  0.00  0.00    +0.000 OA
ATOM     20  H   UNL     1       6.725   3.320  15.925  0.00  0.00    +0.000 HD
ENDBRANCH  18  19
ENDBRANCH  16  18
ENDBRANCH  14  16
ENDBRANCH  13  14
ENDBRANCH   1  13
TORSDOF 5
ENDMDL
