MODEL 1
REMARK VINA RESULT:      -7.5      0.000      0.000
REMARK  Name = 
REMARK  3 active torsions:
REMARK  status: ('A' for Active; 'I' for Inactive)
REMARK    1  A    between atoms: C_1  and  C_2
REMARK    2  A    between atoms: C_2  and  C_3
REMARK    3  A    between atoms: C_3  and  C_4
REMARK                            x       y       z     vdW  Elec       q    Type
REMARK                         _______ _______ _______ _____ _____    ______ ____
ROOT
ATOM      1  C   UNL     1       1.826   5.090  19.951  0.00  0.00    +0.000 C 
ATOM      2  O   UNL     1       1.693   6.269  20.286  0.00  0.00    +0.000 OA
ATOM      3  N   UNL     1       2.926   4.670  19.199  0.00  0.00    +0.000 N 
ATOM      4  C   UNL     1       3.606   5.835  18.706  0.00  0.00    +0.000 C 
ATOM      5  C   UNL     1       4.846   5.508  17.930  0.00  0.00    +0.000 C 
ATOM      6  C   UNL     1       5.703   4.234  17.731  0.00  0.00    +0.000 C 
ATOM      7  C   UNL     1       4.784   3.029  18.095  0.00  0.00    +0.000 C 
ATOM      8  C   UNL     1       3.268   3.342  18.577  0.00  0.00    +0.000 C 
ATOM      9  N   UNL     1       6.956   4.367  18.611  0.00  0.00    +0.000 NA
ATOM     10  C   UNL     1       7.483   5.779  18.549  0.00  0.00    +0.000 C 
ATOM     11  C   UNL     1       7.658   6.393  17.116  0.00  0.00    +0.000 C 
ATOM     12  C   UNL     1       7.135   5.468  16.082  0.00  0.00    +0.000 A 
ATOM     13  N   UNL     1       7.243   5.559  14.733  0.00  0.00    +0.000 N 
ATOM     14  C   UNL     1       6.540   4.499  14.217  0.00  0.00    +0.000 A 
ATOM     15  N   UNL     1       5.945   3.785  15.157  0.00  0.00    +0.000 NA
ATOM     16  C   UNL     1       6.282   4.403  16.328  0.00  0.00    +0.000 A 
ATOM     17  H   UNL     1       7.671   3.748  18.221  0.00  0.00    +0.000 HD
ATOM     18  H   UNL     1       7.693   6.300  14.205  0.00  0.00    +0.000 HD
ENDROOT
BRANCH   1  19
ATOM     19  C   UNL     1       0.692   4.168  20.317  0.00  0.00    +0.000 C 
BRANCH  19  21
ATOM     20  C   UNL     1       2.130   2.982  22.058  0.00  0.00    +0.000 C 
ATOM     21  C   UNL     1       1.109   2.849  20.936  0.00  0.00    +0.000 C 
ENDBRANCH  19  21
ENDBRANCH   1  19
TORSDOF 2
ENDMDL
MODEL 2
REMARK VINA RESULT:      -7.4      2.468      6.306
REMARK  Name = 
REMARK  3 active torsions:
REMARK  status: ('A' for Active; 'I' for Inactive)
REMARK    1  A    between atoms: C_1  and  C_2
REMARK    2  A    between atoms: C_2  and  C_3
REMARK    3  A    between atoms: C_3  and  C_4
REMARK                            x       y       z     vdW  Elec       q    Type
REMARK                         _______ _______ _______ _____ _____    ______ ____
ROOT
ATOM      1  C   UNL     1       6.317   6.793  17.325  0.00  0.00    +0.000 C 
ATOM      2  O   UNL     1       5.726   7.364  16.406  0.00  0.00    +0.000 OA
ATOM      3  N   UNL     1       5.722   5.744  18.029  0.00  0.00    +0.000 N 
ATOM      4  C   UNL     1       4.328   5.706  17.687  0.00  0.00    +0.000 C 
ATOM      5  C   UNL     1       3.592   4.575  18.340  0.00  0.00    +0.000 C 
ATOM      6  C   UNL     1       4.016   3.297  19.104  0.00  0.00    +0.000 C 
ATOM      7  C   UNL     1       5.469   3.550  19.607  0.00  0.00    +0.000 C 
ATOM      8  C   UNL     1       6.169   4.966  19.238  0.00  0.00    +0.000 C 
ATOM      9  N   UNL     1       3.872   2.105  18.146  0.00  0.00    +0.000 NA
ATOM     10  C   UNL     1       2.610   2.245  17.333  0.00  0.00    +0.000 C 
ATOM     11  C   UNL     1       1.300   2.562  18.134  0.00  0.00    +0.000 C 
ATOM     12  C   UNL     1       1.603   2.789  19.568  0.00  0.00    +0.000 A 
ATOM     13  N   UNL     1       0.739   2.931  20.604  0.00  0.00    +0.000 N 
ATOM     14  C   UNL     1       1.505   3.184  21.714  0.00  0.00    +0.000 A 
ATOM     15  N   UNL     1       2.793   3.272  21.427  0.00  0.00    +0.000 NA
ATOM     16  C   UNL     1       2.864   3.061  20.078  0.00  0.00    +0.000 A 
ATOM     17  H   UNL     1       3.785   1.261  18.717  0.00  0.00    +0.000 HD
ATOM     18  H   UNL     1      -0.275   2.923  20.558  0.00  0.00    +0.000 HD
ENDROOT
BRANCH   1  19
ATOM     19  C   UNL     1       7.664   7.359  17.695  0.00  0.00    +0.000 C 
BRANCH  19  21
ATOM     20  C   UNL     1       8.743   9.490  18.593  0.00  0.00    +0.000 C 
ATOM     21  C   UNL     1       7.779   8.867  17.591  0.00  0.00    +0.000 C 
ENDBRANCH  19  21
ENDBRANCH   1  19
TORSDOF 2
ENDMDL
MODEL 3
REMARK VINA RESULT:      -7.2      3.413      6.412
REMARK  Name = 
REMARK  3 active torsions:
REMARK  status: ('A' for Active; 'I' for Inactive)
REMARK    1  A    between atoms: C_1  and  C_2
REMARK    2  A    between atoms: C_2  and  C_3
REMARK    3  A    between atoms: C_3  and  C_4
REMARK                            x       y       z     vdW  Elec       q    Type
REMARK                         _______ _______ _______ _____ _____    ______ ____
ROOT
ATOM      1  C   UNL     1       8.478   9.432  18.256  0.00  0.00    +0.000 C 
ATOM      2  O   UNL     1       8.078  10.222  17.398  0.00  0.00    +0.000 OA
ATOM      3  N   UNL     1       8.093   8.089  18.242  0.00  0.00    +0.000 N 
ATOM      4  C   UNL     1       7.015   7.939  17.305  0.00  0.00    +0.000 C 
ATOM      5  C   UNL     1       6.555   6.520  17.158  0.00  0.00    +0.000 C 
ATOM      6  C   UNL     1       7.116   5.143  17.591  0.00  0.00    +0.000 C 
ATOM      7  C   UNL     1       8.113   5.424  18.756  0.00  0.00    +0.000 C 
ATOM      8  C   UNL     1       8.341   6.964  19.211  0.00  0.00    +0.000 C 
ATOM      9  N   UNL     1       7.749   4.482  16.357  0.00  0.00    +0.000 NA
ATOM     10  C   UNL     1       6.885   4.719  15.144  0.00  0.00    +0.000 C 
ATOM     11  C   UNL     1       5.357   4.401  15.308  0.00  0.00    +0.000 C 
ATOM     12  C   UNL     1       5.044   4.036  16.710  0.00  0.00    +0.000 A 
ATOM     13  N   UNL     1       3.886   3.547  17.219  0.00  0.00    +0.000 N 
ATOM     14  C   UNL     1       4.077   3.434  18.573  0.00  0.00    +0.000 A 
ATOM     15  N   UNL     1       5.262   3.880  18.954  0.00  0.00    +0.000 NA
ATOM     16  C   UNL     1       5.865   4.293  17.799  0.00  0.00    +0.000 A 
ATOM     17  H   UNL     1       7.778   3.475  16.530  0.00  0.00    +0.000 HD
ATOM     18  H   UNL     1       3.025   3.367  16.713  0.00  0.00    +0.000 HD
ENDROOT
BRANCH   1  19
ATOM     19  C   UNL     1       9.316  10.026  19.359  0.00  0.00    +0.000 C 
BRANCH  19  21
ATOM     20  C   UNL     1      11.058  11.752  20.063  0.00  0.00    +0.000 C 
ATOM     21  C   UNL     1      10.163  11.215  18.953  0.00  0.00    +0.000 C 
ENDBRANCH  19  21
ENDBRANCH   1  19
TORSDOF 2
ENDMDL
MODEL 4
REMARK VINA RESULT:      -7.0      2.573      6.189
REMARK  Name = 
REMARK  3 active torsions:
REMARK  status: ('A' for Active; 'I' for Inactive)
REMARK    1  A    between atoms: C_1  and  C_2
REMARK    2  A    between atoms: C_2  and  C_3
REMARK    3  A    between atoms: C_3  and  C_4
REMARK                            x       y       z     vdW  Elec       q    Type
REMARK                         _______ _______ _______ _____ _____    ______ ____
ROOT
ATOM      1  C   UNL     1       7.092   6.202  18.331  0.00  0.00    +0.000 C 
ATOM      2  O   UNL     1       7.929   5.664  19.059  0.00  0.00    +0.000 OA
ATOM      3  N   UNL     1       5.735   5.884  18.426  0.00  0.00    +0.000 N 
ATOM      4  C   UNL     1       5.604   4.711  19.242  0.00  0.00    +0.000 C 
ATOM      5  C   UNL     1       4.178   4.306  19.468  0.00  0.00    +0.000 C 
ATOM      6  C   UNL     1       2.805   4.981  19.232  0.00  0.00    +0.000 C 
ATOM      7  C   UNL     1       3.042   6.096  18.170  0.00  0.00    +0.000 C 
ATOM      8  C   UNL     1       4.546   6.302  17.602  0.00  0.00    +0.000 C 
ATOM      9  N   UNL     1       2.293   5.493  20.588  0.00  0.00    +0.000 NA
ATOM     10  C   UNL     1       2.582   4.478  21.666  0.00  0.00    +0.000 C 
ATOM     11  C   UNL     1       2.161   2.999  21.358  0.00  0.00    +0.000 C 
ATOM     12  C   UNL     1       1.658   2.875  19.969  0.00  0.00    +0.000 A 
ATOM     13  N   UNL     1       1.058   1.811  19.378  0.00  0.00    +0.000 N 
ATOM     14  C   UNL     1       0.838   2.169  18.071  0.00  0.00    +0.000 A 
ATOM     15  N   UNL     1       1.320   3.368  17.790  0.00  0.00    +0.000 NA
ATOM     16  C   UNL     1       1.867   3.807  18.963  0.00  0.00    +0.000 A 
ATOM     17  H   UNL     1       1.277   5.592  20.515  0.00  0.00    +0.000 HD
ATOM     18  H   UNL     1       0.872   0.905  19.796  0.00  0.00    +0.000 HD
ENDROOT
BRANCH   1  19
ATOM     19  C   UNL     1       7.636   7.137  17.281  0.00  0.00    +0.000 C 
BRANCH  19  21
ATOM     20  C   UNL     1       8.708   9.068  18.559  0.00  0.00    +0.000 C 
ATOM     21  C   UNL     1       7.582   8.609  17.640  0.00  0.00    +0.000 C 
ENDBRANCH  19  21
ENDBRANCH   1  19
TORSDOF 2
ENDMDL
MODEL 5
REMARK VINA RESULT:      -6.9      3.222      5.312
REMARK  Name = 
REMARK  3 active torsions:
REMARK  status: ('A' for Active; 'I' for Inactive)
REMARK    1  A    between atoms: C_1  and  C_2
REMARK    2  A    between atoms: C_2  and  C_3
REMARK    3  A    between atoms: C_3  and  C_4
REMARK                            x       y       z     vdW  Elec       q    Type
REMARK                         _______ _______ _______ _____ _____    ______ ____
ROOT
ATOM      1  C   UNL     1       1.696   9.563  18.568  0.00  0.00    +0.000 C 
ATOM      2  O   UNL     1       2.031   9.951  17.447  0.00  0.00    +0.000 OA
ATOM      3  N   UNL     1       1.919   8.245  18.976  0.00  0.00    +0.000 N 
ATOM      4  C   UNL     1       2.289   7.474  17.823  0.00  0.00    +0.000 C 
ATOM      5  C   UNL     1       2.614   6.047  18.149  0.00  0.00    +0.000 C 
ATOM      6  C   UNL     1       2.877   5.261  19.457  0.00  0.00    +0.000 C 
ATOM      7  C   UNL     1       2.240   6.099  20.606  0.00  0.00    +0.000 C 
ATOM      8  C   UNL     1       1.517   7.499  20.220  0.00  0.00    +0.000 C 
ATOM      9  N   UNL     1       4.395   5.055  19.586  0.00  0.00    +0.000 NA
ATOM     10  C   UNL     1       4.985   4.714  18.241  0.00  0.00    +0.000 C 
ATOM     11  C   UNL     1       4.267   3.576  17.436  0.00  0.00    +0.000 C 
ATOM     12  C   UNL     1       3.035   3.136  18.134  0.00  0.00    +0.000 A 
ATOM     13  N   UNL     1       2.231   2.081  17.849  0.00  0.00    +0.000 N 
ATOM     14  C   UNL     1       1.191   2.136  18.742  0.00  0.00    +0.000 A 
ATOM     15  N   UNL     1       1.259   3.196  19.529  0.00  0.00    +0.000 NA
ATOM     16  C   UNL     1       2.392   3.850  19.134  0.00  0.00    +0.000 A 
ATOM     17  H   UNL     1       4.544   4.256  20.206  0.00  0.00    +0.000 HD
ATOM     18  H   UNL     1       2.338   1.422  17.085  0.00  0.00    +0.000 HD
ENDROOT
BRANCH   1  19
ATOM     19  C   UNL     1       0.954  10.562  19.418  0.00  0.00    +0.000 C 
BRANCH  19  21
ATOM     20  C   UNL     1      -1.288  10.355  18.218  0.00  0.00    +0.000 C 
ATOM     21  C   UNL     1      -0.537  10.319  19.543  0.00  0.00    +0.000 C 
ENDBRANCH  19  21
ENDBRANCH   1  19
TORSDOF 2
ENDMDL
MODEL 6
REMARK VINA RESULT:      -6.9      2.201      6.307
REMARK  Name = 
REMARK  3 active torsions:
REMARK  status: ('A' for Active; 'I' for Inactive)
REMARK    1  A    between atoms: C_1  and  C_2
REMARK    2  A    between atoms: C_2  and  C_3
REMARK    3  A    between atoms: C_3  and  C_4
REMARK                            x       y       z     vdW  Elec       q    Type
REMARK                         _______ _______ _______ _____ _____    ______ ____
ROOT
ATOM      1  C   UNL     1       6.611   5.190  15.923  0.00  0.00    +0.000 C 
ATOM      2  O   UNL     1       7.306   6.124  16.328  0.00  0.00    +0.000 OA
ATOM      3  N   UNL     1       5.468   4.782  16.616  0.00  0.00    +0.000 N 
ATOM      4  C   UNL     1       5.474   5.414  17.904  0.00  0.00    +0.000 C 
ATOM      5  C   UNL     1       4.257   5.098  18.721  0.00  0.00    +0.000 C 
ATOM      6  C   UNL     1       2.884   4.447  18.422  0.00  0.00    +0.000 C 
ATOM      7  C   UNL     1       3.068   3.618  17.116  0.00  0.00    +0.000 C 
ATOM      8  C   UNL     1       4.526   3.627  16.405  0.00  0.00    +0.000 C 
ATOM      9  N   UNL     1       1.841   5.572  18.319  0.00  0.00    +0.000 NA
ATOM     10  C   UNL     1       2.091   6.606  19.387  0.00  0.00    +0.000 C 
ATOM     11  C   UNL     1       2.283   6.065  20.847  0.00  0.00    +0.000 C 
ATOM     12  C   UNL     1       2.303   4.583  20.859  0.00  0.00    +0.000 A 
ATOM     13  N   UNL     1       2.289   3.744  21.925  0.00  0.00    +0.000 N 
ATOM     14  C   UNL     1       2.383   2.473  21.417  0.00  0.00    +0.000 A 
ATOM     15  N   UNL     1       2.518   2.464  20.102  0.00  0.00    +0.000 NA
ATOM     16  C   UNL     1       2.503   3.783  19.743  0.00  0.00    +0.000 A 
ATOM     17  H   UNL     1       0.923   5.156  18.494  0.00  0.00    +0.000 HD
ATOM     18  H   UNL     1       2.283   4.004  22.906  0.00  0.00    +0.000 HD
ENDROOT
BRANCH   1  19
ATOM     19  C   UNL     1       7.124   4.467  14.704  0.00  0.00    +0.000 C 
BRANCH  19  21
ATOM     20  C   UNL     1       6.622   3.654  12.339  0.00  0.00    +0.000 C 
ATOM     21  C   UNL     1       6.065   4.085  13.690  0.00  0.00    +0.000 C 
ENDBRANCH  19  21
ENDBRANCH   1  19
TORSDOF 2
ENDMDL
MODEL 7
REMARK VINA RESULT:      -6.9      3.244      5.151
REMARK  Name = 
REMARK  3 active torsions:
REMARK  status: ('A' for Active; 'I' for Inactive)
REMARK    1  A    between atoms: C_1  and  C_2
REMARK    2  A    between atoms: C_2  and  C_3
REMARK    3  A    between atoms: C_3  and  C_4
REMARK                            x       y       z     vdW  Elec       q    Type
REMARK                         _______ _______ _______ _____ _____    ______ ____
ROOT
ATOM      1  C   UNL     1       0.744   9.282  20.448  0.00  0.00    +0.000 C 
ATOM      2  O   UNL     1       0.303   8.969  21.556  0.00  0.00    +0.000 OA
ATOM      3  N   UNL     1       1.472   8.374  19.675  0.00  0.00    +0.000 N 
ATOM      4  C   UNL     1       1.811   7.250  20.501  0.00  0.00    +0.000 C 
ATOM      5  C   UNL     1       2.546   6.174  19.758  0.00  0.00    +0.000 C 
ATOM      6  C   UNL     1       2.821   5.875  18.264  0.00  0.00    +0.000 C 
ATOM      7  C   UNL     1       2.628   7.223  17.506  0.00  0.00    +0.000 C 
ATOM      8  C   UNL     1       2.201   8.529  18.367  0.00  0.00    +0.000 C 
ATOM      9  N   UNL     1       1.866   4.755  17.825  0.00  0.00    +0.000 NA
ATOM     10  C   UNL     1       1.760   3.711  18.908  0.00  0.00    +0.000 C 
ATOM     11  C   UNL     1       3.115   3.182  19.496  0.00  0.00    +0.000 C 
ATOM     12  C   UNL     1       4.262   3.932  18.931  0.00  0.00    +0.000 A 
ATOM     13  N   UNL     1       5.588   3.677  19.062  0.00  0.00    +0.000 N 
ATOM     14  C   UNL     1       6.242   4.692  18.410  0.00  0.00    +0.000 A 
ATOM     15  N   UNL     1       5.410   5.602  17.931  0.00  0.00    +0.000 NA
ATOM     16  C   UNL     1       4.167   5.155  18.282  0.00  0.00    +0.000 A 
ATOM     17  H   UNL     1       2.274   4.310  16.999  0.00  0.00    +0.000 HD
ATOM     18  H   UNL     1       6.015   2.927  19.595  0.00  0.00    +0.000 HD
ENDROOT
BRANCH   1  19
ATOM     19  C   UNL     1       0.533  10.715  20.035  0.00  0.00    +0.000 C 
BRANCH  19  21
ATOM     20  C   UNL     1      -1.211  10.384  18.202  0.00  0.00    +0.000 C 
ATOM     21  C   UNL     1      -0.860  11.041  19.531  0.00  0.00    +0.000 C 
ENDBRANCH  19  21
ENDBRANCH   1  19
TORSDOF 2
ENDMDL
MODEL 8
REMARK VINA RESULT:      -6.7      2.494      6.672
REMARK  Name = 
REMARK  3 active torsions:
REMARK  status: ('A' for Active; 'I' for Inactive)
REMARK    1  A    between atoms: C_1  and  C_2
REMARK    2  A    between atoms: C_2  and  C_3
REMARK    3  A    between atoms: C_3  and  C_4
REMARK                            x       y       z     vdW  Elec       q    Type
REMARK                         _______ _______ _______ _____ _____    ______ ____
ROOT
ATOM      1  C   UNL     1       6.315   4.303  14.554  0.00  0.00    +0.000 C 
ATOM      2  O   UNL     1       5.728   3.631  13.703  0.00  0.00    +0.000 OA
ATOM      3  N   UNL     1       5.875   4.339  15.880  0.00  0.00    +0.000 N 
ATOM      4  C   UNL     1       4.571   3.742  15.938  0.00  0.00    +0.000 C 
ATOM      5  C   UNL     1       4.018   3.668  17.329  0.00  0.00    +0.000 C 
ATOM      6  C   UNL     1       4.609   3.862  18.747  0.00  0.00    +0.000 C 
ATOM      7  C   UNL     1       5.907   4.705  18.569  0.00  0.00    +0.000 C 
ATOM      8  C   UNL     1       6.331   5.145  17.067  0.00  0.00    +0.000 C 
ATOM      9  N   UNL     1       4.834   2.470  19.358  0.00  0.00    +0.000 NA
ATOM     10  C   UNL     1       3.675   1.565  19.023  0.00  0.00    +0.000 C 
ATOM     11  C   UNL     1       2.242   2.143  19.296  0.00  0.00    +0.000 C 
ATOM     12  C   UNL     1       2.320   3.558  19.729  0.00  0.00    +0.000 A 
ATOM     13  N   UNL     1       1.330   4.354  20.206  0.00  0.00    +0.000 N 
ATOM     14  C   UNL     1       1.890   5.591  20.403  0.00  0.00    +0.000 A 
ATOM     15  N   UNL     1       3.155   5.638  20.021  0.00  0.00    +0.000 NA
ATOM     16  C   UNL     1       3.426   4.379  19.564  0.00  0.00    +0.000 A 
ATOM     17  H   UNL     1       4.860   2.582  20.375  0.00  0.00    +0.000 HD
ATOM     18  H   UNL     1       0.353   4.106  20.326  0.00  0.00    +0.000 HD
ENDROOT
BRANCH   1  19
ATOM     19  C   UNL     1       7.459   5.147  14.054  0.00  0.00    +0.000 C 
BRANCH  19  21
ATOM     20  C   UNL     1       8.209   6.256  11.882  0.00  0.00    +0.000 C 
ATOM     21  C   UNL     1       7.795   4.970  12.587  0.00  0.00    +0.000 C 
ENDBRANCH  19  21
ENDBRANCH   1  19
TORSDOF 2
ENDMDL
MODEL 9
REMARK VINA RESULT:      -6.6      3.186      4.765
REMARK  Name = 
REMARK  3 active torsions:
REMARK  status: ('A' for Active; 'I' for Inactive)
REMARK    1  A    between atoms: C_1  and  C_2
REMARK    2  A    between atoms: C_2  and  C_3
REMARK    3  A    between atoms: C_3  and  C_4
REMARK                            x       y       z     vdW  Elec       q    Type
REMARK                         _______ _______ _______ _____ _____    ______ ____
ROOT
ATOM      1  C   UNL     1       1.575   9.321  18.570  0.00  0.00    +0.000 C 
ATOM      2  O   UNL     1       1.966   9.891  17.549  0.00  0.00    +0.000 OA
ATOM      3  N   UNL     1       2.061   8.062  18.930  0.00  0.00    +0.000 N 
ATOM      4  C   UNL     1       2.786   7.523  17.814  0.00  0.00    +0.000 C 
ATOM      5  C   UNL     1       3.410   6.191  18.105  0.00  0.00    +0.000 C 
ATOM      6  C   UNL     1       3.662   5.364  19.389  0.00  0.00    +0.000 C 
ATOM      7  C   UNL     1       2.666   5.903  20.459  0.00  0.00    +0.000 C 
ATOM      8  C   UNL     1       1.678   7.118  20.039  0.00  0.00    +0.000 C 
ATOM      9  N   UNL     1       5.144   5.518  19.765  0.00  0.00    +0.000 NA
ATOM     10  C   UNL     1       6.000   5.467  18.524  0.00  0.00    +0.000 C 
ATOM     11  C   UNL     1       5.726   4.277  17.540  0.00  0.00    +0.000 C 
ATOM     12  C   UNL     1       4.555   3.484  17.988  0.00  0.00    +0.000 A 
ATOM     13  N   UNL     1       4.100   2.301  17.506  0.00  0.00    +0.000 N 
ATOM     14  C   UNL     1       2.956   2.013  18.207  0.00  0.00    +0.000 A 
ATOM     15  N   UNL     1       2.631   2.973  19.056  0.00  0.00    +0.000 NA
ATOM     16  C   UNL     1       3.608   3.917  18.903  0.00  0.00    +0.000 A 
ATOM     17  H   UNL     1       5.396   4.719  20.352  0.00  0.00    +0.000 HD
ATOM     18  H   UNL     1       4.485   1.768  16.733  0.00  0.00    +0.000 HD
ENDROOT
BRANCH   1  19
ATOM     19  C   UNL     1       0.482  10.021  19.337  0.00  0.00    +0.000 C 
BRANCH  19  21
ATOM     20  C   UNL     1      -1.535  10.139  17.779  0.00  0.00    +0.000 C 
ATOM     21  C   UNL     1      -0.429  10.898  18.502  0.00  0.00    +0.000 C 
ENDBRANCH  19  21
ENDBRANCH   1  19
TORSDOF 2
ENDMDL
