MODEL 1
REMARK VINA RESULT:      -4.1      0.000      0.000
REMARK  Name = 
REMARK  1 active torsions:
REMARK  status: ('A' for Active; 'I' for Inactive)
REMARK    1  A    between atoms: N_1  and  C_2
REMARK                            x       y       z     vdW  Elec       q    Type
REMARK                         _______ _______ _______ _____ _____    ______ ____
ROOT
ATOM      1  C   UNL     1       2.434   2.795  19.498  0.00  0.00    +0.000 C 
ATOM      2  C   UNL     1       1.291   3.312  20.344  0.00  0.00    +0.000 C 
ATOM      3  C   UNL     1       1.528   2.682  21.692  0.00  0.00    +0.000 C 
ATOM      4  O   UNL     1       2.937   2.489  21.795  0.00  0.00    +0.000 OA
ATOM      5  C   UNL     1       3.498   2.498  20.547  0.00  0.00    +0.000 C 
ATOM      6  O   UNL     1       4.679   2.267  20.338  0.00  0.00    +0.000 OA
ENDROOT
BRANCH   1   7
ATOM      7  N   UNL     1       2.081   1.593  18.729  0.00  0.00    +0.000 NA
ATOM      8  H   UNL     1       2.861   1.318  18.134  0.00  0.00    +0.000 HD
ATOM      9  H   UNL     1       1.287   1.773  18.118  0.00  0.00    +0.000 HD
ENDBRANCH   1   7
TORSDOF 1
ENDMDL
MODEL 2
REMARK VINA RESULT:      -4.0      5.166      5.869
REMARK  Name = 
REMARK  1 active torsions:
REMARK  status: ('A' for Active; 'I' for Inactive)
REMARK    1  A    between atoms: N_1  and  C_2
REMARK                            x       y       z     vdW  Elec       q    Type
REMARK                         _______ _______ _______ _____ _____    ______ ____
ROOT
ATOM      1  C   UNL     1       7.502   5.202  18.181  0.00  0.00    +0.000 C 
ATOM      2  C   UNL     1       7.421   6.614  17.645  0.00  0.00    +0.000 C 
ATOM      3  C   UNL     1       5.979   6.760  17.232  0.00  0.00    +0.000 C 
ATOM      4  O   UNL     1       5.236   5.892  18.084  0.00  0.00    +0.000 OA
ATOM      5  C   UNL     1       6.065   4.944  18.618  0.00  0.00    +0.000 C 
ATOM      6  O   UNL     1       5.673   4.020  19.315  0.00  0.00    +0.000 OA
ENDROOT
BRANCH   1   7
ATOM      7  N   UNL     1       7.944   4.228  17.173  0.00  0.00    +0.000 NA
ATOM      8  H   UNL     1       8.412   3.445  17.625  0.00  0.00    +0.000 HD
ATOM      9  H   UNL     1       8.613   4.648  16.531  0.00  0.00    +0.000 HD
ENDBRANCH   1   7
TORSDOF 1
ENDMDL
MODEL 3
REMARK VINA RESULT:      -3.9      5.618      6.179
REMARK  Name = 
REMARK  1 active torsions:
REMARK  status: ('A' for Active; 'I' for Inactive)
REMARK    1  A    between atoms: N_1  and  C_2
REMARK                            x       y       z     vdW  Elec       q    Type
REMARK                         _______ _______ _______ _____ _____    ______ ____
ROOT
ATOM      1  C   UNL     1       6.186   5.029  18.313  0.00  0.00    +0.000 C 
ATOM      2  C   UNL     1       5.327   6.156  17.782  0.00  0.00    +0.000 C 
ATOM      3  C   UNL     1       6.306   7.042  17.055  0.00  0.00    +0.000 C 
ATOM      4  O   UNL     1       7.352   6.186  16.603  0.00  0.00    +0.000 OA
ATOM      5  C   UNL     1       7.354   5.029  17.333  0.00  0.00    +0.000 C 
ATOM      6  O   UNL     1       8.201   4.157  17.214  0.00  0.00    +0.000 OA
ENDROOT
BRANCH   1   7
ATOM      7  N   UNL     1       6.638   5.252  19.694  0.00  0.00    +0.000 NA
ATOM      8  H   UNL     1       6.151   4.620  20.327  0.00  0.00    +0.000 HD
ATOM      9  H   UNL     1       6.427   6.201  19.996  0.00  0.00    +0.000 HD
ENDBRANCH   1   7
TORSDOF 1
ENDMDL
MODEL 4
REMARK VINA RESULT:      -3.9      1.825      2.409
REMARK  Name = 
REMARK  1 active torsions:
REMARK  status: ('A' for Active; 'I' for Inactive)
REMARK    1  A    between atoms: N_1  and  C_2
REMARK                            x       y       z     vdW  Elec       q    Type
REMARK                         _______ _______ _______ _____ _____    ______ ____
ROOT
ATOM      1  C   UNL     1       3.845   3.013  19.882  0.00  0.00    +0.000 C 
ATOM      2  C   UNL     1       3.168   3.117  18.533  0.00  0.00    +0.000 C 
ATOM      3  C   UNL     1       1.952   2.238  18.674  0.00  0.00    +0.000 C 
ATOM      4  O   UNL     1       1.601   2.268  20.055  0.00  0.00    +0.000 OA
ATOM      5  C   UNL     1       2.679   2.664  20.799  0.00  0.00    +0.000 C 
ATOM      6  O   UNL     1       2.681   2.692  22.020  0.00  0.00    +0.000 OA
ENDROOT
BRANCH   1   7
ATOM      7  N   UNL     1       4.893   1.983  19.923  0.00  0.00    +0.000 NA
ATOM      8  H   UNL     1       5.797   2.411  20.115  0.00  0.00    +0.000 HD
ATOM      9  H   UNL     1       4.970   1.508  19.025  0.00  0.00    +0.000 HD
ENDBRANCH   1   7
TORSDOF 1
ENDMDL
MODEL 5
REMARK VINA RESULT:      -3.9      6.429      6.782
REMARK  Name = 
REMARK  1 active torsions:
REMARK  status: ('A' for Active; 'I' for Inactive)
REMARK    1  A    between atoms: N_1  and  C_2
REMARK                            x       y       z     vdW  Elec       q    Type
REMARK                         _______ _______ _______ _____ _____    ______ ____
ROOT
ATOM      1  C   UNL     1       6.502   6.166  17.239  0.00  0.00    +0.000 C 
ATOM      2  C   UNL     1       5.971   5.660  15.916  0.00  0.00    +0.000 C 
ATOM      3  C   UNL     1       7.067   4.757  15.410  0.00  0.00    +0.000 C 
ATOM      4  O   UNL     1       7.723   4.247  16.568  0.00  0.00    +0.000 OA
ATOM      5  C   UNL     1       7.466   5.055  17.641  0.00  0.00    +0.000 C 
ATOM      6  O   UNL     1       7.975   4.899  18.740  0.00  0.00    +0.000 OA
ENDROOT
BRANCH   1   7
ATOM      7  N   UNL     1       7.186   7.462  17.126  0.00  0.00    +0.000 NA
ATOM      8  H   UNL     1       6.654   8.086  16.524  0.00  0.00    +0.000 HD
ATOM      9  H   UNL     1       8.107   7.351  16.705  0.00  0.00    +0.000 HD
ENDBRANCH   1   7
TORSDOF 1
ENDMDL
MODEL 6
REMARK VINA RESULT:      -3.8      2.515      2.773
REMARK  Name = 
REMARK  1 active torsions:
REMARK  status: ('A' for Active; 'I' for Inactive)
REMARK    1  A    between atoms: N_1  and  C_2
REMARK                            x       y       z     vdW  Elec       q    Type
REMARK                         _______ _______ _______ _____ _____    ______ ____
ROOT
ATOM      1  C   UNL     1       1.076   2.601  19.164  0.00  0.00    +0.000 C 
ATOM      2  C   UNL     1       1.191   2.963  20.628  0.00  0.00    +0.000 C 
ATOM      3  C   UNL     1       2.124   4.146  20.634  0.00  0.00    +0.000 C 
ATOM      4  O   UNL     1       1.941   4.799  19.380  0.00  0.00    +0.000 OA
ATOM      5  C   UNL     1       1.382   3.929  18.482  0.00  0.00    +0.000 C 
ATOM      6  O   UNL     1       1.198   4.201  17.306  0.00  0.00    +0.000 OA
ENDROOT
BRANCH   1   7
ATOM      7  N   UNL     1       2.021   1.552  18.754  0.00  0.00    +0.000 NA
ATOM      8  H   UNL     1       1.637   1.021  17.975  0.00  0.00    +0.000 HD
ATOM      9  H   UNL     1       2.186   0.895  19.514  0.00  0.00    +0.000 HD
ENDBRANCH   1   7
TORSDOF 1
ENDMDL
MODEL 7
REMARK VINA RESULT:      -3.8      4.493      5.080
REMARK  Name = 
REMARK  1 active torsions:
REMARK  status: ('A' for Active; 'I' for Inactive)
REMARK    1  A    between atoms: N_1  and  C_2
REMARK                            x       y       z     vdW  Elec       q    Type
REMARK                         _______ _______ _______ _____ _____    ______ ____
ROOT
ATOM      1  C   UNL     1       6.883   5.138  17.629  0.00  0.00    +0.000 C 
ATOM      2  C   UNL     1       5.523   4.776  17.074  0.00  0.00    +0.000 C 
ATOM      3  C   UNL     1       4.901   3.941  18.163  0.00  0.00    +0.000 C 
ATOM      4  O   UNL     1       5.473   4.398  19.386  0.00  0.00    +0.000 OA
ATOM      5  C   UNL     1       6.647   5.055  19.133  0.00  0.00    +0.000 C 
ATOM      6  O   UNL     1       7.388   5.473  20.008  0.00  0.00    +0.000 OA
ENDROOT
BRANCH   1   7
ATOM      7  N   UNL     1       7.945   4.218  17.197  0.00  0.00    +0.000 NA
ATOM      8  H   UNL     1       7.692   3.259  17.431  0.00  0.00    +0.000 HD
ATOM      9  H   UNL     1       8.820   4.423  17.673  0.00  0.00    +0.000 HD
ENDBRANCH   1   7
TORSDOF 1
ENDMDL
MODEL 8
REMARK VINA RESULT:      -3.8      5.779      6.390
REMARK  Name = 
REMARK  1 active torsions:
REMARK  status: ('A' for Active; 'I' for Inactive)
REMARK    1  A    between atoms: N_1  and  C_2
REMARK                            x       y       z     vdW  Elec       q    Type
REMARK                         _______ _______ _______ _____ _____    ______ ____
ROOT
ATOM      1  C   UNL     1       6.368   4.259  16.654  0.00  0.00    +0.000 C 
ATOM      2  C   UNL     1       4.932   4.598  16.989  0.00  0.00    +0.000 C 
ATOM      3  C   UNL     1       4.828   6.069  16.679  0.00  0.00    +0.000 C 
ATOM      4  O   UNL     1       5.777   6.322  15.646  0.00  0.00    +0.000 OA
ATOM      5  C   UNL     1       6.717   5.327  15.625  0.00  0.00    +0.000 C 
ATOM      6  O   UNL     1       7.696   5.340  14.895  0.00  0.00    +0.000 OA
ENDROOT
BRANCH   1   7
ATOM      7  N   UNL     1       7.260   4.321  17.821  0.00  0.00    +0.000 NA
ATOM      8  H   UNL     1       7.011   5.114  18.410  0.00  0.00    +0.000 HD
ATOM      9  H   UNL     1       8.227   4.454  17.532  0.00  0.00    +0.000 HD
ENDBRANCH   1   7
TORSDOF 1
ENDMDL
MODEL 9
REMARK VINA RESULT:      -3.8      5.708      6.305
REMARK  Name = 
REMARK  1 active torsions:
REMARK  status: ('A' for Active; 'I' for Inactive)
REMARK    1  A    between atoms: N_1  and  C_2
REMARK                            x       y       z     vdW  Elec       q    Type
REMARK                         _______ _______ _______ _____ _____    ______ ____
ROOT
ATOM      1  C   UNL     1       7.175   4.722  16.560  0.00  0.00    +0.000 C 
ATOM      2  C   UNL     1       5.769   4.162  16.544  0.00  0.00    +0.000 C 
ATOM      3  C   UNL     1       4.984   5.137  17.383  0.00  0.00    +0.000 C 
ATOM      4  O   UNL     1       5.639   6.396  17.242  0.00  0.00    +0.000 OA
ATOM      5  C   UNL     1       6.925   6.204  16.815  0.00  0.00    +0.000 C 
ATOM      6  O   UNL     1       7.737   7.108  16.695  0.00  0.00    +0.000 OA
ENDROOT
BRANCH   1   7
ATOM      7  N   UNL     1       8.018   4.127  17.607  0.00  0.00    +0.000 NA
ATOM      8  H   UNL     1       8.985   4.081  17.291  0.00  0.00    +0.000 HD
ATOM      9  H   UNL     1       7.724   3.175  17.813  0.00  0.00    +0.000 HD
ENDBRANCH   1   7
TORSDOF 1
ENDMDL
