MODEL 1
REMARK VINA RESULT:      -7.2      0.000      0.000
REMARK  Name = 
REMARK  12 active torsions:
REMARK  status: ('A' for Active; 'I' for Inactive)
REMARK    1  A    between atoms: C_1  and  O_2
REMARK    2  A    between atoms: O_2  and  C_3
REMARK    3  A    between atoms: C_4  and  O_5
REMARK    4  A    between atoms: O_5  and  C_6
REMARK    5  A    between atoms: C_6  and  C_7
REMARK    6  A    between atoms: C_7  and  C_8
REMARK    7  A    between atoms: N_17  and  C_18
REMARK    8  A    between atoms: C_18  and  C_19
REMARK    9  A    between atoms: C_22  and  C_23
REMARK   10  A    between atoms: C_23  and  C_24
REMARK   11  A    between atoms: C_23  and  N_25
REMARK   12  A    between atoms: C_26  and  C_27
REMARK                            x       y       z     vdW  Elec       q    Type
REMARK                         _______ _______ _______ _____ _____    ______ ____
ROOT
ATOM      1  C   UNL     1       2.446   6.618  19.795  0.00  0.00    +0.000 A 
ATOM      2  C   UNL     1       2.967   6.294  18.524  0.00  0.00    +0.000 A 
ATOM      3  C   UNL     1       2.930   7.235  17.484  0.00  0.00    +0.000 A 
ATOM      4  C   UNL     1       2.411   8.515  17.710  0.00  0.00    +0.000 A 
ATOM      5  C   UNL     1       1.868   8.840  18.957  0.00  0.00    +0.000 A 
ATOM      6  C   UNL     1       1.857   7.875  19.993  0.00  0.00    +0.000 A 
ATOM      7  C   UNL     1       1.076   8.270  21.210  0.00  0.00    +0.000 C 
ATOM      8  C   UNL     1      -0.188   8.978  20.746  0.00  0.00    +0.000 C 
ATOM      9  N   UNL     1       0.091  10.267  20.094  0.00  0.00    +0.000 NA
ATOM     10  C   UNL     1       1.314  10.225  19.247  0.00  0.00    +0.000 C 
ENDROOT
BRANCH   1  12
ATOM     11  C   UNL     1       1.281   4.731  20.699  0.00  0.00    +0.000 C 
ATOM     12  O   UNL     1       2.400   5.605  20.730  0.00  0.00    +0.000 OA
ENDBRANCH   1  12
BRANCH   2  13
ATOM     13  O   UNL     1       3.455   5.020  18.364  0.00  0.00    +0.000 OA
BRANCH  13  14
ATOM     14  C   UNL     1       2.783   4.192  17.418  0.00  0.00    +0.000 C 
BRANCH  14  15
ATOM     15  C   UNL     1       3.213   2.753  17.651  0.00  0.00    +0.000 C 
BRANCH  15  16
ATOM     16  C   UNL     1       2.125   1.947  18.320  0.00  0.00    +0.000 C 
ATOM     17  F   UNL     1       2.347   1.905  19.659  0.00  0.00    +0.000 F 
ATOM     18  F   UNL     1       0.938   2.589  18.152  0.00  0.00    +0.000 F 
ENDBRANCH  15  16
ENDBRANCH  14  15
ENDBRANCH  13  14
ENDBRANCH   2  13
BRANCH   9  19
ATOM     19  C   UNL     1       0.206  11.361  21.077  0.00  0.00    +0.000 C 
BRANCH  19  20
ATOM     20  C   UNL     1      -1.112  11.909  21.589  0.00  0.00    +0.000 A 
ATOM     21  C   UNL     1      -1.974  12.622  20.739  0.00  0.00    +0.000 A 
ATOM     22  C   UNL     1      -3.249  13.005  21.171  0.00  0.00    +0.000 A 
ATOM     23  C   UNL     1      -3.689  12.675  22.464  0.00  0.00    +0.000 A 
ATOM     24  C   UNL     1      -2.793  12.049  23.336  0.00  0.00    +0.000 A 
ATOM     25  C   UNL     1      -1.518  11.666  22.909  0.00  0.00    +0.000 A 
BRANCH  23  26
ATOM     26  C   UNL     1      -5.136  12.922  22.857  0.00  0.00    +0.000 C 
ATOM     27  C   UNL     1      -5.368  12.705  24.353  0.00  0.00    +0.000 C 
BRANCH  26  28
ATOM     28  N   UNL     1      -5.994  12.045  22.066  0.00  0.00    +0.000 N 
ATOM     29  C   UNL     1      -7.015  12.498  21.272  0.00  0.00    +0.000 C 
ATOM     30  C   UNL     1      -7.781  11.404  20.579  0.00  0.00    +0.000 C 
ATOM     31  O   UNL     1      -7.308  13.683  21.149  0.00  0.00    +0.000 OA
ATOM     32  H   UNL     1      -5.836  11.050  22.134  0.00  0.00    +0.000 HD
ENDBRANCH  26  28
ENDBRANCH  23  26
ENDBRANCH  19  20
ENDBRANCH   9  19
TORSDOF 9
ENDMDL
MODEL 2
REMARK VINA RESULT:      -7.1      4.925     10.958
REMARK  Name = 
REMARK  12 active torsions:
REMARK  status: ('A' for Active; 'I' for Inactive)
REMARK    1  A    between atoms: C_1  and  O_2
REMARK    2  A    between atoms: O_2  and  C_3
REMARK    3  A    between atoms: C_4  and  O_5
REMARK    4  A    between atoms: O_5  and  C_6
REMARK    5  A    between atoms: C_6  and  C_7
REMARK    6  A    between atoms: C_7  and  C_8
REMARK    7  A    between atoms: N_17  and  C_18
REMARK    8  A    between atoms: C_18  and  C_19
REMARK    9  A    between atoms: C_22  and  C_23
REMARK   10  A    between atoms: C_23  and  C_24
REMARK   11  A    between atoms: C_23  and  N_25
REMARK   12  A    between atoms: C_26  and  C_27
REMARK                            x       y       z     vdW  Elec       q    Type
REMARK                         _______ _______ _______ _____ _____    ______ ____
ROOT
ATOM      1  C   UNL     1       1.447   9.400  18.955  0.00  0.00    +0.000 A 
ATOM      2  C   UNL     1       0.416   9.840  19.812  0.00  0.00    +0.000 A 
ATOM      3  C   UNL     1       0.028   9.059  20.910  0.00  0.00    +0.000 A 
ATOM      4  C   UNL     1       0.685   7.856  21.186  0.00  0.00    +0.000 A 
ATOM      5  C   UNL     1       1.691   7.394  20.330  0.00  0.00    +0.000 A 
ATOM      6  C   UNL     1       2.050   8.156  19.192  0.00  0.00    +0.000 A 
ATOM      7  C   UNL     1       2.992   7.470  18.250  0.00  0.00    +0.000 C 
ATOM      8  C   UNL     1       2.576   6.010  18.152  0.00  0.00    +0.000 C 
ATOM      9  N   UNL     1       2.772   5.278  19.414  0.00  0.00    +0.000 NA
ATOM     10  C   UNL     1       2.441   6.103  20.608  0.00  0.00    +0.000 C 
ENDROOT
BRANCH   1  12
ATOM     11  C   UNL     1       2.444  11.349  17.983  0.00  0.00    +0.000 C 
ATOM     12  O   UNL     1       1.690  10.155  17.827  0.00  0.00    +0.000 OA
ENDBRANCH   1  12
BRANCH   2  13
ATOM     13  O   UNL     1      -0.195  11.027  19.483  0.00  0.00    +0.000 OA
BRANCH  13  14
ATOM     14  C   UNL     1      -1.619  11.017  19.424  0.00  0.00    +0.000 C 
BRANCH  14  15
ATOM     15  C   UNL     1      -2.040  10.304  18.149  0.00  0.00    +0.000 C 
BRANCH  15  16
ATOM     16  C   UNL     1      -2.327  11.282  17.033  0.00  0.00    +0.000 C 
ATOM     17  F   UNL     1      -3.625  11.677  17.098  0.00  0.00    +0.000 F 
ATOM     18  F   UNL     1      -1.579  12.400  17.228  0.00  0.00    +0.000 F 
ENDBRANCH  15  16
ENDBRANCH  14  15
ENDBRANCH  13  14
ENDBRANCH   2  13
BRANCH   9  19
ATOM     19  C   UNL     1       4.148   4.761  19.534  0.00  0.00    +0.000 C 
BRANCH  19  20
ATOM     20  C   UNL     1       4.821   4.409  18.220  0.00  0.00    +0.000 A 
ATOM     21  C   UNL     1       4.116   3.741  17.206  0.00  0.00    +0.000 A 
ATOM     22  C   UNL     1       4.692   3.542  15.946  0.00  0.00    +0.000 A 
ATOM     23  C   UNL     1       5.987   4.015  15.675  0.00  0.00    +0.000 A 
ATOM     24  C   UNL     1       6.718   4.594  16.717  0.00  0.00    +0.000 A 
ATOM     25  C   UNL     1       6.147   4.794  17.976  0.00  0.00    +0.000 A 
BRANCH  23  26
ATOM     26  C   UNL     1       6.528   3.968  14.256  0.00  0.00    +0.000 C 
ATOM     27  C   UNL     1       7.385   5.192  13.929  0.00  0.00    +0.000 C 
BRANCH  26  28
ATOM     28  N   UNL     1       5.407   3.855  13.329  0.00  0.00    +0.000 N 
ATOM     29  C   UNL     1       5.476   3.195  12.130  0.00  0.00    +0.000 C 
ATOM     30  C   UNL     1       4.201   3.244  11.331  0.00  0.00    +0.000 C 
ATOM     31  O   UNL     1       6.487   2.636  11.719  0.00  0.00    +0.000 OA
ATOM     32  H   UNL     1       4.543   4.315  13.581  0.00  0.00    +0.000 HD
ENDBRANCH  26  28
ENDBRANCH  23  26
ENDBRANCH  19  20
ENDBRANCH   9  19
TORSDOF 9
ENDMDL
MODEL 3
REMARK VINA RESULT:      -7.1      5.025     11.186
REMARK  Name = 
REMARK  12 active torsions:
REMARK  status: ('A' for Active; 'I' for Inactive)
REMARK    1  A    between atoms: C_1  and  O_2
REMARK    2  A    between atoms: O_2  and  C_3
REMARK    3  A    between atoms: C_4  and  O_5
REMARK    4  A    between atoms: O_5  and  C_6
REMARK    5  A    between atoms: C_6  and  C_7
REMARK    6  A    between atoms: C_7  and  C_8
REMARK    7  A    between atoms: N_17  and  C_18
REMARK    8  A    between atoms: C_18  and  C_19
REMARK    9  A    between atoms: C_22  and  C_23
REMARK   10  A    between atoms: C_23  and  C_24
REMARK   11  A    between atoms: C_23  and  N_25
REMARK   12  A    between atoms: C_26  and  C_27
REMARK                            x       y       z     vdW  Elec       q    Type
REMARK                         _______ _______ _______ _____ _____    ______ ____
ROOT
ATOM      1  C   UNL     1       0.654  10.225  19.650  0.00  0.00    +0.000 A 
ATOM      2  C   UNL     1      -0.262  10.378  20.712  0.00  0.00    +0.000 A 
ATOM      3  C   UNL     1      -0.365   9.393  21.704  0.00  0.00    +0.000 A 
ATOM      4  C   UNL     1       0.468   8.269  21.670  0.00  0.00    +0.000 A 
ATOM      5  C   UNL     1       1.362   8.092  20.610  0.00  0.00    +0.000 A 
ATOM      6  C   UNL     1       1.432   9.060  19.579  0.00  0.00    +0.000 A 
ATOM      7  C   UNL     1       2.277   8.667  18.405  0.00  0.00    +0.000 C 
ATOM      8  C   UNL     1       2.027   7.193  18.121  0.00  0.00    +0.000 C 
ATOM      9  N   UNL     1       2.518   6.317  19.196  0.00  0.00    +0.000 NA
ATOM     10  C   UNL     1       2.297   6.896  20.549  0.00  0.00    +0.000 C 
ENDROOT
BRANCH   1  12
ATOM     11  C   UNL     1       1.548  12.235  18.702  0.00  0.00    +0.000 C 
ATOM     12  O   UNL     1       0.612  11.168  18.644  0.00  0.00    +0.000 OA
ENDBRANCH   1  12
BRANCH   2  13
ATOM     13  O   UNL     1      -1.057  11.500  20.684  0.00  0.00    +0.000 OA
BRANCH  13  14
ATOM     14  C   UNL     1      -0.964  12.375  21.805  0.00  0.00    +0.000 C 
BRANCH  14  15
ATOM     15  C   UNL     1      -2.289  13.105  21.952  0.00  0.00    +0.000 C 
BRANCH  15  16
ATOM     16  C   UNL     1      -3.240  12.358  22.857  0.00  0.00    +0.000 C 
ATOM     17  F   UNL     1      -3.142  12.846  24.122  0.00  0.00    +0.000 F 
ATOM     18  F   UNL     1      -4.515  12.606  22.453  0.00  0.00    +0.000 F 
ENDBRANCH  15  16
ENDBRANCH  14  15
ENDBRANCH  13  14
ENDBRANCH   2  13
BRANCH   9  19
ATOM     19  C   UNL     1       3.946   5.991  19.022  0.00  0.00    +0.000 C 
BRANCH  19  20
ATOM     20  C   UNL     1       4.333   5.508  17.637  0.00  0.00    +0.000 A 
ATOM     21  C   UNL     1       4.953   6.373  16.720  0.00  0.00    +0.000 A 
ATOM     22  C   UNL     1       5.436   5.893  15.498  0.00  0.00    +0.000 A 
ATOM     23  C   UNL     1       5.313   4.531  15.171  0.00  0.00    +0.000 A 
ATOM     24  C   UNL     1       4.610   3.696  16.045  0.00  0.00    +0.000 A 
ATOM     25  C   UNL     1       4.126   4.172  17.266  0.00  0.00    +0.000 A 
BRANCH  23  26
ATOM     26  C   UNL     1       6.007   3.983  13.936  0.00  0.00    +0.000 C 
ATOM     27  C   UNL     1       7.229   4.817  13.548  0.00  0.00    +0.000 C 
BRANCH  26  28
ATOM     28  N   UNL     1       5.044   3.930  12.840  0.00  0.00    +0.000 N 
ATOM     29  C   UNL     1       5.094   3.006  11.829  0.00  0.00    +0.000 C 
ATOM     30  C   UNL     1       4.013   3.173  10.795  0.00  0.00    +0.000 C 
ATOM     31  O   UNL     1       5.952   2.134  11.746  0.00  0.00    +0.000 OA
ATOM     32  H   UNL     1       4.320   4.634  12.820  0.00  0.00    +0.000 HD
ENDBRANCH  26  28
ENDBRANCH  23  26
ENDBRANCH  19  20
ENDBRANCH   9  19
TORSDOF 9
ENDMDL
MODEL 4
REMARK VINA RESULT:      -7.0      2.022      2.265
REMARK  Name = 
REMARK  12 active torsions:
REMARK  status: ('A' for Active; 'I' for Inactive)
REMARK    1  A    between atoms: C_1  and  O_2
REMARK    2  A    between atoms: O_2  and  C_3
REMARK    3  A    between atoms: C_4  and  O_5
REMARK    4  A    between atoms: O_5  and  C_6
REMARK    5  A    between atoms: C_6  and  C_7
REMARK    6  A    between atoms: C_7  and  C_8
REMARK    7  A    between atoms: N_17  and  C_18
REMARK    8  A    between atoms: C_18  and  C_19
REMARK    9  A    between atoms: C_22  and  C_23
REMARK   10  A    between atoms: C_23  and  C_24
REMARK   11  A    between atoms: C_23  and  N_25
REMARK   12  A    between atoms: C_26  and  C_27
REMARK                            x       y       z     vdW  Elec       q    Type
REMARK                         _______ _______ _______ _____ _____    ______ ____
ROOT
ATOM      1  C   UNL     1       2.424   6.613  19.765  0.00  0.00    +0.000 A 
ATOM      2  C   UNL     1       2.902   6.482  18.444  0.00  0.00    +0.000 A 
ATOM      3  C   UNL     1       2.754   7.535  17.531  0.00  0.00    +0.000 A 
ATOM      4  C   UNL     1       2.165   8.739  17.933  0.00  0.00    +0.000 A 
ATOM      5  C   UNL     1       1.663   8.874  19.231  0.00  0.00    +0.000 A 
ATOM      6  C   UNL     1       1.765   7.793  20.140  0.00  0.00    +0.000 A 
ATOM      7  C   UNL     1       1.021   7.983  21.427  0.00  0.00    +0.000 C 
ATOM      8  C   UNL     1      -0.308   8.652  21.105  0.00  0.00    +0.000 C 
ATOM      9  N   UNL     1      -0.144  10.027  20.606  0.00  0.00    +0.000 NA
ATOM     10  C   UNL     1       1.036  10.172  19.711  0.00  0.00    +0.000 C 
ENDROOT
BRANCH   1  12
ATOM     11  C   UNL     1       1.358   4.634  20.593  0.00  0.00    +0.000 C 
ATOM     12  O   UNL     1       2.488   5.495  20.569  0.00  0.00    +0.000 OA
ENDBRANCH   1  12
BRANCH   2  13
ATOM     13  O   UNL     1       3.463   5.273  18.109  0.00  0.00    +0.000 OA
BRANCH  13  14
ATOM     14  C   UNL     1       4.873   5.154  18.281  0.00  0.00    +0.000 C 
BRANCH  14  15
ATOM     15  C   UNL     1       5.488   4.775  16.943  0.00  0.00    +0.000 C 
BRANCH  15  16
ATOM     16  C   UNL     1       5.954   5.992  16.179  0.00  0.00    +0.000 C 
ATOM     17  F   UNL     1       4.989   6.377  15.304  0.00  0.00    +0.000 F 
ATOM     18  F   UNL     1       6.109   7.024  17.051  0.00  0.00    +0.000 F 
ENDBRANCH  15  16
ENDBRANCH  14  15
ENDBRANCH  13  14
ENDBRANCH   2  13
BRANCH   9  19
ATOM     19  C   UNL     1      -0.052  10.999  21.711  0.00  0.00    +0.000 C 
BRANCH  19  20
ATOM     20  C   UNL     1      -1.328  11.766  22.003  0.00  0.00    +0.000 A 
ATOM     21  C   UNL     1      -1.979  12.493  20.992  0.00  0.00    +0.000 A 
ATOM     22  C   UNL     1      -3.226  13.083  21.225  0.00  0.00    +0.000 A 
ATOM     23  C   UNL     1      -3.851  12.951  22.477  0.00  0.00    +0.000 A 
ATOM     24  C   UNL     1      -3.156  12.308  23.506  0.00  0.00    +0.000 A 
ATOM     25  C   UNL     1      -1.910  11.719  23.278  0.00  0.00    +0.000 A 
BRANCH  23  26
ATOM     26  C   UNL     1      -5.283  13.425  22.662  0.00  0.00    +0.000 C 
ATOM     27  C   UNL     1      -5.935  12.807  23.899  0.00  0.00    +0.000 C 
BRANCH  26  28
ATOM     28  N   UNL     1      -6.043  13.104  21.458  0.00  0.00    +0.000 N 
ATOM     29  C   UNL     1      -7.025  13.910  20.943  0.00  0.00    +0.000 C 
ATOM     30  C   UNL     1      -7.691  13.352  19.714  0.00  0.00    +0.000 C 
ATOM     31  O   UNL     1      -7.361  14.978  21.444  0.00  0.00    +0.000 OA
ATOM     32  H   UNL     1      -5.846  12.226  21.000  0.00  0.00    +0.000 HD
ENDBRANCH  26  28
ENDBRANCH  23  26
ENDBRANCH  19  20
ENDBRANCH   9  19
TORSDOF 9
ENDMDL
MODEL 5
REMARK VINA RESULT:      -7.0      3.509      4.789
REMARK  Name = 
REMARK  12 active torsions:
REMARK  status: ('A' for Active; 'I' for Inactive)
REMARK    1  A    between atoms: C_1  and  O_2
REMARK    2  A    between atoms: O_2  and  C_3
REMARK    3  A    between atoms: C_4  and  O_5
REMARK    4  A    between atoms: O_5  and  C_6
REMARK    5  A    between atoms: C_6  and  C_7
REMARK    6  A    between atoms: C_7  and  C_8
REMARK    7  A    between atoms: N_17  and  C_18
REMARK    8  A    between atoms: C_18  and  C_19
REMARK    9  A    between atoms: C_22  and  C_23
REMARK   10  A    between atoms: C_23  and  C_24
REMARK   11  A    between atoms: C_23  and  N_25
REMARK   12  A    between atoms: C_26  and  C_27
REMARK                            x       y       z     vdW  Elec       q    Type
REMARK                         _______ _______ _______ _____ _____    ______ ____
ROOT
ATOM      1  C   UNL     1       4.532   4.372  17.359  0.00  0.00    +0.000 A 
ATOM      2  C   UNL     1       5.190   4.782  16.180  0.00  0.00    +0.000 A 
ATOM      3  C   UNL     1       5.180   6.131  15.798  0.00  0.00    +0.000 A 
ATOM      4  C   UNL     1       4.550   7.087  16.602  0.00  0.00    +0.000 A 
ATOM      5  C   UNL     1       3.871   6.691  17.759  0.00  0.00    +0.000 A 
ATOM      6  C   UNL     1       3.835   5.322  18.120  0.00  0.00    +0.000 A 
ATOM      7  C   UNL     1       2.918   4.998  19.260  0.00  0.00    +0.000 C 
ATOM      8  C   UNL     1       1.654   5.828  19.095  0.00  0.00    +0.000 C 
ATOM      9  N   UNL     1       1.896   7.270  19.259  0.00  0.00    +0.000 NA
ATOM     10  C   UNL     1       3.192   7.701  18.668  0.00  0.00    +0.000 C 
ENDROOT
BRANCH   1  12
ATOM     11  C   UNL     1       3.201   2.389  17.544  0.00  0.00    +0.000 C 
ATOM     12  O   UNL     1       4.474   3.016  17.606  0.00  0.00    +0.000 OA
ENDBRANCH   1  12
BRANCH   2  13
ATOM     13  O   UNL     1       5.785   3.795  15.431  0.00  0.00    +0.000 OA
BRANCH  13  14
ATOM     14  C   UNL     1       6.510   4.218  14.279  0.00  0.00    +0.000 C 
BRANCH  14  15
ATOM     15  C   UNL     1       5.902   3.546  13.058  0.00  0.00    +0.000 C 
BRANCH  15  16
ATOM     16  C   UNL     1       6.730   3.790  11.818  0.00  0.00    +0.000 C 
ATOM     17  F   UNL     1       7.700   4.700  12.090  0.00  0.00    +0.000 F 
ATOM     18  F   UNL     1       7.372   2.637  11.487  0.00  0.00    +0.000 F 
ENDBRANCH  15  16
ENDBRANCH  14  15
ENDBRANCH  13  14
ENDBRANCH   2  13
BRANCH   9  19
ATOM     19  C   UNL     1       1.838   7.672  20.677  0.00  0.00    +0.000 C 
BRANCH  19  20
ATOM     20  C   UNL     1       0.846   8.775  20.994  0.00  0.00    +0.000 A 
ATOM     21  C   UNL     1       0.504   9.075  22.323  0.00  0.00    +0.000 A 
ATOM     22  C   UNL     1      -0.301  10.180  22.622  0.00  0.00    +0.000 A 
ATOM     23  C   UNL     1      -0.773  11.014  21.594  0.00  0.00    +0.000 A 
ATOM     24  C   UNL     1      -0.508  10.655  20.269  0.00  0.00    +0.000 A 
ATOM     25  C   UNL     1       0.294   9.552  19.966  0.00  0.00    +0.000 A 
BRANCH  23  26
ATOM     26  C   UNL     1      -1.480  12.314  21.938  0.00  0.00    +0.000 C 
ATOM     27  C   UNL     1      -0.491  13.447  22.214  0.00  0.00    +0.000 C 
BRANCH  26  28
ATOM     28  N   UNL     1      -2.346  12.087  23.091  0.00  0.00    +0.000 N 
ATOM     29  C   UNL     1      -3.570  12.683  23.251  0.00  0.00    +0.000 C 
ATOM     30  C   UNL     1      -4.263  12.321  24.537  0.00  0.00    +0.000 C 
ATOM     31  O   UNL     1      -4.056  13.465  22.441  0.00  0.00    +0.000 OA
ATOM     32  H   UNL     1      -2.004  11.476  23.819  0.00  0.00    +0.000 HD
ENDBRANCH  26  28
ENDBRANCH  23  26
ENDBRANCH  19  20
ENDBRANCH   9  19
TORSDOF 9
ENDMDL
MODEL 6
REMARK VINA RESULT:      -7.0      2.345      2.778
REMARK  Name = 
REMARK  12 active torsions:
REMARK  status: ('A' for Active; 'I' for Inactive)
REMARK    1  A    between atoms: C_1  and  O_2
REMARK    2  A    between atoms: O_2  and  C_3
REMARK    3  A    between atoms: C_4  and  O_5
REMARK    4  A    between atoms: O_5  and  C_6
REMARK    5  A    between atoms: C_6  and  C_7
REMARK    6  A    between atoms: C_7  and  C_8
REMARK    7  A    between atoms: N_17  and  C_18
REMARK    8  A    between atoms: C_18  and  C_19
REMARK    9  A    between atoms: C_22  and  C_23
REMARK   10  A    between atoms: C_23  and  C_24
REMARK   11  A    between atoms: C_23  and  N_25
REMARK   12  A    between atoms: C_26  and  C_27
REMARK                            x       y       z     vdW  Elec       q    Type
REMARK                         _______ _______ _______ _____ _____    ______ ____
ROOT
ATOM      1  C   UNL     1       2.331   7.116  19.646  0.00  0.00    +0.000 A 
ATOM      2  C   UNL     1       2.640   7.154  18.270  0.00  0.00    +0.000 A 
ATOM      3  C   UNL     1       2.282   8.267  17.496  0.00  0.00    +0.000 A 
ATOM      4  C   UNL     1       1.650   9.365  18.091  0.00  0.00    +0.000 A 
ATOM      5  C   UNL     1       1.314   9.330  19.447  0.00  0.00    +0.000 A 
ATOM      6  C   UNL     1       1.628   8.185  20.220  0.00  0.00    +0.000 A 
ATOM      7  C   UNL     1       1.046   8.182  21.601  0.00  0.00    +0.000 C 
ATOM      8  C   UNL     1      -0.366   8.742  21.516  0.00  0.00    +0.000 C 
ATOM      9  N   UNL     1      -0.389  10.166  21.146  0.00  0.00    +0.000 NA
ATOM     10  C   UNL     1       0.646  10.509  20.133  0.00  0.00    +0.000 C 
ENDROOT
BRANCH   1  12
ATOM     11  C   UNL     1       1.553   4.982  20.405  0.00  0.00    +0.000 C 
ATOM     12  O   UNL     1       2.598   5.940  20.316  0.00  0.00    +0.000 OA
ENDBRANCH   1  12
BRANCH   2  13
ATOM     13  O   UNL     1       3.255   6.043  17.745  0.00  0.00    +0.000 OA
BRANCH  13  14
ATOM     14  C   UNL     1       4.679   6.072  17.679  0.00  0.00    +0.000 C 
BRANCH  14  15
ATOM     15  C   UNL     1       5.087   6.194  16.220  0.00  0.00    +0.000 C 
BRANCH  15  16
ATOM     16  C   UNL     1       5.681   4.907  15.697  0.00  0.00    +0.000 C 
ATOM     17  F   UNL     1       5.025   4.529  14.570  0.00  0.00    +0.000 F 
ATOM     18  F   UNL     1       6.969   5.138  15.328  0.00  0.00    +0.000 F 
ENDBRANCH  15  16
ENDBRANCH  14  15
ENDBRANCH  13  14
ENDBRANCH   2  13
BRANCH   9  19
ATOM     19  C   UNL     1      -0.237  11.037  22.326  0.00  0.00    +0.000 C 
BRANCH  19  20
ATOM     20  C   UNL     1      -1.370  12.020  22.554  0.00  0.00    +0.000 A 
ATOM     21  C   UNL     1      -2.420  11.716  23.436  0.00  0.00    +0.000 A 
ATOM     22  C   UNL     1      -3.389  12.675  23.752  0.00  0.00    +0.000 A 
ATOM     23  C   UNL     1      -3.321  13.963  23.195  0.00  0.00    +0.000 A 
ATOM     24  C   UNL     1      -2.329  14.229  22.246  0.00  0.00    +0.000 A 
ATOM     25  C   UNL     1      -1.361  13.274  21.926  0.00  0.00    +0.000 A 
BRANCH  23  26
ATOM     26  C   UNL     1      -4.258  15.053  23.689  0.00  0.00    +0.000 C 
ATOM     27  C   UNL     1      -3.651  15.848  24.845  0.00  0.00    +0.000 C 
BRANCH  26  28
ATOM     28  N   UNL     1      -5.522  14.440  24.086  0.00  0.00    +0.000 N 
ATOM     29  C   UNL     1      -6.597  14.306  23.246  0.00  0.00    +0.000 C 
ATOM     30  C   UNL     1      -7.801  13.673  23.891  0.00  0.00    +0.000 C 
ATOM     31  O   UNL     1      -6.602  14.688  22.081  0.00  0.00    +0.000 OA
ATOM     32  H   UNL     1      -5.609  14.124  25.041  0.00  0.00    +0.000 HD
ENDBRANCH  26  28
ENDBRANCH  23  26
ENDBRANCH  19  20
ENDBRANCH   9  19
TORSDOF 9
ENDMDL
MODEL 7
REMARK VINA RESULT:      -7.0      4.866     10.429
REMARK  Name = 
REMARK  12 active torsions:
REMARK  status: ('A' for Active; 'I' for Inactive)
REMARK    1  A    between atoms: C_1  and  O_2
REMARK    2  A    between atoms: O_2  and  C_3
REMARK    3  A    between atoms: C_4  and  O_5
REMARK    4  A    between atoms: O_5  and  C_6
REMARK    5  A    between atoms: C_6  and  C_7
REMARK    6  A    between atoms: C_7  and  C_8
REMARK    7  A    between atoms: N_17  and  C_18
REMARK    8  A    between atoms: C_18  and  C_19
REMARK    9  A    between atoms: C_22  and  C_23
REMARK   10  A    between atoms: C_23  and  C_24
REMARK   11  A    between atoms: C_23  and  N_25
REMARK   12  A    between atoms: C_26  and  C_27
REMARK                            x       y       z     vdW  Elec       q    Type
REMARK                         _______ _______ _______ _____ _____    ______ ____
ROOT
ATOM      1  C   UNL     1      -4.359  12.208  19.124  0.00  0.00    +0.000 A 
ATOM      2  C   UNL     1      -5.196  11.755  18.082  0.00  0.00    +0.000 A 
ATOM      3  C   UNL     1      -4.681  10.932  17.070  0.00  0.00    +0.000 A 
ATOM      4  C   UNL     1      -3.344  10.522  17.107  0.00  0.00    +0.000 A 
ATOM      5  C   UNL     1      -2.497  10.985  18.119  0.00  0.00    +0.000 A 
ATOM      6  C   UNL     1      -3.001  11.858  19.114  0.00  0.00    +0.000 A 
ATOM      7  C   UNL     1      -1.962  12.440  20.022  0.00  0.00    +0.000 C 
ATOM      8  C   UNL     1      -0.743  12.786  19.180  0.00  0.00    +0.000 C 
ATOM      9  N   UNL     1      -0.078  11.595  18.629  0.00  0.00    +0.000 NA
ATOM     10  C   UNL     1      -1.045  10.547  18.204  0.00  0.00    +0.000 C 
ENDROOT
BRANCH   1  12
ATOM     11  C   UNL     1      -5.323  12.626  21.277  0.00  0.00    +0.000 C 
ATOM     12  O   UNL     1      -4.899  13.115  20.012  0.00  0.00    +0.000 OA
ENDBRANCH   1  12
BRANCH   2  13
ATOM     13  O   UNL     1      -6.497  12.198  18.099  0.00  0.00    +0.000 OA
BRANCH  13  14
ATOM     14  C   UNL     1      -6.862  13.145  17.097  0.00  0.00    +0.000 C 
BRANCH  14  15
ATOM     15  C   UNL     1      -7.548  14.319  17.777  0.00  0.00    +0.000 C 
BRANCH  15  16
ATOM     16  C   UNL     1      -6.927  15.636  17.376  0.00  0.00    +0.000 C 
ATOM     17  F   UNL     1      -6.809  15.691  16.024  0.00  0.00    +0.000 F 
ATOM     18  F   UNL     1      -7.773  16.642  17.725  0.00  0.00    +0.000 F 
ENDBRANCH  15  16
ENDBRANCH  14  15
ENDBRANCH  13  14
ENDBRANCH   2  13
BRANCH   9  19
ATOM     19  C   UNL     1       0.888  11.021  19.585  0.00  0.00    +0.000 C 
BRANCH  19  20
ATOM     20  C   UNL     1       1.397   9.636  19.234  0.00  0.00    +0.000 A 
ATOM     21  C   UNL     1       1.971   9.377  17.978  0.00  0.00    +0.000 A 
ATOM     22  C   UNL     1       2.566   8.140  17.705  0.00  0.00    +0.000 A 
ATOM     23  C   UNL     1       2.606   7.138  18.689  0.00  0.00    +0.000 A 
ATOM     24  C   UNL     1       1.950   7.368  19.903  0.00  0.00    +0.000 A 
ATOM     25  C   UNL     1       1.353   8.601  20.179  0.00  0.00    +0.000 A 
BRANCH  23  26
ATOM     26  C   UNL     1       3.419   5.877  18.454  0.00  0.00    +0.000 C 
ATOM     27  C   UNL     1       4.379   6.027  17.273  0.00  0.00    +0.000 C 
BRANCH  26  28
ATOM     28  N   UNL     1       2.503   4.760  18.242  0.00  0.00    +0.000 N 
ATOM     29  C   UNL     1       2.688   3.513  18.780  0.00  0.00    +0.000 C 
ATOM     30  C   UNL     1       1.629   2.517  18.392  0.00  0.00    +0.000 C 
ATOM     31  O   UNL     1       3.641   3.215  19.492  0.00  0.00    +0.000 OA
ATOM     32  H   UNL     1       1.706   4.917  17.642  0.00  0.00    +0.000 HD
ENDBRANCH  26  28
ENDBRANCH  23  26
ENDBRANCH  19  20
ENDBRANCH   9  19
TORSDOF 9
ENDMDL
MODEL 8
REMARK VINA RESULT:      -6.9      1.428      2.491
REMARK  Name = 
REMARK  12 active torsions:
REMARK  status: ('A' for Active; 'I' for Inactive)
REMARK    1  A    between atoms: C_1  and  O_2
REMARK    2  A    between atoms: O_2  and  C_3
REMARK    3  A    between atoms: C_4  and  O_5
REMARK    4  A    between atoms: O_5  and  C_6
REMARK    5  A    between atoms: C_6  and  C_7
REMARK    6  A    between atoms: C_7  and  C_8
REMARK    7  A    between atoms: N_17  and  C_18
REMARK    8  A    between atoms: C_18  and  C_19
REMARK    9  A    between atoms: C_22  and  C_23
REMARK   10  A    between atoms: C_23  and  C_24
REMARK   11  A    between atoms: C_23  and  N_25
REMARK   12  A    between atoms: C_26  and  C_27
REMARK                            x       y       z     vdW  Elec       q    Type
REMARK                         _______ _______ _______ _____ _____    ______ ____
ROOT
ATOM      1  C   UNL     1       2.184   7.304  18.832  0.00  0.00    +0.000 A 
ATOM      2  C   UNL     1       2.226   6.546  20.021  0.00  0.00    +0.000 A 
ATOM      3  C   UNL     1       1.679   7.058  21.206  0.00  0.00    +0.000 A 
ATOM      4  C   UNL     1       1.053   8.310  21.209  0.00  0.00    +0.000 A 
ATOM      5  C   UNL     1       1.027   9.083  20.045  0.00  0.00    +0.000 A 
ATOM      6  C   UNL     1       1.625   8.590  18.859  0.00  0.00    +0.000 A 
ATOM      7  C   UNL     1       1.709   9.583  17.740  0.00  0.00    +0.000 C 
ATOM      8  C   UNL     1       2.081  10.932  18.336  0.00  0.00    +0.000 C 
ATOM      9  N   UNL     1       1.022  11.484  19.195  0.00  0.00    +0.000 NA
ATOM     10  C   UNL     1       0.340  10.438  20.004  0.00  0.00    +0.000 C 
ENDROOT
BRANCH   1  12
ATOM     11  C   UNL     1       4.226   7.123  17.593  0.00  0.00    +0.000 C 
ATOM     12  O   UNL     1       2.851   6.794  17.738  0.00  0.00    +0.000 OA
ENDBRANCH   1  12
BRANCH   2  13
ATOM     13  O   UNL     1       2.860   5.328  19.953  0.00  0.00    +0.000 OA
BRANCH  13  14
ATOM     14  C   UNL     1       2.322   4.283  20.759  0.00  0.00    +0.000 C 
BRANCH  14  15
ATOM     15  C   UNL     1       1.018   3.819  20.132  0.00  0.00    +0.000 C 
BRANCH  15  16
ATOM     16  C   UNL     1       1.244   3.190  18.777  0.00  0.00    +0.000 C 
ATOM     17  F   UNL     1       0.339   2.196  18.580  0.00  0.00    +0.000 F 
ATOM     18  F   UNL     1       1.000   4.121  17.816  0.00  0.00    +0.000 F 
ENDBRANCH  15  16
ENDBRANCH  14  15
ENDBRANCH  13  14
ENDBRANCH   2  13
BRANCH   9  19
ATOM     19  C   UNL     1       0.023  12.235  18.411  0.00  0.00    +0.000 C 
BRANCH  19  20
ATOM     20  C   UNL     1      -1.254  12.580  19.155  0.00  0.00    +0.000 A 
ATOM     21  C   UNL     1      -2.481  12.008  18.783  0.00  0.00    +0.000 A 
ATOM     22  C   UNL     1      -3.631  12.216  19.553  0.00  0.00    +0.000 A 
ATOM     23  C   UNL     1      -3.571  12.999  20.719  0.00  0.00    +0.000 A 
ATOM     24  C   UNL     1      -2.370  13.642  21.031  0.00  0.00    +0.000 A 
ATOM     25  C   UNL     1      -1.220  13.438  20.263  0.00  0.00    +0.000 A 
BRANCH  23  26
ATOM     26  C   UNL     1      -4.770  13.062  21.650  0.00  0.00    +0.000 C 
ATOM     27  C   UNL     1      -4.360  12.949  23.119  0.00  0.00    +0.000 C 
BRANCH  26  28
ATOM     28  N   UNL     1      -5.703  11.998  21.288  0.00  0.00    +0.000 N 
ATOM     29  C   UNL     1      -7.066  12.137  21.331  0.00  0.00    +0.000 C 
ATOM     30  C   UNL     1      -7.818  10.892  20.944  0.00  0.00    +0.000 C 
ATOM     31  O   UNL     1      -7.634  13.166  21.678  0.00  0.00    +0.000 OA
ATOM     32  H   UNL     1      -5.313  11.107  21.017  0.00  0.00    +0.000 HD
ENDBRANCH  26  28
ENDBRANCH  23  26
ENDBRANCH  19  20
ENDBRANCH   9  19
TORSDOF 9
ENDMDL
MODEL 9
REMARK VINA RESULT:      -6.9      2.969      3.942
REMARK  Name = 
REMARK  12 active torsions:
REMARK  status: ('A' for Active; 'I' for Inactive)
REMARK    1  A    between atoms: C_1  and  O_2
REMARK    2  A    between atoms: O_2  and  C_3
REMARK    3  A    between atoms: C_4  and  O_5
REMARK    4  A    between atoms: O_5  and  C_6
REMARK    5  A    between atoms: C_6  and  C_7
REMARK    6  A    between atoms: C_7  and  C_8
REMARK    7  A    between atoms: N_17  and  C_18
REMARK    8  A    between atoms: C_18  and  C_19
REMARK    9  A    between atoms: C_22  and  C_23
REMARK   10  A    between atoms: C_23  and  C_24
REMARK   11  A    between atoms: C_23  and  N_25
REMARK   12  A    between atoms: C_26  and  C_27
REMARK                            x       y       z     vdW  Elec       q    Type
REMARK                         _______ _______ _______ _____ _____    ______ ____
ROOT
ATOM      1  C   UNL     1       4.384   4.676  18.663  0.00  0.00    +0.000 A 
ATOM      2  C   UNL     1       4.849   4.990  17.368  0.00  0.00    +0.000 A 
ATOM      3  C   UNL     1       4.504   6.210  16.770  0.00  0.00    +0.000 A 
ATOM      4  C   UNL     1       3.728   7.143  17.467  0.00  0.00    +0.000 A 
ATOM      5  C   UNL     1       3.239   6.834  18.740  0.00  0.00    +0.000 A 
ATOM      6  C   UNL     1       3.543   5.581  19.326  0.00  0.00    +0.000 A 
ATOM      7  C   UNL     1       2.805   5.288  20.597  0.00  0.00    +0.000 C 
ATOM      8  C   UNL     1       1.376   5.783  20.435  0.00  0.00    +0.000 C 
ATOM      9  N   UNL     1       1.292   7.248  20.329  0.00  0.00    +0.000 NA
ATOM     10  C   UNL     1       2.410   7.828  19.537  0.00  0.00    +0.000 C 
ENDROOT
BRANCH   1  12
ATOM     11  C   UNL     1       3.713   2.386  18.856  0.00  0.00    +0.000 C 
ATOM     12  O   UNL     1       4.656   3.410  19.137  0.00  0.00    +0.000 OA
ENDBRANCH   1  12
BRANCH   2  13
ATOM     13  O   UNL     1       5.601   4.030  16.733  0.00  0.00    +0.000 OA
BRANCH  13  14
ATOM     14  C   UNL     1       5.295   3.784  15.362  0.00  0.00    +0.000 C 
BRANCH  14  15
ATOM     15  C   UNL     1       6.458   4.277  14.518  0.00  0.00    +0.000 C 
BRANCH  15  16
ATOM     16  C   UNL     1       6.432   3.680  13.130  0.00  0.00    +0.000 C 
ATOM     17  F   UNL     1       5.144   3.489  12.741  0.00  0.00    +0.000 F 
ATOM     18  F   UNL     1       6.963   4.578  12.257  0.00  0.00    +0.000 F 
ENDBRANCH  15  16
ENDBRANCH  14  15
ENDBRANCH  13  14
ENDBRANCH   2  13
BRANCH   9  19
ATOM     19  C   UNL     1       1.241   7.886  21.658  0.00  0.00    +0.000 C 
BRANCH  19  20
ATOM     20  C   UNL     1       0.290   9.063  21.772  0.00  0.00    +0.000 A 
ATOM     21  C   UNL     1      -0.256   9.429  23.014  0.00  0.00    +0.000 A 
ATOM     22  C   UNL     1      -1.019  10.595  23.143  0.00  0.00    +0.000 A 
ATOM     23  C   UNL     1      -1.246  11.422  22.030  0.00  0.00    +0.000 A 
ATOM     24  C   UNL     1      -0.781  11.003  20.780  0.00  0.00    +0.000 A 
ATOM     25  C   UNL     1      -0.019   9.839  20.646  0.00  0.00    +0.000 A 
BRANCH  23  26
ATOM     26  C   UNL     1      -1.907  12.778  22.216  0.00  0.00    +0.000 C 
ATOM     27  C   UNL     1      -1.411  13.489  23.476  0.00  0.00    +0.000 C 
BRANCH  26  28
ATOM     28  N   UNL     1      -3.355  12.592  22.260  0.00  0.00    +0.000 N 
ATOM     29  C   UNL     1      -4.169  12.709  21.163  0.00  0.00    +0.000 C 
ATOM     30  C   UNL     1      -5.630  12.506  21.463  0.00  0.00    +0.000 C 
ATOM     31  O   UNL     1      -3.761  12.982  20.039  0.00  0.00    +0.000 OA
ATOM     32  H   UNL     1      -3.773  12.392  23.157  0.00  0.00    +0.000 HD
ENDBRANCH  26  28
ENDBRANCH  23  26
ENDBRANCH  19  20
ENDBRANCH   9  19
TORSDOF 9
ENDMDL
