MODEL 1
REMARK VINA RESULT:      -7.9      0.000      0.000
REMARK  Name = 
REMARK  1 active torsions:
REMARK  status: ('A' for Active; 'I' for Inactive)
REMARK    1  A    between atoms: C_11  and  C_12
REMARK                            x       y       z     vdW  Elec       q    Type
REMARK                         _______ _______ _______ _____ _____    ______ ____
ROOT
ATOM      1  O   UNL     1       2.794   6.954  19.111  0.00  0.00    +0.000 OA
ATOM      2  C   UNL     1       3.024   5.932  18.489  0.00  0.00    +0.000 C 
ATOM      3  C   UNL     1       2.293   4.679  18.680  0.00  0.00    +0.000 A 
ATOM      4  C   UNL     1       1.297   4.400  19.597  0.00  0.00    +0.000 A 
ATOM      5  C   UNL     1       0.793   3.096  19.623  0.00  0.00    +0.000 A 
ATOM      6  C   UNL     1       1.289   2.112  18.744  0.00  0.00    +0.000 A 
ATOM      7  C   UNL     1       2.298   2.415  17.825  0.00  0.00    +0.000 A 
ATOM      8  C   UNL     1       2.783   3.709  17.816  0.00  0.00    +0.000 A 
ATOM      9  C   UNL     1       3.866   4.268  17.003  0.00  0.00    +0.000 C 
ATOM     10  O   UNL     1       4.467   3.640  16.150  0.00  0.00    +0.000 OA
ATOM     11  C   UNL     1       4.058   5.722  17.396  0.00  0.00    +0.000 C 
ENDROOT
BRANCH  11  12
ATOM     12  C   UNL     1       5.471   6.087  17.797  0.00  0.00    +0.000 A 
ATOM     13  C   UNL     1       6.073   7.189  17.157  0.00  0.00    +0.000 A 
ATOM     14  C   UNL     1       7.369   7.596  17.481  0.00  0.00    +0.000 A 
ATOM     15  C   UNL     1       8.094   6.910  18.449  0.00  0.00    +0.000 A 
ATOM     16  C   UNL     1       7.520   5.816  19.093  0.00  0.00    +0.000 A 
ATOM     17  C   UNL     1       6.222   5.404  18.773  0.00  0.00    +0.000 A 
ATOM     18 CL   UNL     1       5.619   4.035  19.637  0.00  0.00    +0.000 Cl
ENDBRANCH  11  12
TORSDOF 1
ENDMDL
MODEL 2
REMARK VINA RESULT:      -7.8      1.422      1.802
REMARK  Name = 
REMARK  1 active torsions:
REMARK  status: ('A' for Active; 'I' for Inactive)
REMARK    1  A    between atoms: C_11  and  C_12
REMARK                            x       y       z     vdW  Elec       q    Type
REMARK                         _______ _______ _______ _____ _____    ______ ____
ROOT
ATOM      1  O   UNL     1       2.697   6.857  19.467  0.00  0.00    +0.000 OA
ATOM      2  C   UNL     1       2.853   5.758  18.964  0.00  0.00    +0.000 C 
ATOM      3  C   UNL     1       2.167   4.549  19.420  0.00  0.00    +0.000 A 
ATOM      4  C   UNL     1       1.305   4.405  20.491  0.00  0.00    +0.000 A 
ATOM      5  C   UNL     1       0.823   3.120  20.760  0.00  0.00    +0.000 A 
ATOM      6  C   UNL     1       1.208   2.022  19.964  0.00  0.00    +0.000 A 
ATOM      7  C   UNL     1       2.081   2.189  18.886  0.00  0.00    +0.000 A 
ATOM      8  C   UNL     1       2.547   3.466  18.636  0.00  0.00    +0.000 A 
ATOM      9  C   UNL     1       3.506   3.902  17.618  0.00  0.00    +0.000 C 
ATOM     10  O   UNL     1       3.993   3.159  16.785  0.00  0.00    +0.000 OA
ATOM     11  C   UNL     1       3.733   5.394  17.781  0.00  0.00    +0.000 C 
ENDROOT
BRANCH  11  12
ATOM     12  C   UNL     1       5.183   5.798  17.936  0.00  0.00    +0.000 A 
ATOM     13  C   UNL     1       5.841   5.446  19.131  0.00  0.00    +0.000 A 
ATOM     14  C   UNL     1       7.183   5.771  19.343  0.00  0.00    +0.000 A 
ATOM     15  C   UNL     1       7.896   6.458  18.368  0.00  0.00    +0.000 A 
ATOM     16  C   UNL     1       7.266   6.820  17.179  0.00  0.00    +0.000 A 
ATOM     17  C   UNL     1       5.922   6.496  16.961  0.00  0.00    +0.000 A 
ATOM     18 CL   UNL     1       5.251   6.997  15.451  0.00  0.00    +0.000 Cl
ENDBRANCH  11  12
TORSDOF 1
ENDMDL
MODEL 3
REMARK VINA RESULT:      -7.7      2.313      4.719
REMARK  Name = 
REMARK  1 active torsions:
REMARK  status: ('A' for Active; 'I' for Inactive)
REMARK    1  A    between atoms: C_11  and  C_12
REMARK                            x       y       z     vdW  Elec       q    Type
REMARK                         _______ _______ _______ _____ _____    ______ ____
ROOT
ATOM      1  O   UNL     1       6.272   5.006  19.692  0.00  0.00    +0.000 OA
ATOM      2  C   UNL     1       5.570   4.647  18.763  0.00  0.00    +0.000 C 
ATOM      3  C   UNL     1       6.031   4.569  17.377  0.00  0.00    +0.000 A 
ATOM      4  C   UNL     1       7.263   4.926  16.861  0.00  0.00    +0.000 A 
ATOM      5  C   UNL     1       7.439   4.813  15.479  0.00  0.00    +0.000 A 
ATOM      6  C   UNL     1       6.396   4.351  14.653  0.00  0.00    +0.000 A 
ATOM      7  C   UNL     1       5.157   3.995  15.193  0.00  0.00    +0.000 A 
ATOM      8  C   UNL     1       5.002   4.115  16.561  0.00  0.00    +0.000 A 
ATOM      9  C   UNL     1       3.802   3.868  17.366  0.00  0.00    +0.000 C 
ATOM     10  O   UNL     1       2.754   3.449  16.909  0.00  0.00    +0.000 OA
ATOM     11  C   UNL     1       4.123   4.190  18.814  0.00  0.00    +0.000 C 
ENDROOT
BRANCH  11  12
ATOM     12  C   UNL     1       3.180   5.179  19.464  0.00  0.00    +0.000 A 
ATOM     13  C   UNL     1       3.127   6.484  18.934  0.00  0.00    +0.000 A 
ATOM     14  C   UNL     1       2.272   7.450  19.470  0.00  0.00    +0.000 A 
ATOM     15  C   UNL     1       1.453   7.135  20.548  0.00  0.00    +0.000 A 
ATOM     16  C   UNL     1       1.490   5.852  21.090  0.00  0.00    +0.000 A 
ATOM     17  C   UNL     1       2.344   4.881  20.557  0.00  0.00    +0.000 A 
ATOM     18 CL   UNL     1       2.302   3.329  21.314  0.00  0.00    +0.000 Cl
ENDBRANCH  11  12
TORSDOF 1
ENDMDL
MODEL 4
REMARK VINA RESULT:      -7.6      2.068      3.145
REMARK  Name = 
REMARK  1 active torsions:
REMARK  status: ('A' for Active; 'I' for Inactive)
REMARK    1  A    between atoms: C_11  and  C_12
REMARK                            x       y       z     vdW  Elec       q    Type
REMARK                         _______ _______ _______ _____ _____    ______ ____
ROOT
ATOM      1  O   UNL     1       5.514   2.872  19.669  0.00  0.00    +0.000 OA
ATOM      2  C   UNL     1       4.710   3.768  19.484  0.00  0.00    +0.000 C 
ATOM      3  C   UNL     1       3.316   3.716  19.926  0.00  0.00    +0.000 A 
ATOM      4  C   UNL     1       2.652   2.676  20.549  0.00  0.00    +0.000 A 
ATOM      5  C   UNL     1       1.291   2.850  20.818  0.00  0.00    +0.000 A 
ATOM      6  C   UNL     1       0.632   4.045  20.465  0.00  0.00    +0.000 A 
ATOM      7  C   UNL     1       1.321   5.085  19.835  0.00  0.00    +0.000 A 
ATOM      8  C   UNL     1       2.665   4.893  19.576  0.00  0.00    +0.000 A 
ATOM      9  C   UNL     1       3.595   5.788  18.883  0.00  0.00    +0.000 C 
ATOM     10  O   UNL     1       3.294   6.896  18.477  0.00  0.00    +0.000 OA
ATOM     11  C   UNL     1       4.948   5.105  18.805  0.00  0.00    +0.000 C 
ENDROOT
BRANCH  11  12
ATOM     12  C   UNL     1       5.523   5.001  17.408  0.00  0.00    +0.000 A 
ATOM     13  C   UNL     1       4.813   4.239  16.459  0.00  0.00    +0.000 A 
ATOM     14  C   UNL     1       5.270   4.107  15.146  0.00  0.00    +0.000 A 
ATOM     15  C   UNL     1       6.450   4.730  14.753  0.00  0.00    +0.000 A 
ATOM     16  C   UNL     1       7.171   5.485  15.675  0.00  0.00    +0.000 A 
ATOM     17  C   UNL     1       6.716   5.622  16.992  0.00  0.00    +0.000 A 
ATOM     18 CL   UNL     1       7.695   6.582  18.042  0.00  0.00    +0.000 Cl
ENDBRANCH  11  12
TORSDOF 1
ENDMDL
MODEL 5
REMARK VINA RESULT:      -7.6      1.873      2.342
REMARK  Name = 
REMARK  1 active torsions:
REMARK  status: ('A' for Active; 'I' for Inactive)
REMARK    1  A    between atoms: C_11  and  C_12
REMARK                            x       y       z     vdW  Elec       q    Type
REMARK                         _______ _______ _______ _____ _____    ______ ____
ROOT
ATOM      1  O   UNL     1       2.788   6.293  17.842  0.00  0.00    +0.000 OA
ATOM      2  C   UNL     1       2.911   5.099  18.054  0.00  0.00    +0.000 C 
ATOM      3  C   UNL     1       2.491   4.444  19.294  0.00  0.00    +0.000 A 
ATOM      4  C   UNL     1       1.961   5.023  20.431  0.00  0.00    +0.000 A 
ATOM      5  C   UNL     1       1.694   4.181  21.516  0.00  0.00    +0.000 A 
ATOM      6  C   UNL     1       1.959   2.799  21.441  0.00  0.00    +0.000 A 
ATOM      7  C   UNL     1       2.497   2.234  20.281  0.00  0.00    +0.000 A 
ATOM      8  C   UNL     1       2.754   3.082  19.221  0.00  0.00    +0.000 A 
ATOM      9  C   UNL     1       3.364   2.762  17.927  0.00  0.00    +0.000 C 
ATOM     10  O   UNL     1       3.684   1.637  17.589  0.00  0.00    +0.000 OA
ATOM     11  C   UNL     1       3.479   4.044  17.123  0.00  0.00    +0.000 C 
ENDROOT
BRANCH  11  12
ATOM     12  C   UNL     1       4.873   4.346  16.614  0.00  0.00    +0.000 A 
ATOM     13  C   UNL     1       5.096   4.276  15.224  0.00  0.00    +0.000 A 
ATOM     14  C   UNL     1       6.351   4.554  14.677  0.00  0.00    +0.000 A 
ATOM     15  C   UNL     1       7.410   4.905  15.505  0.00  0.00    +0.000 A 
ATOM     16  C   UNL     1       7.214   4.978  16.882  0.00  0.00    +0.000 A 
ATOM     17  C   UNL     1       5.959   4.701  17.436  0.00  0.00    +0.000 A 
ATOM     18 CL   UNL     1       5.839   4.824  19.155  0.00  0.00    +0.000 Cl
ENDBRANCH  11  12
TORSDOF 1
ENDMDL
MODEL 6
REMARK VINA RESULT:      -7.5      2.152      3.299
REMARK  Name = 
REMARK  1 active torsions:
REMARK  status: ('A' for Active; 'I' for Inactive)
REMARK    1  A    between atoms: C_11  and  C_12
REMARK                            x       y       z     vdW  Elec       q    Type
REMARK                         _______ _______ _______ _____ _____    ______ ____
ROOT
ATOM      1  O   UNL     1       3.987   1.507  17.818  0.00  0.00    +0.000 OA
ATOM      2  C   UNL     1       3.936   2.595  18.363  0.00  0.00    +0.000 C 
ATOM      3  C   UNL     1       2.771   3.082  19.103  0.00  0.00    +0.000 A 
ATOM      4  C   UNL     1       1.543   2.469  19.268  0.00  0.00    +0.000 A 
ATOM      5  C   UNL     1       0.563   3.172  19.975  0.00  0.00    +0.000 A 
ATOM      6  C   UNL     1       0.827   4.455  20.494  0.00  0.00    +0.000 A 
ATOM      7  C   UNL     1       2.075   5.058  20.315  0.00  0.00    +0.000 A 
ATOM      8  C   UNL     1       3.030   4.348  19.613  0.00  0.00    +0.000 A 
ATOM      9  C   UNL     1       4.383   4.768  19.239  0.00  0.00    +0.000 C 
ATOM     10  O   UNL     1       4.878   5.831  19.567  0.00  0.00    +0.000 OA
ATOM     11  C   UNL     1       5.022   3.654  18.429  0.00  0.00    +0.000 C 
ENDROOT
BRANCH  11  12
ATOM     12  C   UNL     1       5.558   4.083  17.079  0.00  0.00    +0.000 A 
ATOM     13  C   UNL     1       4.669   4.071  15.985  0.00  0.00    +0.000 A 
ATOM     14  C   UNL     1       5.084   4.466  14.711  0.00  0.00    +0.000 A 
ATOM     15  C   UNL     1       6.394   4.878  14.501  0.00  0.00    +0.000 A 
ATOM     16  C   UNL     1       7.291   4.895  15.567  0.00  0.00    +0.000 A 
ATOM     17  C   UNL     1       6.881   4.501  16.846  0.00  0.00    +0.000 A 
ATOM     18 CL   UNL     1       8.082   4.564  18.086  0.00  0.00    +0.000 Cl
ENDBRANCH  11  12
TORSDOF 1
ENDMDL
MODEL 7
REMARK VINA RESULT:      -7.4      2.327      3.066
REMARK  Name = 
REMARK  1 active torsions:
REMARK  status: ('A' for Active; 'I' for Inactive)
REMARK    1  A    between atoms: C_11  and  C_12
REMARK                            x       y       z     vdW  Elec       q    Type
REMARK                         _______ _______ _______ _____ _____    ______ ____
ROOT
ATOM      1  O   UNL     1       1.806   3.057  16.718  0.00  0.00    +0.000 OA
ATOM      2  C   UNL     1       2.564   3.100  17.671  0.00  0.00    +0.000 C 
ATOM      3  C   UNL     1       2.129   2.981  19.063  0.00  0.00    +0.000 A 
ATOM      4  C   UNL     1       0.841   2.868  19.552  0.00  0.00    +0.000 A 
ATOM      5  C   UNL     1       0.681   2.830  20.941  0.00  0.00    +0.000 A 
ATOM      6  C   UNL     1       1.797   2.905  21.799  0.00  0.00    +0.000 A 
ATOM      7  C   UNL     1       3.091   3.019  21.284  0.00  0.00    +0.000 A 
ATOM      8  C   UNL     1       3.228   3.056  19.910  0.00  0.00    +0.000 A 
ATOM      9  C   UNL     1       4.452   3.229  19.122  0.00  0.00    +0.000 C 
ATOM     10  O   UNL     1       5.565   3.309  19.608  0.00  0.00    +0.000 OA
ATOM     11  C   UNL     1       4.074   3.253  17.652  0.00  0.00    +0.000 C 
ENDROOT
BRANCH  11  12
ATOM     12  C   UNL     1       4.568   4.468  16.894  0.00  0.00    +0.000 A 
ATOM     13  C   UNL     1       5.320   4.251  15.722  0.00  0.00    +0.000 A 
ATOM     14  C   UNL     1       5.799   5.320  14.961  0.00  0.00    +0.000 A 
ATOM     15  C   UNL     1       5.540   6.627  15.354  0.00  0.00    +0.000 A 
ATOM     16  C   UNL     1       4.801   6.866  16.511  0.00  0.00    +0.000 A 
ATOM     17  C   UNL     1       4.318   5.799  17.277  0.00  0.00    +0.000 A 
ATOM     18 CL   UNL     1       3.415   6.219  18.688  0.00  0.00    +0.000 Cl
ENDBRANCH  11  12
TORSDOF 1
ENDMDL
MODEL 8
REMARK VINA RESULT:      -7.4      2.067      5.213
REMARK  Name = 
REMARK  1 active torsions:
REMARK  status: ('A' for Active; 'I' for Inactive)
REMARK    1  A    between atoms: C_11  and  C_12
REMARK                            x       y       z     vdW  Elec       q    Type
REMARK                         _______ _______ _______ _____ _____    ______ ____
ROOT
ATOM      1  O   UNL     1       3.006   6.941  17.565  0.00  0.00    +0.000 OA
ATOM      2  C   UNL     1       3.892   6.135  17.787  0.00  0.00    +0.000 C 
ATOM      3  C   UNL     1       4.967   5.825  16.843  0.00  0.00    +0.000 A 
ATOM      4  C   UNL     1       5.147   6.309  15.561  0.00  0.00    +0.000 A 
ATOM      5  C   UNL     1       6.230   5.809  14.831  0.00  0.00    +0.000 A 
ATOM      6  C   UNL     1       7.098   4.851  15.391  0.00  0.00    +0.000 A 
ATOM      7  C   UNL     1       6.898   4.374  16.690  0.00  0.00    +0.000 A 
ATOM      8  C   UNL     1       5.822   4.879  17.394  0.00  0.00    +0.000 A 
ATOM      9  C   UNL     1       5.358   4.511  18.734  0.00  0.00    +0.000 C 
ATOM     10  O   UNL     1       5.929   3.710  19.453  0.00  0.00    +0.000 OA
ATOM     11  C   UNL     1       4.105   5.310  19.044  0.00  0.00    +0.000 C 
ENDROOT
BRANCH  11  12
ATOM     12  C   UNL     1       2.910   4.477  19.453  0.00  0.00    +0.000 A 
ATOM     13  C   UNL     1       2.442   4.601  20.777  0.00  0.00    +0.000 A 
ATOM     14  C   UNL     1       1.337   3.877  21.227  0.00  0.00    +0.000 A 
ATOM     15  C   UNL     1       0.675   3.009  20.365  0.00  0.00    +0.000 A 
ATOM     16  C   UNL     1       1.121   2.867  19.053  0.00  0.00    +0.000 A 
ATOM     17  C   UNL     1       2.228   3.592  18.597  0.00  0.00    +0.000 A 
ATOM     18 CL   UNL     1       2.686   3.332  16.952  0.00  0.00    +0.000 Cl
ENDBRANCH  11  12
TORSDOF 1
ENDMDL
MODEL 9
REMARK VINA RESULT:      -7.3      2.356      4.927
REMARK  Name = 
REMARK  1 active torsions:
REMARK  status: ('A' for Active; 'I' for Inactive)
REMARK    1  A    between atoms: C_11  and  C_12
REMARK                            x       y       z     vdW  Elec       q    Type
REMARK                         _______ _______ _______ _____ _____    ______ ____
ROOT
ATOM      1  O   UNL     1       6.411   4.810  19.387  0.00  0.00    +0.000 OA
ATOM      2  C   UNL     1       5.688   4.493  18.459  0.00  0.00    +0.000 C 
ATOM      3  C   UNL     1       6.111   4.496  17.058  0.00  0.00    +0.000 A 
ATOM      4  C   UNL     1       7.324   4.898  16.530  0.00  0.00    +0.000 A 
ATOM      5  C   UNL     1       7.464   4.862  15.139  0.00  0.00    +0.000 A 
ATOM      6  C   UNL     1       6.404   4.432  14.317  0.00  0.00    +0.000 A 
ATOM      7  C   UNL     1       5.184   4.030  14.871  0.00  0.00    +0.000 A 
ATOM      8  C   UNL     1       5.065   4.074  16.247  0.00  0.00    +0.000 A 
ATOM      9  C   UNL     1       3.892   3.767  17.069  0.00  0.00    +0.000 C 
ATOM     10  O   UNL     1       2.836   3.361  16.617  0.00  0.00    +0.000 OA
ATOM     11  C   UNL     1       4.248   4.015  18.523  0.00  0.00    +0.000 C 
ENDROOT
BRANCH  11  12
ATOM     12  C   UNL     1       3.311   4.955  19.251  0.00  0.00    +0.000 A 
ATOM     13  C   UNL     1       2.578   4.441  20.340  0.00  0.00    +0.000 A 
ATOM     14  C   UNL     1       1.704   5.249  21.071  0.00  0.00    +0.000 A 
ATOM     15  C   UNL     1       1.540   6.586  20.729  0.00  0.00    +0.000 A 
ATOM     16  C   UNL     1       2.252   7.115  19.655  0.00  0.00    +0.000 A 
ATOM     17  C   UNL     1       3.130   6.311  18.920  0.00  0.00    +0.000 A 
ATOM     18 CL   UNL     1       3.956   7.079  17.611  0.00  0.00    +0.000 Cl
ENDBRANCH  11  12
TORSDOF 1
ENDMDL
