MODEL 1
REMARK VINA RESULT:      -9.4      0.000      0.000
REMARK  Name = 
REMARK  4 active torsions:
REMARK  status: ('A' for Active; 'I' for Inactive)
REMARK    1  A    between atoms: C_2  and  C_22
REMARK    2  A    between atoms: N_3  and  C_4
REMARK    3  A    between atoms: C_8  and  C_9
REMARK    4  A    between atoms: C_9  and  C_10
REMARK                            x       y       z     vdW  Elec       q    Type
REMARK                         _______ _______ _______ _____ _____    ______ ____
ROOT
ATOM      1  C   UNL     1       7.877   8.013  17.985  0.00  0.00    +0.000 A 
ATOM      2  C   UNL     1       8.390   7.053  18.849  0.00  0.00    +0.000 A 
ATOM      3  C   UNL     1       7.720   5.841  19.034  0.00  0.00    +0.000 A 
ATOM      4  C   UNL     1       6.550   5.574  18.332  0.00  0.00    +0.000 A 
ATOM      5  C   UNL     1       6.029   6.519  17.445  0.00  0.00    +0.000 A 
ATOM      6  C   UNL     1       6.678   7.761  17.307  0.00  0.00    +0.000 A 
ENDROOT
BRANCH   1   9
ATOM      7  O   UNL     1       9.005   9.927  19.922  0.00  0.00    +0.000 OA
ATOM      8  C   UNL     1       9.036  10.095  18.706  0.00  0.00    +0.000 C 
ATOM      9  N   UNL     1       8.524   9.246  17.743  0.00  0.00    +0.000 N 
ATOM     10  H   UNL     1       8.730   9.453  16.773  0.00  0.00    +0.000 HD
BRANCH   8  11
ATOM     11  C   UNL     1       9.709  11.320  18.214  0.00  0.00    +0.000 A 
ATOM     12  C   UNL     1      11.111  11.374  18.251  0.00  0.00    +0.000 A 
ATOM     13  C   UNL     1      11.780  12.497  17.761  0.00  0.00    +0.000 A 
ATOM     14  C   UNL     1      11.044  13.549  17.221  0.00  0.00    +0.000 A 
ATOM     15  F   UNL     1      11.688  14.621  16.740  0.00  0.00    +0.000 F 
ATOM     16  C   UNL     1       9.658  13.505  17.169  0.00  0.00    +0.000 A 
ATOM     17  C   UNL     1       8.997  12.391  17.668  0.00  0.00    +0.000 A 
ATOM     18  F   UNL     1       7.658  12.365  17.605  0.00  0.00    +0.000 F 
ENDBRANCH   8  11
ENDBRANCH   1   9
BRANCH   5  19
ATOM     19  C   UNL     1       4.795   6.203  16.625  0.00  0.00    +0.000 C 
BRANCH  19  20
ATOM     20  C   UNL     1       3.946   5.093  17.234  0.00  0.00    +0.000 A 
ATOM     21  N   UNL     1       4.083   3.907  16.716  0.00  0.00    +0.000 NA
ATOM     22  N   UNL     1       3.315   2.909  17.224  0.00  0.00    +0.000 N 
ATOM     23  C   UNL     1       2.381   3.039  18.216  0.00  0.00    +0.000 A 
ATOM     24  O   UNL     1       1.658   2.111  18.560  0.00  0.00    +0.000 OA
ATOM     25  C   UNL     1       2.308   4.371  18.863  0.00  0.00    +0.000 A 
ATOM     26  C   UNL     1       3.044   5.394  18.392  0.00  0.00    +0.000 A 
ATOM     27  C   UNL     1       2.990   6.767  19.004  0.00  0.00    +0.000 C 
ATOM     28  C   UNL     1       1.840   6.951  20.002  0.00  0.00    +0.000 C 
ATOM     29  C   UNL     1       1.690   5.729  20.898  0.00  0.00    +0.000 C 
ATOM     30  C   UNL     1       1.402   4.484  20.059  0.00  0.00    +0.000 C 
ATOM     31  H   UNL     1       3.378   2.008  16.763  0.00  0.00    +0.000 HD
ENDBRANCH  19  20
ENDBRANCH   5  19
TORSDOF 4
ENDMDL
MODEL 2
REMARK VINA RESULT:      -9.2      0.978      1.317
REMARK  Name = 
REMARK  4 active torsions:
REMARK  status: ('A' for Active; 'I' for Inactive)
REMARK    1  A    between atoms: C_2  and  C_22
REMARK    2  A    between atoms: N_3  and  C_4
REMARK    3  A    between atoms: C_8  and  C_9
REMARK    4  A    between atoms: C_9  and  C_10
REMARK                            x       y       z     vdW  Elec       q    Type
REMARK                         _______ _______ _______ _____ _____    ______ ____
ROOT
ATOM      1  C   UNL     1       7.924   8.232  17.981  0.00  0.00    +0.000 A 
ATOM      2  C   UNL     1       8.524   7.359  18.882  0.00  0.00    +0.000 A 
ATOM      3  C   UNL     1       8.016   6.070  19.058  0.00  0.00    +0.000 A 
ATOM      4  C   UNL     1       6.925   5.639  18.313  0.00  0.00    +0.000 A 
ATOM      5  C   UNL     1       6.320   6.496  17.389  0.00  0.00    +0.000 A 
ATOM      6  C   UNL     1       6.801   7.813  17.259  0.00  0.00    +0.000 A 
ENDROOT
BRANCH   1   9
ATOM      7  O   UNL     1       9.350  10.040  19.822  0.00  0.00    +0.000 OA
ATOM      8  C   UNL     1       9.078  10.331  18.661  0.00  0.00    +0.000 C 
ATOM      9  N   UNL     1       8.409   9.539  17.747  0.00  0.00    +0.000 N 
ATOM     10  H   UNL     1       8.362   9.861  16.787  0.00  0.00    +0.000 HD
BRANCH   8  11
ATOM     11  C   UNL     1       9.528  11.658  18.178  0.00  0.00    +0.000 A 
ATOM     12  C   UNL     1       8.592  12.705  18.130  0.00  0.00    +0.000 A 
ATOM     13  C   UNL     1       8.989  13.977  17.716  0.00  0.00    +0.000 A 
ATOM     14  C   UNL     1      10.320  14.200  17.371  0.00  0.00    +0.000 A 
ATOM     15  F   UNL     1      10.702  15.424  16.986  0.00  0.00    +0.000 F 
ATOM     16  C   UNL     1      11.257  13.177  17.422  0.00  0.00    +0.000 A 
ATOM     17  C   UNL     1      10.855  11.910  17.824  0.00  0.00    +0.000 A 
ATOM     18  F   UNL     1      11.775  10.936  17.871  0.00  0.00    +0.000 F 
ENDBRANCH   8  11
ENDBRANCH   1   9
BRANCH   5  19
ATOM     19  C   UNL     1       5.177   6.007  16.524  0.00  0.00    +0.000 C 
BRANCH  19  20
ATOM     20  C   UNL     1       4.380   4.882  17.173  0.00  0.00    +0.000 A 
ATOM     21  N   UNL     1       4.647   3.673  16.770  0.00  0.00    +0.000 NA
ATOM     22  N   UNL     1       3.928   2.658  17.315  0.00  0.00    +0.000 N 
ATOM     23  C   UNL     1       2.921   2.788  18.232  0.00  0.00    +0.000 A 
ATOM     24  O   UNL     1       2.253   1.833  18.611  0.00  0.00    +0.000 OA
ATOM     25  C   UNL     1       2.697   4.158  18.755  0.00  0.00    +0.000 A 
ATOM     26  C   UNL     1       3.379   5.198  18.243  0.00  0.00    +0.000 A 
ATOM     27  C   UNL     1       3.173   6.607  18.729  0.00  0.00    +0.000 C 
ATOM     28  C   UNL     1       1.947   6.772  19.635  0.00  0.00    +0.000 C 
ATOM     29  C   UNL     1       1.834   5.619  20.623  0.00  0.00    +0.000 C 
ATOM     30  C   UNL     1       1.705   4.289  19.879  0.00  0.00    +0.000 C 
ATOM     31  H   UNL     1       4.095   1.731  16.939  0.00  0.00    +0.000 HD
ENDBRANCH  19  20
ENDBRANCH   5  19
TORSDOF 4
ENDMDL
MODEL 3
REMARK VINA RESULT:      -9.0      4.280      7.674
REMARK  Name = 
REMARK  4 active torsions:
REMARK  status: ('A' for Active; 'I' for Inactive)
REMARK    1  A    between atoms: C_2  and  C_22
REMARK    2  A    between atoms: N_3  and  C_4
REMARK    3  A    between atoms: C_8  and  C_9
REMARK    4  A    between atoms: C_9  and  C_10
REMARK                            x       y       z     vdW  Elec       q    Type
REMARK                         _______ _______ _______ _____ _____    ______ ____
ROOT
ATOM      1  C   UNL     1       1.642   5.005  20.463  0.00  0.00    +0.000 A 
ATOM      2  C   UNL     1       0.794   3.903  20.486  0.00  0.00    +0.000 A 
ATOM      3  C   UNL     1       1.259   2.649  20.086  0.00  0.00    +0.000 A 
ATOM      4  C   UNL     1       2.581   2.485  19.690  0.00  0.00    +0.000 A 
ATOM      5  C   UNL     1       3.453   3.577  19.679  0.00  0.00    +0.000 A 
ATOM      6  C   UNL     1       2.963   4.850  20.027  0.00  0.00    +0.000 A 
ENDROOT
BRANCH   1   9
ATOM      7  O   UNL     1       2.273   7.627  19.272  0.00  0.00    +0.000 OA
ATOM      8  C   UNL     1       1.564   7.485  20.265  0.00  0.00    +0.000 C 
ATOM      9  N   UNL     1       1.231   6.292  20.878  0.00  0.00    +0.000 N 
ATOM     10  H   UNL     1       0.538   6.317  21.617  0.00  0.00    +0.000 HD
BRANCH   8  11
ATOM     11  C   UNL     1       0.985   8.714  20.858  0.00  0.00    +0.000 A 
ATOM     12  C   UNL     1       0.542   8.669  22.190  0.00  0.00    +0.000 A 
ATOM     13  C   UNL     1       0.026   9.817  22.792  0.00  0.00    +0.000 A 
ATOM     14  C   UNL     1      -0.027  11.006  22.068  0.00  0.00    +0.000 A 
ATOM     15  F   UNL     1      -0.510  12.110  22.652  0.00  0.00    +0.000 F 
ATOM     16  C   UNL     1       0.417  11.067  20.754  0.00  0.00    +0.000 A 
ATOM     17  C   UNL     1       0.919   9.919  20.155  0.00  0.00    +0.000 A 
ATOM     18  F   UNL     1       1.346   9.999  18.887  0.00  0.00    +0.000 F 
ENDBRANCH   8  11
ENDBRANCH   1   9
BRANCH   5  19
ATOM     19  C   UNL     1       4.912   3.389  19.317  0.00  0.00    +0.000 C 
BRANCH  19  20
ATOM     20  C   UNL     1       5.292   4.073  18.009  0.00  0.00    +0.000 A 
ATOM     21  N   UNL     1       4.667   3.671  16.940  0.00  0.00    +0.000 NA
ATOM     22  N   UNL     1       5.011   4.248  15.760  0.00  0.00    +0.000 N 
ATOM     23  C   UNL     1       5.982   5.195  15.581  0.00  0.00    +0.000 A 
ATOM     24  O   UNL     1       6.302   5.603  14.470  0.00  0.00    +0.000 OA
ATOM     25  C   UNL     1       6.615   5.713  16.818  0.00  0.00    +0.000 A 
ATOM     26  C   UNL     1       6.313   5.171  18.012  0.00  0.00    +0.000 A 
ATOM     27  C   UNL     1       6.941   5.650  19.291  0.00  0.00    +0.000 C 
ATOM     28  C   UNL     1       8.131   6.594  19.076  0.00  0.00    +0.000 C 
ATOM     29  C   UNL     1       7.846   7.595  17.965  0.00  0.00    +0.000 C 
ATOM     30  C   UNL     1       7.566   6.867  16.649  0.00  0.00    +0.000 C 
ATOM     31  H   UNL     1       4.570   3.875  14.927  0.00  0.00    +0.000 HD
ENDBRANCH  19  20
ENDBRANCH   5  19
TORSDOF 4
ENDMDL
MODEL 4
REMARK VINA RESULT:      -8.9      1.690      2.487
REMARK  Name = 
REMARK  4 active torsions:
REMARK  status: ('A' for Active; 'I' for Inactive)
REMARK    1  A    between atoms: C_2  and  C_22
REMARK    2  A    between atoms: N_3  and  C_4
REMARK    3  A    between atoms: C_8  and  C_9
REMARK    4  A    between atoms: C_9  and  C_10
REMARK                            x       y       z     vdW  Elec       q    Type
REMARK                         _______ _______ _______ _____ _____    ______ ____
ROOT
ATOM      1  C   UNL     1       7.877   8.386  17.971  0.00  0.00    +0.000 A 
ATOM      2  C   UNL     1       8.557   7.404  18.682  0.00  0.00    +0.000 A 
ATOM      3  C   UNL     1       7.985   6.143  18.866  0.00  0.00    +0.000 A 
ATOM      4  C   UNL     1       6.743   5.850  18.314  0.00  0.00    +0.000 A 
ATOM      5  C   UNL     1       6.053   6.818  17.580  0.00  0.00    +0.000 A 
ATOM      6  C   UNL     1       6.609   8.105  17.448  0.00  0.00    +0.000 A 
ENDROOT
BRANCH   1   9
ATOM      7  O   UNL     1       9.297  10.171  19.837  0.00  0.00    +0.000 OA
ATOM      8  C   UNL     1       9.079  10.452  18.662  0.00  0.00    +0.000 C 
ATOM      9  N   UNL     1       8.417   9.670  17.735  0.00  0.00    +0.000 N 
ATOM     10  H   UNL     1       8.418   9.978  16.770  0.00  0.00    +0.000 HD
BRANCH   8  11
ATOM     11  C   UNL     1       9.595  11.755  18.176  0.00  0.00    +0.000 A 
ATOM     12  C   UNL     1       8.723  12.856  18.163  0.00  0.00    +0.000 A 
ATOM     13  C   UNL     1       9.184  14.106  17.748  0.00  0.00    +0.000 A 
ATOM     14  C   UNL     1      10.516  14.252  17.367  0.00  0.00    +0.000 A 
ATOM     15  F   UNL     1      10.960  15.455  16.981  0.00  0.00    +0.000 F 
ATOM     16  C   UNL     1      11.391  13.174  17.384  0.00  0.00    +0.000 A 
ATOM     17  C   UNL     1      10.924  11.930  17.787  0.00  0.00    +0.000 A 
ATOM     18  F   UNL     1      11.786  10.902  17.802  0.00  0.00    +0.000 F 
ENDBRANCH   8  11
ENDBRANCH   1   9
BRANCH   5  19
ATOM     19  C   UNL     1       4.734   6.480  16.917  0.00  0.00    +0.000 C 
BRANCH  19  20
ATOM     20  C   UNL     1       3.657   6.064  17.913  0.00  0.00    +0.000 A 
ATOM     21  N   UNL     1       3.079   7.022  18.577  0.00  0.00    +0.000 NA
ATOM     22  N   UNL     1       2.136   6.671  19.490  0.00  0.00    +0.000 N 
ATOM     23  C   UNL     1       1.757   5.394  19.803  0.00  0.00    +0.000 A 
ATOM     24  O   UNL     1       0.965   5.149  20.706  0.00  0.00    +0.000 OA
ATOM     25  C   UNL     1       2.352   4.321  18.969  0.00  0.00    +0.000 A 
ATOM     26  C   UNL     1       3.294   4.617  18.056  0.00  0.00    +0.000 A 
ATOM     27  C   UNL     1       3.938   3.561  17.200  0.00  0.00    +0.000 C 
ATOM     28  C   UNL     1       3.632   2.129  17.654  0.00  0.00    +0.000 C 
ATOM     29  C   UNL     1       2.168   1.979  18.048  0.00  0.00    +0.000 C 
ATOM     30  C   UNL     1       1.823   2.930  19.195  0.00  0.00    +0.000 C 
ATOM     31  H   UNL     1       1.747   7.420  20.051  0.00  0.00    +0.000 HD
ENDBRANCH  19  20
ENDBRANCH   5  19
TORSDOF 4
ENDMDL
MODEL 5
REMARK VINA RESULT:      -8.8      6.454      9.492
REMARK  Name = 
REMARK  4 active torsions:
REMARK  status: ('A' for Active; 'I' for Inactive)
REMARK    1  A    between atoms: C_2  and  C_22
REMARK    2  A    between atoms: N_3  and  C_4
REMARK    3  A    between atoms: C_8  and  C_9
REMARK    4  A    between atoms: C_9  and  C_10
REMARK                            x       y       z     vdW  Elec       q    Type
REMARK                         _______ _______ _______ _____ _____    ______ ____
ROOT
ATOM      1  C   UNL     1       1.342   8.565  20.272  0.00  0.00    +0.000 A 
ATOM      2  C   UNL     1       0.918   8.283  21.566  0.00  0.00    +0.000 A 
ATOM      3  C   UNL     1       0.163   9.217  22.279  0.00  0.00    +0.000 A 
ATOM      4  C   UNL     1      -0.196  10.425  21.689  0.00  0.00    +0.000 A 
ATOM      5  C   UNL     1       0.205  10.717  20.383  0.00  0.00    +0.000 A 
ATOM      6  C   UNL     1       1.015   9.796  19.692  0.00  0.00    +0.000 A 
ENDROOT
BRANCH   1   9
ATOM      7  O   UNL     1       1.672   5.660  20.645  0.00  0.00    +0.000 OA
ATOM      8  C   UNL     1       2.194   6.290  19.730  0.00  0.00    +0.000 C 
ATOM      9  N   UNL     1       2.088   7.648  19.498  0.00  0.00    +0.000 N 
ATOM     10  H   UNL     1       2.474   8.012  18.634  0.00  0.00    +0.000 HD
BRANCH   8  11
ATOM     11  C   UNL     1       3.006   5.517  18.760  0.00  0.00    +0.000 A 
ATOM     12  C   UNL     1       4.384   5.777  18.684  0.00  0.00    +0.000 A 
ATOM     13  C   UNL     1       5.185   5.043  17.808  0.00  0.00    +0.000 A 
ATOM     14  C   UNL     1       4.609   4.043  17.030  0.00  0.00    +0.000 A 
ATOM     15  F   UNL     1       5.382   3.330  16.199  0.00  0.00    +0.000 F 
ATOM     16  C   UNL     1       3.250   3.768  17.102  0.00  0.00    +0.000 A 
ATOM     17  C   UNL     1       2.455   4.509  17.966  0.00  0.00    +0.000 A 
ATOM     18  F   UNL     1       1.146   4.226  18.025  0.00  0.00    +0.000 F 
ENDBRANCH   8  11
ENDBRANCH   1   9
BRANCH   5  19
ATOM     19  C   UNL     1      -0.243  11.999  19.713  0.00  0.00    +0.000 C 
BRANCH  19  20
ATOM     20  C   UNL     1      -1.759  12.111  19.599  0.00  0.00    +0.000 A 
ATOM     21  N   UNL     1      -2.361  12.802  20.523  0.00  0.00    +0.000 NA
ATOM     22  N   UNL     1      -3.715  12.892  20.456  0.00  0.00    +0.000 N 
ATOM     23  C   UNL     1      -4.515  12.293  19.521  0.00  0.00    +0.000 A 
ATOM     24  O   UNL     1      -5.738  12.342  19.578  0.00  0.00    +0.000 OA
ATOM     25  C   UNL     1      -3.809  11.593  18.420  0.00  0.00    +0.000 A 
ATOM     26  C   UNL     1      -2.469  11.473  18.444  0.00  0.00    +0.000 A 
ATOM     27  C   UNL     1      -1.711  10.757  17.360  0.00  0.00    +0.000 C 
ATOM     28  C   UNL     1      -2.608   9.960  16.405  0.00  0.00    +0.000 C 
ATOM     29  C   UNL     1      -3.862  10.745  16.044  0.00  0.00    +0.000 C 
ATOM     30  C   UNL     1      -4.669  11.070  17.302  0.00  0.00    +0.000 C 
ATOM     31  H   UNL     1      -4.176  13.370  21.222  0.00  0.00    +0.000 HD
ENDBRANCH  19  20
ENDBRANCH   5  19
TORSDOF 4
ENDMDL
MODEL 6
REMARK VINA RESULT:      -8.8      6.486      9.246
REMARK  Name = 
REMARK  4 active torsions:
REMARK  status: ('A' for Active; 'I' for Inactive)
REMARK    1  A    between atoms: C_2  and  C_22
REMARK    2  A    between atoms: N_3  and  C_4
REMARK    3  A    between atoms: C_8  and  C_9
REMARK    4  A    between atoms: C_9  and  C_10
REMARK                            x       y       z     vdW  Elec       q    Type
REMARK                         _______ _______ _______ _____ _____    ______ ____
ROOT
ATOM      1  C   UNL     1       1.298   8.594  20.336  0.00  0.00    +0.000 A 
ATOM      2  C   UNL     1       0.845   8.356  21.628  0.00  0.00    +0.000 A 
ATOM      3  C   UNL     1       0.069   9.310  22.290  0.00  0.00    +0.000 A 
ATOM      4  C   UNL     1      -0.281  10.494  21.650  0.00  0.00    +0.000 A 
ATOM      5  C   UNL     1       0.149  10.743  20.344  0.00  0.00    +0.000 A 
ATOM      6  C   UNL     1       0.980   9.802  19.704  0.00  0.00    +0.000 A 
ENDROOT
BRANCH   1   9
ATOM      7  O   UNL     1       2.095   8.643  17.498  0.00  0.00    +0.000 OA
ATOM      8  C   UNL     1       2.408   7.745  18.275  0.00  0.00    +0.000 C 
ATOM      9  N   UNL     1       2.066   7.654  19.611  0.00  0.00    +0.000 N 
ATOM     10  H   UNL     1       2.496   6.919  20.160  0.00  0.00    +0.000 HD
BRANCH   8  11
ATOM     11  C   UNL     1       3.255   6.655  17.736  0.00  0.00    +0.000 A 
ATOM     12  C   UNL     1       4.500   6.989  17.178  0.00  0.00    +0.000 A 
ATOM     13  C   UNL     1       5.340   5.985  16.696  0.00  0.00    +0.000 A 
ATOM     14  C   UNL     1       4.940   4.654  16.789  0.00  0.00    +0.000 A 
ATOM     15  F   UNL     1       5.753   3.691  16.337  0.00  0.00    +0.000 F 
ATOM     16  C   UNL     1       3.717   4.309  17.348  0.00  0.00    +0.000 A 
ATOM     17  C   UNL     1       2.879   5.312  17.816  0.00  0.00    +0.000 A 
ATOM     18  F   UNL     1       1.704   4.959  18.356  0.00  0.00    +0.000 F 
ENDBRANCH   8  11
ENDBRANCH   1   9
BRANCH   5  19
ATOM     19  C   UNL     1      -0.289  11.998  19.619  0.00  0.00    +0.000 C 
BRANCH  19  20
ATOM     20  C   UNL     1      -1.804  12.122  19.509  0.00  0.00    +0.000 A 
ATOM     21  N   UNL     1      -2.397  12.830  20.425  0.00  0.00    +0.000 NA
ATOM     22  N   UNL     1      -3.750  12.930  20.362  0.00  0.00    +0.000 N 
ATOM     23  C   UNL     1      -4.558  12.326  19.437  0.00  0.00    +0.000 A 
ATOM     24  O   UNL     1      -5.782  12.387  19.498  0.00  0.00    +0.000 OA
ATOM     25  C   UNL     1      -3.862  11.607  18.343  0.00  0.00    +0.000 A 
ATOM     26  C   UNL     1      -2.524  11.474  18.364  0.00  0.00    +0.000 A 
ATOM     27  C   UNL     1      -1.776  10.738  17.287  0.00  0.00    +0.000 C 
ATOM     28  C   UNL     1      -2.683   9.937  16.345  0.00  0.00    +0.000 C 
ATOM     29  C   UNL     1      -3.931  10.729  15.978  0.00  0.00    +0.000 C 
ATOM     30  C   UNL     1      -4.731  11.077  17.234  0.00  0.00    +0.000 C 
ATOM     31  H   UNL     1      -4.205  13.423  21.123  0.00  0.00    +0.000 HD
ENDBRANCH  19  20
ENDBRANCH   5  19
TORSDOF 4
ENDMDL
MODEL 7
REMARK VINA RESULT:      -8.8      6.397      8.865
REMARK  Name = 
REMARK  4 active torsions:
REMARK  status: ('A' for Active; 'I' for Inactive)
REMARK    1  A    between atoms: C_2  and  C_22
REMARK    2  A    between atoms: N_3  and  C_4
REMARK    3  A    between atoms: C_8  and  C_9
REMARK    4  A    between atoms: C_9  and  C_10
REMARK                            x       y       z     vdW  Elec       q    Type
REMARK                         _______ _______ _______ _____ _____    ______ ____
ROOT
ATOM      1  C   UNL     1       0.388   9.780  19.802  0.00  0.00    +0.000 A 
ATOM      2  C   UNL     1       0.681  10.062  18.472  0.00  0.00    +0.000 A 
ATOM      3  C   UNL     1       1.588   9.267  17.767  0.00  0.00    +0.000 A 
ATOM      4  C   UNL     1       2.183   8.171  18.380  0.00  0.00    +0.000 A 
ATOM      5  C   UNL     1       1.887   7.861  19.710  0.00  0.00    +0.000 A 
ATOM      6  C   UNL     1       1.017   8.700  20.433  0.00  0.00    +0.000 A 
ENDROOT
BRANCH   1   9
ATOM      7  O   UNL     1       0.857  12.180  21.448  0.00  0.00    +0.000 OA
ATOM      8  C   UNL     1      -0.246  11.660  21.305  0.00  0.00    +0.000 C 
ATOM      9  N   UNL     1      -0.538  10.536  20.556  0.00  0.00    +0.000 N 
ATOM     10  H   UNL     1      -1.513  10.291  20.430  0.00  0.00    +0.000 HD
BRANCH   8  11
ATOM     11  C   UNL     1      -1.390  12.313  21.985  0.00  0.00    +0.000 A 
ATOM     12  C   UNL     1      -1.863  13.534  21.476  0.00  0.00    +0.000 A 
ATOM     13  C   UNL     1      -2.961  14.158  22.068  0.00  0.00    +0.000 A 
ATOM     14  C   UNL     1      -3.591  13.551  23.151  0.00  0.00    +0.000 A 
ATOM     15  F   UNL     1      -4.654  14.145  23.711  0.00  0.00    +0.000 F 
ATOM     16  C   UNL     1      -3.141  12.339  23.659  0.00  0.00    +0.000 A 
ATOM     17  C   UNL     1      -2.041  11.728  23.073  0.00  0.00    +0.000 A 
ATOM     18  F   UNL     1      -1.624  10.556  23.574  0.00  0.00    +0.000 F 
ENDBRANCH   8  11
ENDBRANCH   1   9
BRANCH   5  19
ATOM     19  C   UNL     1       2.477   6.627  20.360  0.00  0.00    +0.000 C 
BRANCH  19  20
ATOM     20  C   UNL     1       3.143   5.690  19.359  0.00  0.00    +0.000 A 
ATOM     21  N   UNL     1       4.285   6.078  18.870  0.00  0.00    +0.000 NA
ATOM     22  N   UNL     1       4.883   5.271  17.956  0.00  0.00    +0.000 N 
ATOM     23  C   UNL     1       4.378   4.095  17.471  0.00  0.00    +0.000 A 
ATOM     24  O   UNL     1       4.931   3.465  16.576  0.00  0.00    +0.000 OA
ATOM     25  C   UNL     1       3.128   3.617  18.109  0.00  0.00    +0.000 A 
ATOM     26  C   UNL     1       2.495   4.382  19.016  0.00  0.00    +0.000 A 
ATOM     27  C   UNL     1       1.215   3.948  19.676  0.00  0.00    +0.000 C 
ATOM     28  C   UNL     1       0.575   2.716  19.026  0.00  0.00    +0.000 C 
ATOM     29  C   UNL     1       1.625   1.670  18.676  0.00  0.00    +0.000 C 
ATOM     30  C   UNL     1       2.650   2.249  17.700  0.00  0.00    +0.000 C 
ATOM     31  H   UNL     1       5.734   5.620  17.530  0.00  0.00    +0.000 HD
ENDBRANCH  19  20
ENDBRANCH   5  19
TORSDOF 4
ENDMDL
MODEL 8
REMARK VINA RESULT:      -8.8      6.405      9.602
REMARK  Name = 
REMARK  4 active torsions:
REMARK  status: ('A' for Active; 'I' for Inactive)
REMARK    1  A    between atoms: C_2  and  C_22
REMARK    2  A    between atoms: N_3  and  C_4
REMARK    3  A    between atoms: C_8  and  C_9
REMARK    4  A    between atoms: C_9  and  C_10
REMARK                            x       y       z     vdW  Elec       q    Type
REMARK                         _______ _______ _______ _____ _____    ______ ____
ROOT
ATOM      1  C   UNL     1       1.281   8.367  20.569  0.00  0.00    +0.000 A 
ATOM      2  C   UNL     1       1.136   8.619  21.929  0.00  0.00    +0.000 A 
ATOM      3  C   UNL     1       0.688   9.866  22.370  0.00  0.00    +0.000 A 
ATOM      4  C   UNL     1       0.355  10.856  21.453  0.00  0.00    +0.000 A 
ATOM      5  C   UNL     1       0.476  10.615  20.082  0.00  0.00    +0.000 A 
ATOM      6  C   UNL     1       0.983   9.376  19.645  0.00  0.00    +0.000 A 
ENDROOT
BRANCH   1   9
ATOM      7  O   UNL     1       3.015   7.794  18.255  0.00  0.00    +0.000 OA
ATOM      8  C   UNL     1       2.530   6.923  18.972  0.00  0.00    +0.000 C 
ATOM      9  N   UNL     1       1.708   7.118  20.066  0.00  0.00    +0.000 N 
ATOM     10  H   UNL     1       1.482   6.312  20.637  0.00  0.00    +0.000 HD
BRANCH   8  11
ATOM     11  C   UNL     1       2.876   5.518  18.650  0.00  0.00    +0.000 A 
ATOM     12  C   UNL     1       1.965   4.762  17.895  0.00  0.00    +0.000 A 
ATOM     13  C   UNL     1       2.275   3.448  17.541  0.00  0.00    +0.000 A 
ATOM     14  C   UNL     1       3.498   2.905  17.927  0.00  0.00    +0.000 A 
ATOM     15  F   UNL     1       3.799   1.648  17.575  0.00  0.00    +0.000 F 
ATOM     16  C   UNL     1       4.412   3.645  18.664  0.00  0.00    +0.000 A 
ATOM     17  C   UNL     1       4.095   4.948  19.024  0.00  0.00    +0.000 A 
ATOM     18  F   UNL     1       4.992   5.648  19.733  0.00  0.00    +0.000 F 
ENDBRANCH   8  11
ENDBRANCH   1   9
BRANCH   5  19
ATOM     19  C   UNL     1       0.046  11.665  19.078  0.00  0.00    +0.000 C 
BRANCH  19  20
ATOM     20  C   UNL     1      -1.455  11.926  19.097  0.00  0.00    +0.000 A 
ATOM     21  N   UNL     1      -1.895  12.722  20.028  0.00  0.00    +0.000 NA
ATOM     22  N   UNL     1      -3.234  12.946  20.080  0.00  0.00    +0.000 N 
ATOM     23  C   UNL     1      -4.175  12.385  19.261  0.00  0.00    +0.000 A 
ATOM     24  O   UNL     1      -5.377  12.562  19.427  0.00  0.00    +0.000 OA
ATOM     25  C   UNL     1      -3.651  11.560  18.145  0.00  0.00    +0.000 A 
ATOM     26  C   UNL     1      -2.333  11.304  18.053  0.00  0.00    +0.000 A 
ATOM     27  C   UNL     1      -1.757  10.459  16.951  0.00  0.00    +0.000 C 
ATOM     28  C   UNL     1      -2.816   9.709  16.133  0.00  0.00    +0.000 C 
ATOM     29  C   UNL     1      -4.017  10.599  15.841  0.00  0.00    +0.000 C 
ATOM     30  C   UNL     1      -4.662  11.071  17.144  0.00  0.00    +0.000 C 
ATOM     31  H   UNL     1      -3.570  13.508  20.854  0.00  0.00    +0.000 HD
ENDBRANCH  19  20
ENDBRANCH   5  19
TORSDOF 4
ENDMDL
MODEL 9
REMARK VINA RESULT:      -8.7      6.480      8.927
REMARK  Name = 
REMARK  4 active torsions:
REMARK  status: ('A' for Active; 'I' for Inactive)
REMARK    1  A    between atoms: C_2  and  C_22
REMARK    2  A    between atoms: N_3  and  C_4
REMARK    3  A    between atoms: C_8  and  C_9
REMARK    4  A    between atoms: C_9  and  C_10
REMARK                            x       y       z     vdW  Elec       q    Type
REMARK                         _______ _______ _______ _____ _____    ______ ____
ROOT
ATOM      1  C   UNL     1       0.328   9.809  19.809  0.00  0.00    +0.000 A 
ATOM      2  C   UNL     1       0.600  10.003  18.459  0.00  0.00    +0.000 A 
ATOM      3  C   UNL     1       1.524   9.187  17.803  0.00  0.00    +0.000 A 
ATOM      4  C   UNL     1       2.158   8.155  18.486  0.00  0.00    +0.000 A 
ATOM      5  C   UNL     1       1.883   7.933  19.838  0.00  0.00    +0.000 A 
ATOM      6  C   UNL     1       0.994   8.795  20.508  0.00  0.00    +0.000 A 
ENDROOT
BRANCH   1   9
ATOM      7  O   UNL     1       0.788  12.138  21.556  0.00  0.00    +0.000 OA
ATOM      8  C   UNL     1      -0.325  11.677  21.318  0.00  0.00    +0.000 C 
ATOM      9  N   UNL     1      -0.614  10.589  20.517  0.00  0.00    +0.000 N 
ATOM     10  H   UNL     1      -1.587  10.396  20.314  0.00  0.00    +0.000 HD
BRANCH   8  11
ATOM     11  C   UNL     1      -1.483  12.367  21.934  0.00  0.00    +0.000 A 
ATOM     12  C   UNL     1      -1.930  13.568  21.358  0.00  0.00    +0.000 A 
ATOM     13  C   UNL     1      -3.041  14.225  21.889  0.00  0.00    +0.000 A 
ATOM     14  C   UNL     1      -3.708  13.671  22.979  0.00  0.00    +0.000 A 
ATOM     15  F   UNL     1      -4.781  14.296  23.479  0.00  0.00    +0.000 F 
ATOM     16  C   UNL     1      -3.283  12.480  23.552  0.00  0.00    +0.000 A 
ATOM     17  C   UNL     1      -2.170  11.835  23.027  0.00  0.00    +0.000 A 
ATOM     18  F   UNL     1      -1.778  10.684  23.592  0.00  0.00    +0.000 F 
ENDBRANCH   8  11
ENDBRANCH   1   9
BRANCH   5  19
ATOM     19  C   UNL     1       2.516   6.766  20.567  0.00  0.00    +0.000 C 
BRANCH  19  20
ATOM     20  C   UNL     1       2.098   5.414  20.000  0.00  0.00    +0.000 A 
ATOM     21  N   UNL     1       0.962   4.935  20.418  0.00  0.00    +0.000 NA
ATOM     22  N   UNL     1       0.584   3.718  19.947  0.00  0.00    +0.000 N 
ATOM     23  C   UNL     1       1.305   2.928  19.094  0.00  0.00    +0.000 A 
ATOM     24  O   UNL     1       0.942   1.798  18.784  0.00  0.00    +0.000 OA
ATOM     25  C   UNL     1       2.546   3.529  18.550  0.00  0.00    +0.000 A 
ATOM     26  C   UNL     1       2.967   4.729  18.989  0.00  0.00    +0.000 A 
ATOM     27  C   UNL     1       4.228   5.371  18.480  0.00  0.00    +0.000 C 
ATOM     28  C   UNL     1       5.107   4.427  17.650  0.00  0.00    +0.000 C 
ATOM     29  C   UNL     1       4.265   3.583  16.702  0.00  0.00    +0.000 C 
ATOM     30  C   UNL     1       3.262   2.738  17.488  0.00  0.00    +0.000 C 
ATOM     31  H   UNL     1      -0.265   3.325  20.337  0.00  0.00    +0.000 HD
ENDBRANCH  19  20
ENDBRANCH   5  19
TORSDOF 4
ENDMDL
