MODEL 1
REMARK VINA RESULT:      -8.6      0.000      0.000
REMARK  Name = 
REMARK  4 active torsions:
REMARK  status: ('A' for Active; 'I' for Inactive)
REMARK    1  A    between atoms: C_2  and  C_18
REMARK    2  A    between atoms: N_3  and  C_4
REMARK    3  A    between atoms: C_4  and  C_5
REMARK    4  A    between atoms: C_5  and  C_6
REMARK                            x       y       z     vdW  Elec       q    Type
REMARK                         _______ _______ _______ _____ _____    ______ ____
ROOT
ATOM      1  O   UNL     1       5.324   2.908  19.585  0.00  0.00    +0.000 OA
ATOM      2  C   UNL     1       5.452   4.094  19.280  0.00  0.00    +0.000 C 
ATOM      3  N   UNL     1       4.551   5.065  19.683  0.00  0.00    +0.000 N 
ATOM      4  H   UNL     1       4.632   5.971  19.238  0.00  0.00    +0.000 HD
ENDROOT
BRANCH   2   5
ATOM      5  C   UNL     1       6.674   4.606  18.509  0.00  0.00    +0.000 C 
ATOM      6  C   UNL     1       7.203   5.889  19.200  0.00  0.00    +0.000 C 
ATOM      7  C   UNL     1       8.118   6.734  18.293  0.00  0.00    +0.000 C 
ATOM      8  C   UNL     1       7.391   7.200  17.019  0.00  0.00    +0.000 C 
ATOM      9  C   UNL     1       6.688   6.038  16.415  0.00  0.00    +0.000 A 
ATOM     10  N   UNL     1       6.234   5.972  15.124  0.00  0.00    +0.000 N 
ATOM     11  C   UNL     1       5.624   4.757  14.933  0.00  0.00    +0.000 A 
ATOM     12  C   UNL     1       5.711   4.037  16.103  0.00  0.00    +0.000 A 
ATOM     13  C   UNL     1       6.361   4.861  17.056  0.00  0.00    +0.000 A 
ATOM     14  H   UNL     1       6.324   6.696  14.423  0.00  0.00    +0.000 HD
ENDBRANCH   2   5
BRANCH   3  15
ATOM     15  C   UNL     1       3.303   4.699  20.320  0.00  0.00    +0.000 C 
BRANCH  15  16
ATOM     16  C   UNL     1       2.016   5.059  19.514  0.00  0.00    +0.000 C 
ATOM     17  C   UNL     1       2.142   4.409  18.095  0.00  0.00    +0.000 C 
ATOM     18  C   UNL     1       2.042   2.882  18.078  0.00  0.00    +0.000 C 
ATOM     19  C   UNL     1       0.774   2.392  18.756  0.00  0.00    +0.000 C 
ATOM     20  C   UNL     1       0.655   2.943  20.168  0.00  0.00    +0.000 C 
ATOM     21  C   UNL     1       0.737   4.465  20.186  0.00  0.00    +0.000 C 
BRANCH  16  22
ATOM     22  C   UNL     1       1.890   6.600  19.381  0.00  0.00    +0.000 A 
ATOM     23  C   UNL     1       2.137   7.273  18.171  0.00  0.00    +0.000 A 
ATOM     24  C   UNL     1       1.928   8.648  18.064  0.00  0.00    +0.000 A 
ATOM     25  C   UNL     1       1.501   9.329  19.185  0.00  0.00    +0.000 A 
ATOM     26 CL   UNL     1       1.180  11.012  19.133  0.00  0.00    +0.000 Cl
ATOM     27  N   UNL     1       1.293   8.753  20.382  0.00  0.00    +0.000 NA
ATOM     28  C   UNL     1       1.498   7.416  20.449  0.00  0.00    +0.000 A 
ENDBRANCH  16  22
ENDBRANCH  15  16
ENDBRANCH   3  15
TORSDOF 4
ENDMDL
MODEL 2
REMARK VINA RESULT:      -8.1      3.154      6.682
REMARK  Name = 
REMARK  4 active torsions:
REMARK  status: ('A' for Active; 'I' for Inactive)
REMARK    1  A    between atoms: C_2  and  C_18
REMARK    2  A    between atoms: N_3  and  C_4
REMARK    3  A    between atoms: C_4  and  C_5
REMARK    4  A    between atoms: C_5  and  C_6
REMARK                            x       y       z     vdW  Elec       q    Type
REMARK                         _______ _______ _______ _____ _____    ______ ____
ROOT
ATOM      1  O   UNL     1       2.422   7.217  17.891  0.00  0.00    +0.000 OA
ATOM      2  C   UNL     1       2.893   6.145  18.271  0.00  0.00    +0.000 C 
ATOM      3  N   UNL     1       4.230   5.823  18.108  0.00  0.00    +0.000 N 
ATOM      4  H   UNL     1       4.489   4.859  18.280  0.00  0.00    +0.000 HD
ENDROOT
BRANCH   2   5
ATOM      5  C   UNL     1       2.057   5.118  19.043  0.00  0.00    +0.000 C 
ATOM      6  C   UNL     1       2.325   5.289  20.561  0.00  0.00    +0.000 C 
ATOM      7  C   UNL     1       1.911   4.060  21.393  0.00  0.00    +0.000 C 
ATOM      8  C   UNL     1       2.671   2.794  20.962  0.00  0.00    +0.000 C 
ATOM      9  C   UNL     1       2.620   2.684  19.480  0.00  0.00    +0.000 A 
ATOM     10  N   UNL     1       2.870   1.543  18.762  0.00  0.00    +0.000 N 
ATOM     11  C   UNL     1       2.746   1.829  17.425  0.00  0.00    +0.000 A 
ATOM     12  C   UNL     1       2.392   3.153  17.293  0.00  0.00    +0.000 A 
ATOM     13  C   UNL     1       2.340   3.706  18.597  0.00  0.00    +0.000 A 
ATOM     14  H   UNL     1       3.114   0.639  19.146  0.00  0.00    +0.000 HD
ENDBRANCH   2   5
BRANCH   3  15
ATOM     15  C   UNL     1       5.100   6.655  17.302  0.00  0.00    +0.000 C 
BRANCH  15  16
ATOM     16  C   UNL     1       6.460   6.002  16.902  0.00  0.00    +0.000 C 
ATOM     17  C   UNL     1       7.517   7.149  16.762  0.00  0.00    +0.000 C 
ATOM     18  C   UNL     1       7.924   7.812  18.079  0.00  0.00    +0.000 C 
ATOM     19  C   UNL     1       8.404   6.792  19.099  0.00  0.00    +0.000 C 
ATOM     20  C   UNL     1       7.367   5.703  19.320  0.00  0.00    +0.000 C 
ATOM     21  C   UNL     1       6.973   5.028  18.010  0.00  0.00    +0.000 C 
BRANCH  16  22
ATOM     22  C   UNL     1       6.308   5.253  15.552  0.00  0.00    +0.000 A 
ATOM     23  C   UNL     1       7.293   5.303  14.550  0.00  0.00    +0.000 A 
ATOM     24  C   UNL     1       7.165   4.545  13.385  0.00  0.00    +0.000 A 
ATOM     25  C   UNL     1       6.033   3.771  13.236  0.00  0.00    +0.000 A 
ATOM     26 CL   UNL     1       5.813   2.778  11.856  0.00  0.00    +0.000 Cl
ATOM     27  N   UNL     1       5.035   3.716  14.133  0.00  0.00    +0.000 NA
ATOM     28  C   UNL     1       5.194   4.458  15.256  0.00  0.00    +0.000 A 
ENDBRANCH  16  22
ENDBRANCH  15  16
ENDBRANCH   3  15
TORSDOF 4
ENDMDL
MODEL 3
REMARK VINA RESULT:      -7.8      0.809      1.281
REMARK  Name = 
REMARK  4 active torsions:
REMARK  status: ('A' for Active; 'I' for Inactive)
REMARK    1  A    between atoms: C_2  and  C_18
REMARK    2  A    between atoms: N_3  and  C_4
REMARK    3  A    between atoms: C_4  and  C_5
REMARK    4  A    between atoms: C_5  and  C_6
REMARK                            x       y       z     vdW  Elec       q    Type
REMARK                         _______ _______ _______ _____ _____    ______ ____
ROOT
ATOM      1  O   UNL     1       5.270   2.914  19.622  0.00  0.00    +0.000 OA
ATOM      2  C   UNL     1       5.361   3.899  18.888  0.00  0.00    +0.000 C 
ATOM      3  N   UNL     1       4.251   4.597  18.441  0.00  0.00    +0.000 N 
ATOM      4  H   UNL     1       4.407   5.272  17.702  0.00  0.00    +0.000 HD
ENDROOT
BRANCH   2   5
ATOM      5  C   UNL     1       6.717   4.491  18.489  0.00  0.00    +0.000 C 
ATOM      6  C   UNL     1       6.951   5.799  19.289  0.00  0.00    +0.000 C 
ATOM      7  C   UNL     1       8.032   6.705  18.669  0.00  0.00    +0.000 C 
ATOM      8  C   UNL     1       7.668   7.135  17.237  0.00  0.00    +0.000 C 
ATOM      9  C   UNL     1       7.236   5.937  16.471  0.00  0.00    +0.000 A 
ATOM     10  N   UNL     1       7.170   5.854  15.104  0.00  0.00    +0.000 N 
ATOM     11  C   UNL     1       6.713   4.605  14.761  0.00  0.00    +0.000 A 
ATOM     12  C   UNL     1       6.509   3.883  15.915  0.00  0.00    +0.000 A 
ATOM     13  C   UNL     1       6.813   4.737  17.004  0.00  0.00    +0.000 A 
ATOM     14  H   UNL     1       7.410   6.588  14.451  0.00  0.00    +0.000 HD
ENDBRANCH   2   5
BRANCH   3  15
ATOM     15  C   UNL     1       2.915   4.080  18.656  0.00  0.00    +0.000 C 
BRANCH  15  16
ATOM     16  C   UNL     1       2.094   4.803  19.769  0.00  0.00    +0.000 C 
ATOM     17  C   UNL     1       0.658   4.181  19.784  0.00  0.00    +0.000 C 
ATOM     18  C   UNL     1       0.586   2.743  20.302  0.00  0.00    +0.000 C 
ATOM     19  C   UNL     1       1.221   2.606  21.676  0.00  0.00    +0.000 C 
ATOM     20  C   UNL     1       2.647   3.130  21.680  0.00  0.00    +0.000 C 
ATOM     21  C   UNL     1       2.719   4.570  21.181  0.00  0.00    +0.000 C 
BRANCH  16  22
ATOM     22  C   UNL     1       2.011   6.321  19.459  0.00  0.00    +0.000 A 
ATOM     23  C   UNL     1       2.251   6.841  18.175  0.00  0.00    +0.000 A 
ATOM     24  C   UNL     1       2.079   8.201  17.911  0.00  0.00    +0.000 A 
ATOM     25  C   UNL     1       1.696   9.020  18.952  0.00  0.00    +0.000 A 
ATOM     26 CL   UNL     1       1.422  10.695  18.709  0.00  0.00    +0.000 Cl
ATOM     27  N   UNL     1       1.496   8.594  20.211  0.00  0.00    +0.000 NA
ATOM     28  C   UNL     1       1.664   7.268  20.431  0.00  0.00    +0.000 A 
ENDBRANCH  16  22
ENDBRANCH  15  16
ENDBRANCH   3  15
TORSDOF 4
ENDMDL
MODEL 4
REMARK VINA RESULT:      -7.6      2.581      5.701
REMARK  Name = 
REMARK  4 active torsions:
REMARK  status: ('A' for Active; 'I' for Inactive)
REMARK    1  A    between atoms: C_2  and  C_18
REMARK    2  A    between atoms: N_3  and  C_4
REMARK    3  A    between atoms: C_4  and  C_5
REMARK    4  A    between atoms: C_5  and  C_6
REMARK                            x       y       z     vdW  Elec       q    Type
REMARK                         _______ _______ _______ _____ _____    ______ ____
ROOT
ATOM      1  O   UNL     1       0.549   6.109  20.714  0.00  0.00    +0.000 OA
ATOM      2  C   UNL     1       1.561   6.811  20.702  0.00  0.00    +0.000 C 
ATOM      3  N   UNL     1       2.812   6.302  20.394  0.00  0.00    +0.000 N 
ATOM      4  H   UNL     1       3.605   6.902  20.586  0.00  0.00    +0.000 HD
ENDROOT
BRANCH   2   5
ATOM      5  C   UNL     1       1.502   8.324  20.934  0.00  0.00    +0.000 C 
ATOM      6  C   UNL     1       0.306   8.645  21.866  0.00  0.00    +0.000 C 
ATOM      7  C   UNL     1      -0.128  10.122  21.813  0.00  0.00    +0.000 C 
ATOM      8  C   UNL     1      -0.562  10.541  20.397  0.00  0.00    +0.000 C 
ATOM      9  C   UNL     1       0.461  10.077  19.424  0.00  0.00    +0.000 A 
ATOM     10  N   UNL     1       0.607  10.547  18.144  0.00  0.00    +0.000 N 
ATOM     11  C   UNL     1       1.641   9.872  17.543  0.00  0.00    +0.000 A 
ATOM     12  C   UNL     1       2.170   8.984  18.452  0.00  0.00    +0.000 A 
ATOM     13  C   UNL     1       1.403   9.092  19.639  0.00  0.00    +0.000 A 
ATOM     14  H   UNL     1       0.046  11.266  17.707  0.00  0.00    +0.000 HD
ENDBRANCH   2   5
BRANCH   3  15
ATOM     15  C   UNL     1       3.020   4.875  20.263  0.00  0.00    +0.000 C 
BRANCH  15  16
ATOM     16  C   UNL     1       3.525   4.403  18.864  0.00  0.00    +0.000 C 
ATOM     17  C   UNL     1       4.002   2.918  19.004  0.00  0.00    +0.000 C 
ATOM     18  C   UNL     1       2.881   1.902  19.232  0.00  0.00    +0.000 C 
ATOM     19  C   UNL     1       1.806   1.998  18.162  0.00  0.00    +0.000 C 
ATOM     20  C   UNL     1       1.263   3.413  18.050  0.00  0.00    +0.000 C 
ATOM     21  C   UNL     1       2.377   4.425  17.806  0.00  0.00    +0.000 C 
BRANCH  16  22
ATOM     22  C   UNL     1       4.706   5.297  18.400  0.00  0.00    +0.000 A 
ATOM     23  C   UNL     1       4.597   6.180  17.312  0.00  0.00    +0.000 A 
ATOM     24  C   UNL     1       5.649   7.035  16.978  0.00  0.00    +0.000 A 
ATOM     25  C   UNL     1       6.803   6.966  17.729  0.00  0.00    +0.000 A 
ATOM     26 CL   UNL     1       8.129   8.006  17.416  0.00  0.00    +0.000 Cl
ATOM     27  N   UNL     1       6.987   6.112  18.751  0.00  0.00    +0.000 NA
ATOM     28  C   UNL     1       5.944   5.302  19.053  0.00  0.00    +0.000 A 
ENDBRANCH  16  22
ENDBRANCH  15  16
ENDBRANCH   3  15
TORSDOF 4
ENDMDL
MODEL 5
REMARK VINA RESULT:      -7.4      2.753      6.421
REMARK  Name = 
REMARK  4 active torsions:
REMARK  status: ('A' for Active; 'I' for Inactive)
REMARK    1  A    between atoms: C_2  and  C_18
REMARK    2  A    between atoms: N_3  and  C_4
REMARK    3  A    between atoms: C_4  and  C_5
REMARK    4  A    between atoms: C_5  and  C_6
REMARK                            x       y       z     vdW  Elec       q    Type
REMARK                         _______ _______ _______ _____ _____    ______ ____
ROOT
ATOM      1  O   UNL     1       2.120   6.606  20.598  0.00  0.00    +0.000 OA
ATOM      2  C   UNL     1       2.278   7.149  19.505  0.00  0.00    +0.000 C 
ATOM      3  N   UNL     1       3.211   6.703  18.583  0.00  0.00    +0.000 N 
ATOM      4  H   UNL     1       3.399   7.313  17.797  0.00  0.00    +0.000 HD
ENDROOT
BRANCH   2   5
ATOM      5  C   UNL     1       1.387   8.304  19.035  0.00  0.00    +0.000 C 
ATOM      6  C   UNL     1       2.183   9.179  18.033  0.00  0.00    +0.000 C 
ATOM      7  C   UNL     1       1.582  10.584  17.841  0.00  0.00    +0.000 C 
ATOM      8  C   UNL     1       1.537  11.374  19.161  0.00  0.00    +0.000 C 
ATOM      9  C   UNL     1       0.962  10.506  20.221  0.00  0.00    +0.000 A 
ATOM     10  N   UNL     1       0.449  10.947  21.414  0.00  0.00    +0.000 N 
ATOM     11  C   UNL     1       0.029   9.861  22.141  0.00  0.00    +0.000 A 
ATOM     12  C   UNL     1       0.254   8.724  21.398  0.00  0.00    +0.000 A 
ATOM     13  C   UNL     1       0.875   9.129  20.189  0.00  0.00    +0.000 A 
ATOM     14  H   UNL     1       0.393  11.910  21.717  0.00  0.00    +0.000 HD
ENDBRANCH   2   5
BRANCH   3  15
ATOM     15  C   UNL     1       4.186   5.694  18.945  0.00  0.00    +0.000 C 
BRANCH  15  16
ATOM     16  C   UNL     1       4.168   4.407  18.062  0.00  0.00    +0.000 C 
ATOM     17  C   UNL     1       4.610   3.204  18.961  0.00  0.00    +0.000 C 
ATOM     18  C   UNL     1       3.597   2.798  20.034  0.00  0.00    +0.000 C 
ATOM     19  C   UNL     1       2.227   2.519  19.439  0.00  0.00    +0.000 C 
ATOM     20  C   UNL     1       1.730   3.698  18.620  0.00  0.00    +0.000 C 
ATOM     21  C   UNL     1       2.730   4.094  17.539  0.00  0.00    +0.000 C 
BRANCH  16  22
ATOM     22  C   UNL     1       5.152   4.569  16.873  0.00  0.00    +0.000 A 
ATOM     23  C   UNL     1       4.985   3.879  15.660  0.00  0.00    +0.000 A 
ATOM     24  C   UNL     1       5.837   4.117  14.580  0.00  0.00    +0.000 A 
ATOM     25  C   UNL     1       6.861   5.026  14.750  0.00  0.00    +0.000 A 
ATOM     26 CL   UNL     1       7.929   5.409  13.465  0.00  0.00    +0.000 Cl
ATOM     27  N   UNL     1       7.102   5.682  15.897  0.00  0.00    +0.000 NA
ATOM     28  C   UNL     1       6.252   5.434  16.923  0.00  0.00    +0.000 A 
ENDBRANCH  16  22
ENDBRANCH  15  16
ENDBRANCH   3  15
TORSDOF 4
ENDMDL
MODEL 6
REMARK VINA RESULT:      -7.4      3.166      6.950
REMARK  Name = 
REMARK  4 active torsions:
REMARK  status: ('A' for Active; 'I' for Inactive)
REMARK    1  A    between atoms: C_2  and  C_18
REMARK    2  A    between atoms: N_3  and  C_4
REMARK    3  A    between atoms: C_4  and  C_5
REMARK    4  A    between atoms: C_5  and  C_6
REMARK                            x       y       z     vdW  Elec       q    Type
REMARK                         _______ _______ _______ _____ _____    ______ ____
ROOT
ATOM      1  O   UNL     1       1.079   9.093  17.915  0.00  0.00    +0.000 OA
ATOM      2  C   UNL     1       1.540   8.668  18.974  0.00  0.00    +0.000 C 
ATOM      3  N   UNL     1       2.206   7.456  19.059  0.00  0.00    +0.000 N 
ATOM      4  H   UNL     1       2.387   7.102  19.990  0.00  0.00    +0.000 HD
ENDROOT
BRANCH   2   5
ATOM      5  C   UNL     1       1.500   9.490  20.266  0.00  0.00    +0.000 C 
ATOM      6  C   UNL     1       1.234   8.539  21.461  0.00  0.00    +0.000 C 
ATOM      7  C   UNL     1       0.731   9.270  22.720  0.00  0.00    +0.000 C 
ATOM      8  C   UNL     1      -0.590  10.015  22.461  0.00  0.00    +0.000 C 
ATOM      9  C   UNL     1      -0.463  10.796  21.203  0.00  0.00    +0.000 A 
ATOM     10  N   UNL     1      -1.275  11.836  20.831  0.00  0.00    +0.000 N 
ATOM     11  C   UNL     1      -0.866  12.298  19.605  0.00  0.00    +0.000 A 
ATOM     12  C   UNL     1       0.228  11.563  19.205  0.00  0.00    +0.000 A 
ATOM     13  C   UNL     1       0.468  10.589  20.206  0.00  0.00    +0.000 A 
ATOM     14  H   UNL     1      -2.054  12.202  21.363  0.00  0.00    +0.000 HD
ENDBRANCH   2   5
BRANCH   3  15
ATOM     15  C   UNL     1       2.217   6.536  17.939  0.00  0.00    +0.000 C 
BRANCH  15  16
ATOM     16  C   UNL     1       3.016   5.216  18.172  0.00  0.00    +0.000 C 
ATOM     17  C   UNL     1       3.562   5.240  19.640  0.00  0.00    +0.000 C 
ATOM     18  C   UNL     1       2.493   5.092  20.724  0.00  0.00    +0.000 C 
ATOM     19  C   UNL     1       1.642   3.850  20.512  0.00  0.00    +0.000 C 
ATOM     20  C   UNL     1       1.032   3.831  19.121  0.00  0.00    +0.000 C 
ATOM     21  C   UNL     1       2.097   3.962  18.037  0.00  0.00    +0.000 C 
BRANCH  16  22
ATOM     22  C   UNL     1       4.197   5.132  17.169  0.00  0.00    +0.000 A 
ATOM     23  C   UNL     1       4.746   3.905  16.757  0.00  0.00    +0.000 A 
ATOM     24  C   UNL     1       5.747   3.862  15.785  0.00  0.00    +0.000 A 
ATOM     25  C   UNL     1       6.199   5.057  15.266  0.00  0.00    +0.000 A 
ATOM     26 CL   UNL     1       7.398   5.095  14.040  0.00  0.00    +0.000 Cl
ATOM     27  N   UNL     1       5.750   6.263  15.652  0.00  0.00    +0.000 NA
ATOM     28  C   UNL     1       4.773   6.269  16.590  0.00  0.00    +0.000 A 
ENDBRANCH  16  22
ENDBRANCH  15  16
ENDBRANCH   3  15
TORSDOF 4
ENDMDL
MODEL 7
REMARK VINA RESULT:      -7.3      2.879      6.861
REMARK  Name = 
REMARK  4 active torsions:
REMARK  status: ('A' for Active; 'I' for Inactive)
REMARK    1  A    between atoms: C_2  and  C_18
REMARK    2  A    between atoms: N_3  and  C_4
REMARK    3  A    between atoms: C_4  and  C_5
REMARK    4  A    between atoms: C_5  and  C_6
REMARK                            x       y       z     vdW  Elec       q    Type
REMARK                         _______ _______ _______ _____ _____    ______ ____
ROOT
ATOM      1  O   UNL     1       2.677   9.735  17.623  0.00  0.00    +0.000 OA
ATOM      2  C   UNL     1       2.034   8.764  18.023  0.00  0.00    +0.000 C 
ATOM      3  N   UNL     1       2.557   7.481  18.032  0.00  0.00    +0.000 N 
ATOM      4  H   UNL     1       1.903   6.727  18.202  0.00  0.00    +0.000 HD
ENDROOT
BRANCH   2   5
ATOM      5  C   UNL     1       0.637   8.912  18.635  0.00  0.00    +0.000 C 
ATOM      6  C   UNL     1      -0.114  10.054  17.904  0.00  0.00    +0.000 C 
ATOM      7  C   UNL     1      -1.320  10.594  18.697  0.00  0.00    +0.000 C 
ATOM      8  C   UNL     1      -0.899  11.162  20.064  0.00  0.00    +0.000 C 
ATOM      9  C   UNL     1      -0.001  10.186  20.734  0.00  0.00    +0.000 A 
ATOM     10  N   UNL     1       0.292  10.170  22.073  0.00  0.00    +0.000 N 
ATOM     11  C   UNL     1       1.166   9.140  22.321  0.00  0.00    +0.000 A 
ATOM     12  C   UNL     1       1.411   8.482  21.137  0.00  0.00    +0.000 A 
ATOM     13  C   UNL     1       0.693   9.163  20.122  0.00  0.00    +0.000 A 
ATOM     14  H   UNL     1      -0.065  10.812  22.769  0.00  0.00    +0.000 HD
ENDBRANCH   2   5
BRANCH   3  15
ATOM     15  C   UNL     1       3.819   7.190  17.383  0.00  0.00    +0.000 C 
BRANCH  15  16
ATOM     16  C   UNL     1       4.411   5.778  17.685  0.00  0.00    +0.000 C 
ATOM     17  C   UNL     1       4.547   5.016  16.324  0.00  0.00    +0.000 C 
ATOM     18  C   UNL     1       5.631   5.558  15.390  0.00  0.00    +0.000 C 
ATOM     19  C   UNL     1       6.984   5.629  16.077  0.00  0.00    +0.000 C 
ATOM     20  C   UNL     1       6.908   6.429  17.367  0.00  0.00    +0.000 C 
ATOM     21  C   UNL     1       5.840   5.880  18.307  0.00  0.00    +0.000 C 
BRANCH  16  22
ATOM     22  C   UNL     1       3.462   5.001  18.635  0.00  0.00    +0.000 A 
ATOM     23  C   UNL     1       2.579   4.010  18.170  0.00  0.00    +0.000 A 
ATOM     24  C   UNL     1       1.805   3.268  19.063  0.00  0.00    +0.000 A 
ATOM     25  C   UNL     1       1.911   3.556  20.408  0.00  0.00    +0.000 A 
ATOM     26 CL   UNL     1       1.027   2.667  21.578  0.00  0.00    +0.000 Cl
ATOM     27  N   UNL     1       2.699   4.521  20.911  0.00  0.00    +0.000 NA
ATOM     28  C   UNL     1       3.443   5.217  20.018  0.00  0.00    +0.000 A 
ENDBRANCH  16  22
ENDBRANCH  15  16
ENDBRANCH   3  15
TORSDOF 4
ENDMDL
MODEL 8
REMARK VINA RESULT:      -7.2      2.869      6.483
REMARK  Name = 
REMARK  4 active torsions:
REMARK  status: ('A' for Active; 'I' for Inactive)
REMARK    1  A    between atoms: C_2  and  C_18
REMARK    2  A    between atoms: N_3  and  C_4
REMARK    3  A    between atoms: C_4  and  C_5
REMARK    4  A    between atoms: C_5  and  C_6
REMARK                            x       y       z     vdW  Elec       q    Type
REMARK                         _______ _______ _______ _____ _____    ______ ____
ROOT
ATOM      1  O   UNL     1       3.420   8.223  17.881  0.00  0.00    +0.000 OA
ATOM      2  C   UNL     1       2.568   7.664  18.571  0.00  0.00    +0.000 C 
ATOM      3  N   UNL     1       2.824   6.488  19.256  0.00  0.00    +0.000 N 
ATOM      4  H   UNL     1       2.023   6.005  19.645  0.00  0.00    +0.000 HD
ENDROOT
BRANCH   2   5
ATOM      5  C   UNL     1       1.184   8.277  18.807  0.00  0.00    +0.000 C 
ATOM      6  C   UNL     1       0.924   9.363  17.731  0.00  0.00    +0.000 C 
ATOM      7  C   UNL     1      -0.202  10.342  18.115  0.00  0.00    +0.000 C 
ATOM      8  C   UNL     1       0.114  11.095  19.420  0.00  0.00    +0.000 C 
ATOM      9  C   UNL     1       0.568  10.116  20.441  0.00  0.00    +0.000 A 
ATOM     10  N   UNL     1       0.604  10.342  21.793  0.00  0.00    +0.000 N 
ATOM     11  C   UNL     1       1.095   9.221  22.414  0.00  0.00    +0.000 A 
ATOM     12  C   UNL     1       1.351   8.267  21.455  0.00  0.00    +0.000 A 
ATOM     13  C   UNL     1       1.044   8.845  20.197  0.00  0.00    +0.000 A 
ATOM     14  H   UNL     1       0.323  11.194  22.262  0.00  0.00    +0.000 HD
ENDBRANCH   2   5
BRANCH   3  15
ATOM     15  C   UNL     1       4.052   5.752  19.032  0.00  0.00    +0.000 C 
BRANCH  15  16
ATOM     16  C   UNL     1       3.918   4.503  18.106  0.00  0.00    +0.000 C 
ATOM     17  C   UNL     1       4.275   3.237  18.956  0.00  0.00    +0.000 C 
ATOM     18  C   UNL     1       3.248   2.875  20.031  0.00  0.00    +0.000 C 
ATOM     19  C   UNL     1       1.851   2.727  19.451  0.00  0.00    +0.000 C 
ATOM     20  C   UNL     1       1.439   3.971  18.682  0.00  0.00    +0.000 C 
ATOM     21  C   UNL     1       2.452   4.324  17.598  0.00  0.00    +0.000 C 
BRANCH  16  22
ATOM     22  C   UNL     1       4.894   4.629  16.907  0.00  0.00    +0.000 A 
ATOM     23  C   UNL     1       5.300   3.517  16.148  0.00  0.00    +0.000 A 
ATOM     24  C   UNL     1       6.108   3.678  15.022  0.00  0.00    +0.000 A 
ATOM     25  C   UNL     1       6.516   4.954  14.694  0.00  0.00    +0.000 A 
ATOM     26 CL   UNL     1       7.476   5.248  13.304  0.00  0.00    +0.000 Cl
ATOM     27  N   UNL     1       6.202   6.051  15.403  0.00  0.00    +0.000 NA
ATOM     28  C   UNL     1       5.411   5.860  16.486  0.00  0.00    +0.000 A 
ENDBRANCH  16  22
ENDBRANCH  15  16
ENDBRANCH   3  15
TORSDOF 4
ENDMDL
MODEL 9
REMARK VINA RESULT:      -7.2      2.655      6.493
REMARK  Name = 
REMARK  4 active torsions:
REMARK  status: ('A' for Active; 'I' for Inactive)
REMARK    1  A    between atoms: C_2  and  C_18
REMARK    2  A    between atoms: N_3  and  C_4
REMARK    3  A    between atoms: C_4  and  C_5
REMARK    4  A    between atoms: C_5  and  C_6
REMARK                            x       y       z     vdW  Elec       q    Type
REMARK                         _______ _______ _______ _____ _____    ______ ____
ROOT
ATOM      1  O   UNL     1       1.475   7.413  17.506  0.00  0.00    +0.000 OA
ATOM      2  C   UNL     1       2.372   7.784  18.263  0.00  0.00    +0.000 C 
ATOM      3  N   UNL     1       3.713   7.588  17.976  0.00  0.00    +0.000 N 
ATOM      4  H   UNL     1       4.367   7.757  18.731  0.00  0.00    +0.000 HD
ENDROOT
BRANCH   2   5
ATOM      5  C   UNL     1       2.080   8.580  19.540  0.00  0.00    +0.000 C 
ATOM      6  C   UNL     1       1.690   7.593  20.670  0.00  0.00    +0.000 C 
ATOM      7  C   UNL     1       0.953   8.270  21.841  0.00  0.00    +0.000 C 
ATOM      8  C   UNL     1      -0.355   8.940  21.385  0.00  0.00    +0.000 C 
ATOM      9  C   UNL     1      -0.082   9.749  20.169  0.00  0.00    +0.000 A 
ATOM     10  N   UNL     1      -0.890  10.744  19.682  0.00  0.00    +0.000 N 
ATOM     11  C   UNL     1      -0.323  11.252  18.539  0.00  0.00    +0.000 A 
ATOM     12  C   UNL     1       0.863  10.592  18.310  0.00  0.00    +0.000 A 
ATOM     13  C   UNL     1       1.004   9.616  19.328  0.00  0.00    +0.000 A 
ATOM     14  H   UNL     1      -1.763  11.054  20.088  0.00  0.00    +0.000 HD
ENDBRANCH   2   5
BRANCH   3  15
ATOM     15  C   UNL     1       4.119   6.758  16.861  0.00  0.00    +0.000 C 
BRANCH  15  16
ATOM     16  C   UNL     1       4.602   5.324  17.242  0.00  0.00    +0.000 C 
ATOM     17  C   UNL     1       4.633   4.466  15.933  0.00  0.00    +0.000 C 
ATOM     18  C   UNL     1       5.728   4.853  14.937  0.00  0.00    +0.000 C 
ATOM     19  C   UNL     1       7.104   4.855  15.584  0.00  0.00    +0.000 C 
ATOM     20  C   UNL     1       7.133   5.741  16.818  0.00  0.00    +0.000 C 
ATOM     21  C   UNL     1       6.053   5.346  17.820  0.00  0.00    +0.000 C 
BRANCH  16  22
ATOM     22  C   UNL     1       3.622   4.692  18.266  0.00  0.00    +0.000 A 
ATOM     23  C   UNL     1       2.404   4.108  17.879  0.00  0.00    +0.000 A 
ATOM     24  C   UNL     1       1.589   3.469  18.815  0.00  0.00    +0.000 A 
ATOM     25  C   UNL     1       2.001   3.455  20.131  0.00  0.00    +0.000 A 
ATOM     26 CL   UNL     1       1.083   2.658  21.340  0.00  0.00    +0.000 Cl
ATOM     27  N   UNL     1       3.130   4.035  20.573  0.00  0.00    +0.000 NA
ATOM     28  C   UNL     1       3.902   4.639  19.638  0.00  0.00    +0.000 A 
ENDBRANCH  16  22
ENDBRANCH  15  16
ENDBRANCH   3  15
TORSDOF 4
ENDMDL
