MODEL 1
REMARK VINA RESULT:      -5.4      0.000      0.000
REMARK  Name = 
REMARK  19 active torsions:
REMARK  status: ('A' for Active; 'I' for Inactive)
REMARK    1  A    between atoms: C_1  and  N_2
REMARK    2  A    between atoms: N_2  and  C_3
REMARK    3  A    between atoms: N_2  and  C_4
REMARK    4  A    between atoms: N_2  and  C_5
REMARK    5  A    between atoms: C_5  and  C_6
REMARK    6  A    between atoms: C_6  and  C_7
REMARK    7  A    between atoms: C_7  and  C_8
REMARK    8  A    between atoms: C_8  and  C_9
REMARK    9  A    between atoms: C_9  and  C_10
REMARK   10  A    between atoms: C_10  and  C_11
REMARK   11  A    between atoms: C_11  and  C_12
REMARK   12  A    between atoms: C_12  and  C_13
REMARK   13  A    between atoms: C_13  and  C_14
REMARK   14  A    between atoms: C_14  and  C_15
REMARK   15  A    between atoms: C_15  and  C_16
REMARK   16  A    between atoms: C_16  and  N_17
REMARK   17  A    between atoms: N_17  and  C_18
REMARK   18  A    between atoms: N_17  and  C_19
REMARK   19  A    between atoms: N_17  and  C_20
REMARK                            x       y       z     vdW  Elec       q    Type
REMARK                         _______ _______ _______ _____ _____    ______ ____
ROOT
ATOM      1  C   UNL     1       7.481   7.735  17.449  0.00  0.00    +0.000 C 
ENDROOT
BRANCH   1   2
ATOM      2  C   UNL     1       8.042   9.136  17.704  0.00  0.00    +0.000 C 
BRANCH   2   3
ATOM      3  C   UNL     1       8.937   9.176  18.948  0.00  0.00    +0.000 C 
BRANCH   3   4
ATOM      4  C   UNL     1       9.331  10.606  19.344  0.00  0.00    +0.000 C 
BRANCH   4   5
ATOM      5  C   UNL     1       9.424  11.558  18.145  0.00  0.00    +0.000 C 
BRANCH   5   6
ATOM      6  C   UNL     1       9.454  13.005  18.629  0.00  0.00    +0.000 C 
BRANCH   6   8
ATOM      7  C   UNL     1      11.423  12.973  17.166  0.00  0.00    +0.000 C 
ATOM      8  N   UNL     1      10.729  13.766  18.280  0.00  0.00    +0.000 N 
ATOM      9  C   UNL     1      11.678  13.844  19.469  0.00  0.00    +0.000 C 
ATOM     10  C   UNL     1      10.414  15.163  17.772  0.00  0.00    +0.000 C 
ENDBRANCH   6   8
ENDBRANCH   5   6
ENDBRANCH   4   5
ENDBRANCH   3   4
ENDBRANCH   2   3
ENDBRANCH   1   2
BRANCH   1  11
ATOM     11  C   UNL     1       7.901   6.737  18.533  0.00  0.00    +0.000 C 
BRANCH  11  12
ATOM     12  C   UNL     1       7.103   5.438  18.462  0.00  0.00    +0.000 C 
BRANCH  12  13
ATOM     13  C   UNL     1       7.481   4.597  17.236  0.00  0.00    +0.000 C 
BRANCH  13  14
ATOM     14  C   UNL     1       6.308   4.414  16.264  0.00  0.00    +0.000 C 
BRANCH  14  15
ATOM     15  C   UNL     1       4.948   4.731  16.896  0.00  0.00    +0.000 C 
BRANCH  15  16
ATOM     16  C   UNL     1       4.310   3.449  17.429  0.00  0.00    +0.000 C 
BRANCH  16  17
ATOM     17  N   UNL     1       3.085   3.669  18.307  0.00  0.00    +0.000 N 
ATOM     18  C   UNL     1       3.443   3.623  19.782  0.00  0.00    +0.000 C 
ATOM     19  C   UNL     1       2.392   4.988  17.977  0.00  0.00    +0.000 C 
ATOM     20  C   UNL     1       2.107   2.527  17.997  0.00  0.00    +0.000 C 
ENDBRANCH  16  17
ENDBRANCH  15  16
ENDBRANCH  14  15
ENDBRANCH  13  14
ENDBRANCH  12  13
ENDBRANCH  11  12
ENDBRANCH   1  11
TORSDOF 13
ENDMDL
MODEL 2
REMARK VINA RESULT:      -5.4      1.396     10.166
REMARK  Name = 
REMARK  19 active torsions:
REMARK  status: ('A' for Active; 'I' for Inactive)
REMARK    1  A    between atoms: C_1  and  N_2
REMARK    2  A    between atoms: N_2  and  C_3
REMARK    3  A    between atoms: N_2  and  C_4
REMARK    4  A    between atoms: N_2  and  C_5
REMARK    5  A    between atoms: C_5  and  C_6
REMARK    6  A    between atoms: C_6  and  C_7
REMARK    7  A    between atoms: C_7  and  C_8
REMARK    8  A    between atoms: C_8  and  C_9
REMARK    9  A    between atoms: C_9  and  C_10
REMARK   10  A    between atoms: C_10  and  C_11
REMARK   11  A    between atoms: C_11  and  C_12
REMARK   12  A    between atoms: C_12  and  C_13
REMARK   13  A    between atoms: C_13  and  C_14
REMARK   14  A    between atoms: C_14  and  C_15
REMARK   15  A    between atoms: C_15  and  C_16
REMARK   16  A    between atoms: C_16  and  N_17
REMARK   17  A    between atoms: N_17  and  C_18
REMARK   18  A    between atoms: N_17  and  C_19
REMARK   19  A    between atoms: N_17  and  C_20
REMARK                            x       y       z     vdW  Elec       q    Type
REMARK                         _______ _______ _______ _____ _____    ______ ____
ROOT
ATOM      1  C   UNL     1       5.479   7.059  17.199  0.00  0.00    +0.000 C 
ENDROOT
BRANCH   1   2
ATOM      2  C   UNL     1       4.306   6.114  17.469  0.00  0.00    +0.000 C 
BRANCH   2   3
ATOM      3  C   UNL     1       4.777   4.749  17.982  0.00  0.00    +0.000 C 
BRANCH   3   4
ATOM      4  C   UNL     1       4.149   3.581  17.209  0.00  0.00    +0.000 C 
BRANCH   4   5
ATOM      5  C   UNL     1       3.408   2.589  18.115  0.00  0.00    +0.000 C 
BRANCH   5   6
ATOM      6  C   UNL     1       3.425   3.087  19.557  0.00  0.00    +0.000 C 
BRANCH   6   8
ATOM      7  C   UNL     1       1.021   2.805  19.161  0.00  0.00    +0.000 C 
ATOM      8  N   UNL     1       2.048   3.370  20.150  0.00  0.00    +0.000 N 
ATOM      9  C   UNL     1       1.797   4.865  20.293  0.00  0.00    +0.000 C 
ATOM     10  C   UNL     1       1.875   2.680  21.492  0.00  0.00    +0.000 C 
ENDBRANCH   6   8
ENDBRANCH   5   6
ENDBRANCH   4   5
ENDBRANCH   3   4
ENDBRANCH   2   3
ENDBRANCH   1   2
BRANCH   1  11
ATOM     11  C   UNL     1       6.832   6.347  17.304  0.00  0.00    +0.000 C 
BRANCH  11  12
ATOM     12  C   UNL     1       7.836   7.136  18.139  0.00  0.00    +0.000 C 
BRANCH  12  13
ATOM     13  C   UNL     1       7.865   8.620  17.753  0.00  0.00    +0.000 C 
BRANCH  13  14
ATOM     14  C   UNL     1       8.882   9.423  18.575  0.00  0.00    +0.000 C 
BRANCH  14  15
ATOM     15  C   UNL     1       8.899  10.914  18.219  0.00  0.00    +0.000 C 
BRANCH  15  16
ATOM     16  C   UNL     1      10.327  11.360  17.910  0.00  0.00    +0.000 C 
BRANCH  16  17
ATOM     17  N   UNL     1      10.723  12.693  18.531  0.00  0.00    +0.000 N 
ATOM     18  C   UNL     1       9.735  13.789  18.171  0.00  0.00    +0.000 C 
ATOM     19  C   UNL     1      10.855  12.585  20.047  0.00  0.00    +0.000 C 
ATOM     20  C   UNL     1      12.099  13.057  17.958  0.00  0.00    +0.000 C 
ENDBRANCH  16  17
ENDBRANCH  15  16
ENDBRANCH  14  15
ENDBRANCH  13  14
ENDBRANCH  12  13
ENDBRANCH  11  12
ENDBRANCH   1  11
TORSDOF 13
ENDMDL
MODEL 3
REMARK VINA RESULT:      -5.4      1.436      1.926
REMARK  Name = 
REMARK  19 active torsions:
REMARK  status: ('A' for Active; 'I' for Inactive)
REMARK    1  A    between atoms: C_1  and  N_2
REMARK    2  A    between atoms: N_2  and  C_3
REMARK    3  A    between atoms: N_2  and  C_4
REMARK    4  A    between atoms: N_2  and  C_5
REMARK    5  A    between atoms: C_5  and  C_6
REMARK    6  A    between atoms: C_6  and  C_7
REMARK    7  A    between atoms: C_7  and  C_8
REMARK    8  A    between atoms: C_8  and  C_9
REMARK    9  A    between atoms: C_9  and  C_10
REMARK   10  A    between atoms: C_10  and  C_11
REMARK   11  A    between atoms: C_11  and  C_12
REMARK   12  A    between atoms: C_12  and  C_13
REMARK   13  A    between atoms: C_13  and  C_14
REMARK   14  A    between atoms: C_14  and  C_15
REMARK   15  A    between atoms: C_15  and  C_16
REMARK   16  A    between atoms: C_16  and  N_17
REMARK   17  A    between atoms: N_17  and  C_18
REMARK   18  A    between atoms: N_17  and  C_19
REMARK   19  A    between atoms: N_17  and  C_20
REMARK                            x       y       z     vdW  Elec       q    Type
REMARK                         _______ _______ _______ _____ _____    ______ ____
ROOT
ATOM      1  C   UNL     1       7.595   8.173  17.541  0.00  0.00    +0.000 C 
ENDROOT
BRANCH   1   2
ATOM      2  C   UNL     1       8.604   8.677  18.575  0.00  0.00    +0.000 C 
BRANCH   2   3
ATOM      3  C   UNL     1       8.897  10.172  18.406  0.00  0.00    +0.000 C 
BRANCH   3   4
ATOM      4  C   UNL     1       9.666  10.760  19.598  0.00  0.00    +0.000 C 
BRANCH   4   5
ATOM      5  C   UNL     1      10.957  11.479  19.186  0.00  0.00    +0.000 C 
BRANCH   5   6
ATOM      6  C   UNL     1      10.838  12.972  19.477  0.00  0.00    +0.000 C 
BRANCH   6   8
ATOM      7  C   UNL     1      11.459  15.101  18.429  0.00  0.00    +0.000 C 
ATOM      8  N   UNL     1      10.600  13.843  18.248  0.00  0.00    +0.000 N 
ATOM      9  C   UNL     1       9.143  14.274  18.140  0.00  0.00    +0.000 C 
ATOM     10  C   UNL     1      11.028  13.129  16.977  0.00  0.00    +0.000 C 
ENDBRANCH   6   8
ENDBRANCH   5   6
ENDBRANCH   4   5
ENDBRANCH   3   4
ENDBRANCH   2   3
ENDBRANCH   1   2
BRANCH   1  11
ATOM     11  C   UNL     1       7.544   6.642  17.480  0.00  0.00    +0.000 C 
BRANCH  11  12
ATOM     12  C   UNL     1       7.579   6.008  18.868  0.00  0.00    +0.000 C 
BRANCH  12  13
ATOM     13  C   UNL     1       6.315   5.190  19.158  0.00  0.00    +0.000 C 
BRANCH  13  14
ATOM     14  C   UNL     1       5.098   5.683  18.364  0.00  0.00    +0.000 C 
BRANCH  14  15
ATOM     15  C   UNL     1       3.775   5.495  19.114  0.00  0.00    +0.000 C 
BRANCH  15  16
ATOM     16  C   UNL     1       3.636   4.043  19.570  0.00  0.00    +0.000 C 
BRANCH  16  17
ATOM     17  N   UNL     1       2.306   3.712  20.234  0.00  0.00    +0.000 N 
ATOM     18  C   UNL     1       2.498   2.829  21.454  0.00  0.00    +0.000 C 
ATOM     19  C   UNL     1       1.545   4.977  20.619  0.00  0.00    +0.000 C 
ATOM     20  C   UNL     1       1.470   2.950  19.196  0.00  0.00    +0.000 C 
ENDBRANCH  16  17
ENDBRANCH  15  16
ENDBRANCH  14  15
ENDBRANCH  13  14
ENDBRANCH  12  13
ENDBRANCH  11  12
ENDBRANCH   1  11
TORSDOF 13
ENDMDL
MODEL 4
REMARK VINA RESULT:      -5.3      1.620      9.878
REMARK  Name = 
REMARK  19 active torsions:
REMARK  status: ('A' for Active; 'I' for Inactive)
REMARK    1  A    between atoms: C_1  and  N_2
REMARK    2  A    between atoms: N_2  and  C_3
REMARK    3  A    between atoms: N_2  and  C_4
REMARK    4  A    between atoms: N_2  and  C_5
REMARK    5  A    between atoms: C_5  and  C_6
REMARK    6  A    between atoms: C_6  and  C_7
REMARK    7  A    between atoms: C_7  and  C_8
REMARK    8  A    between atoms: C_8  and  C_9
REMARK    9  A    between atoms: C_9  and  C_10
REMARK   10  A    between atoms: C_10  and  C_11
REMARK   11  A    between atoms: C_11  and  C_12
REMARK   12  A    between atoms: C_12  and  C_13
REMARK   13  A    between atoms: C_13  and  C_14
REMARK   14  A    between atoms: C_14  and  C_15
REMARK   15  A    between atoms: C_15  and  C_16
REMARK   16  A    between atoms: C_16  and  N_17
REMARK   17  A    between atoms: N_17  and  C_18
REMARK   18  A    between atoms: N_17  and  C_19
REMARK   19  A    between atoms: N_17  and  C_20
REMARK                            x       y       z     vdW  Elec       q    Type
REMARK                         _______ _______ _______ _____ _____    ______ ____
ROOT
ATOM      1  C   UNL     1       6.565   5.485  19.073  0.00  0.00    +0.000 C 
ENDROOT
BRANCH   1   2
ATOM      2  C   UNL     1       5.420   4.906  18.241  0.00  0.00    +0.000 C 
BRANCH   2   3
ATOM      3  C   UNL     1       4.603   6.003  17.549  0.00  0.00    +0.000 C 
BRANCH   3   4
ATOM      4  C   UNL     1       3.235   6.225  18.209  0.00  0.00    +0.000 C 
BRANCH   4   5
ATOM      5  C   UNL     1       2.336   4.983  18.162  0.00  0.00    +0.000 C 
BRANCH   5   6
ATOM      6  C   UNL     1       1.915   4.590  19.576  0.00  0.00    +0.000 C 
BRANCH   6   8
ATOM      7  C   UNL     1       0.828   2.525  18.819  0.00  0.00    +0.000 C 
ATOM      8  N   UNL     1       1.842   3.087  19.824  0.00  0.00    +0.000 N 
ATOM      9  C   UNL     1       1.342   2.775  21.229  0.00  0.00    +0.000 C 
ATOM     10  C   UNL     1       3.190   2.426  19.590  0.00  0.00    +0.000 C 
ENDBRANCH   6   8
ENDBRANCH   5   6
ENDBRANCH   4   5
ENDBRANCH   3   4
ENDBRANCH   2   3
ENDBRANCH   1   2
BRANCH   1  11
ATOM     11  C   UNL     1       7.740   5.942  18.203  0.00  0.00    +0.000 C 
BRANCH  11  12
ATOM     12  C   UNL     1       8.225   7.341  18.575  0.00  0.00    +0.000 C 
BRANCH  12  13
ATOM     13  C   UNL     1       7.705   8.407  17.602  0.00  0.00    +0.000 C 
BRANCH  13  14
ATOM     14  C   UNL     1       8.237   9.809  17.926  0.00  0.00    +0.000 C 
BRANCH  14  15
ATOM     15  C   UNL     1       9.143   9.837  19.163  0.00  0.00    +0.000 C 
BRANCH  15  16
ATOM     16  C   UNL     1      10.145  10.985  19.049  0.00  0.00    +0.000 C 
BRANCH  16  17
ATOM     17  N   UNL     1       9.827  12.192  19.922  0.00  0.00    +0.000 N 
ATOM     18  C   UNL     1       8.962  13.199  19.185  0.00  0.00    +0.000 C 
ATOM     19  C   UNL     1       9.151  11.775  21.224  0.00  0.00    +0.000 C 
ATOM     20  C   UNL     1      11.168  12.851  20.271  0.00  0.00    +0.000 C 
ENDBRANCH  16  17
ENDBRANCH  15  16
ENDBRANCH  14  15
ENDBRANCH  13  14
ENDBRANCH  12  13
ENDBRANCH  11  12
ENDBRANCH   1  11
TORSDOF 13
ENDMDL
MODEL 5
REMARK VINA RESULT:      -5.3      1.346      1.991
REMARK  Name = 
REMARK  19 active torsions:
REMARK  status: ('A' for Active; 'I' for Inactive)
REMARK    1  A    between atoms: C_1  and  N_2
REMARK    2  A    between atoms: N_2  and  C_3
REMARK    3  A    between atoms: N_2  and  C_4
REMARK    4  A    between atoms: N_2  and  C_5
REMARK    5  A    between atoms: C_5  and  C_6
REMARK    6  A    between atoms: C_6  and  C_7
REMARK    7  A    between atoms: C_7  and  C_8
REMARK    8  A    between atoms: C_8  and  C_9
REMARK    9  A    between atoms: C_9  and  C_10
REMARK   10  A    between atoms: C_10  and  C_11
REMARK   11  A    between atoms: C_11  and  C_12
REMARK   12  A    between atoms: C_12  and  C_13
REMARK   13  A    between atoms: C_13  and  C_14
REMARK   14  A    between atoms: C_14  and  C_15
REMARK   15  A    between atoms: C_15  and  C_16
REMARK   16  A    between atoms: C_16  and  N_17
REMARK   17  A    between atoms: N_17  and  C_18
REMARK   18  A    between atoms: N_17  and  C_19
REMARK   19  A    between atoms: N_17  and  C_20
REMARK                            x       y       z     vdW  Elec       q    Type
REMARK                         _______ _______ _______ _____ _____    ______ ____
ROOT
ATOM      1  C   UNL     1       7.580   8.144  17.396  0.00  0.00    +0.000 C 
ENDROOT
BRANCH   1   2
ATOM      2  C   UNL     1       8.646   8.591  18.398  0.00  0.00    +0.000 C 
BRANCH   2   3
ATOM      3  C   UNL     1       8.737  10.117  18.495  0.00  0.00    +0.000 C 
BRANCH   3   4
ATOM      4  C   UNL     1       9.406  10.587  19.795  0.00  0.00    +0.000 C 
BRANCH   4   5
ATOM      5  C   UNL     1      10.734  11.317  19.558  0.00  0.00    +0.000 C 
BRANCH   5   6
ATOM      6  C   UNL     1      10.751  11.929  18.160  0.00  0.00    +0.000 C 
BRANCH   6   8
ATOM      7  C   UNL     1      10.380  14.346  17.962  0.00  0.00    +0.000 C 
ATOM      8  N   UNL     1      11.469  13.271  18.061  0.00  0.00    +0.000 N 
ATOM      9  C   UNL     1      12.333  13.353  16.809  0.00  0.00    +0.000 C 
ATOM     10  C   UNL     1      12.313  13.534  19.297  0.00  0.00    +0.000 C 
ENDBRANCH   6   8
ENDBRANCH   5   6
ENDBRANCH   4   5
ENDBRANCH   3   4
ENDBRANCH   2   3
ENDBRANCH   1   2
BRANCH   1  11
ATOM     11  C   UNL     1       7.454   6.618  17.327  0.00  0.00    +0.000 C 
BRANCH  11  12
ATOM     12  C   UNL     1       7.417   5.979  18.712  0.00  0.00    +0.000 C 
BRANCH  12  13
ATOM     13  C   UNL     1       6.082   5.275  18.986  0.00  0.00    +0.000 C 
BRANCH  13  14
ATOM     14  C   UNL     1       4.946   5.801  18.099  0.00  0.00    +0.000 C 
BRANCH  14  15
ATOM     15  C   UNL     1       3.727   4.872  18.070  0.00  0.00    +0.000 C 
BRANCH  15  16
ATOM     16  C   UNL     1       3.725   3.976  19.309  0.00  0.00    +0.000 C 
BRANCH  16  17
ATOM     17  N   UNL     1       2.380   3.875  20.015  0.00  0.00    +0.000 N 
ATOM     18  C   UNL     1       1.800   5.248  20.306  0.00  0.00    +0.000 C 
ATOM     19  C   UNL     1       1.387   3.047  19.206  0.00  0.00    +0.000 C 
ATOM     20  C   UNL     1       2.632   3.151  21.345  0.00  0.00    +0.000 C 
ENDBRANCH  16  17
ENDBRANCH  15  16
ENDBRANCH  14  15
ENDBRANCH  13  14
ENDBRANCH  12  13
ENDBRANCH  11  12
ENDBRANCH   1  11
TORSDOF 13
ENDMDL
MODEL 6
REMARK VINA RESULT:      -5.3      1.247     10.290
REMARK  Name = 
REMARK  19 active torsions:
REMARK  status: ('A' for Active; 'I' for Inactive)
REMARK    1  A    between atoms: C_1  and  N_2
REMARK    2  A    between atoms: N_2  and  C_3
REMARK    3  A    between atoms: N_2  and  C_4
REMARK    4  A    between atoms: N_2  and  C_5
REMARK    5  A    between atoms: C_5  and  C_6
REMARK    6  A    between atoms: C_6  and  C_7
REMARK    7  A    between atoms: C_7  and  C_8
REMARK    8  A    between atoms: C_8  and  C_9
REMARK    9  A    between atoms: C_9  and  C_10
REMARK   10  A    between atoms: C_10  and  C_11
REMARK   11  A    between atoms: C_11  and  C_12
REMARK   12  A    between atoms: C_12  and  C_13
REMARK   13  A    between atoms: C_13  and  C_14
REMARK   14  A    between atoms: C_14  and  C_15
REMARK   15  A    between atoms: C_15  and  C_16
REMARK   16  A    between atoms: C_16  and  N_17
REMARK   17  A    between atoms: N_17  and  C_18
REMARK   18  A    between atoms: N_17  and  C_19
REMARK   19  A    between atoms: N_17  and  C_20
REMARK                            x       y       z     vdW  Elec       q    Type
REMARK                         _______ _______ _______ _____ _____    ______ ____
ROOT
ATOM      1  C   UNL     1       7.557   5.452  18.546  0.00  0.00    +0.000 C 
ENDROOT
BRANCH   1   2
ATOM      2  C   UNL     1       6.124   5.265  19.050  0.00  0.00    +0.000 C 
BRANCH   2   3
ATOM      3  C   UNL     1       5.243   4.552  18.018  0.00  0.00    +0.000 C 
BRANCH   3   4
ATOM      4  C   UNL     1       3.954   5.326  17.710  0.00  0.00    +0.000 C 
BRANCH   4   5
ATOM      5  C   UNL     1       2.704   4.437  17.708  0.00  0.00    +0.000 C 
BRANCH   5   6
ATOM      6  C   UNL     1       2.178   4.273  19.131  0.00  0.00    +0.000 C 
BRANCH   6   8
ATOM      7  C   UNL     1       0.704   2.345  18.773  0.00  0.00    +0.000 C 
ATOM      8  N   UNL     1       1.931   2.830  19.556  0.00  0.00    +0.000 N 
ATOM      9  C   UNL     1       1.615   2.730  21.043  0.00  0.00    +0.000 C 
ATOM     10  C   UNL     1       3.118   1.945  19.214  0.00  0.00    +0.000 C 
ENDBRANCH   6   8
ENDBRANCH   5   6
ENDBRANCH   4   5
ENDBRANCH   3   4
ENDBRANCH   2   3
ENDBRANCH   1   2
BRANCH   1  11
ATOM     11  C   UNL     1       8.034   6.902  18.683  0.00  0.00    +0.000 C 
BRANCH  11  12
ATOM     12  C   UNL     1       7.766   7.719  17.422  0.00  0.00    +0.000 C 
BRANCH  12  13
ATOM     13  C   UNL     1       7.751   9.227  17.705  0.00  0.00    +0.000 C 
BRANCH  13  14
ATOM     14  C   UNL     1       8.869   9.658  18.662  0.00  0.00    +0.000 C 
BRANCH  14  15
ATOM     15  C   UNL     1       9.594  10.928  18.205  0.00  0.00    +0.000 C 
BRANCH  15  16
ATOM     16  C   UNL     1       9.520  11.993  19.298  0.00  0.00    +0.000 C 
BRANCH  16  17
ATOM     17  N   UNL     1      10.525  13.127  19.148  0.00  0.00    +0.000 N 
ATOM     18  C   UNL     1      10.005  14.417  19.759  0.00  0.00    +0.000 C 
ATOM     19  C   UNL     1      11.872  12.763  19.764  0.00  0.00    +0.000 C 
ATOM     20  C   UNL     1      10.732  13.339  17.642  0.00  0.00    +0.000 C 
ENDBRANCH  16  17
ENDBRANCH  15  16
ENDBRANCH  14  15
ENDBRANCH  13  14
ENDBRANCH  12  13
ENDBRANCH  11  12
ENDBRANCH   1  11
TORSDOF 13
ENDMDL
MODEL 7
REMARK VINA RESULT:      -5.2      4.881      7.765
REMARK  Name = 
REMARK  19 active torsions:
REMARK  status: ('A' for Active; 'I' for Inactive)
REMARK    1  A    between atoms: C_1  and  N_2
REMARK    2  A    between atoms: N_2  and  C_3
REMARK    3  A    between atoms: N_2  and  C_4
REMARK    4  A    between atoms: N_2  and  C_5
REMARK    5  A    between atoms: C_5  and  C_6
REMARK    6  A    between atoms: C_6  and  C_7
REMARK    7  A    between atoms: C_7  and  C_8
REMARK    8  A    between atoms: C_8  and  C_9
REMARK    9  A    between atoms: C_9  and  C_10
REMARK   10  A    between atoms: C_10  and  C_11
REMARK   11  A    between atoms: C_11  and  C_12
REMARK   12  A    between atoms: C_12  and  C_13
REMARK   13  A    between atoms: C_13  and  C_14
REMARK   14  A    between atoms: C_14  and  C_15
REMARK   15  A    between atoms: C_15  and  C_16
REMARK   16  A    between atoms: C_16  and  N_17
REMARK   17  A    between atoms: N_17  and  C_18
REMARK   18  A    between atoms: N_17  and  C_19
REMARK   19  A    between atoms: N_17  and  C_20
REMARK                            x       y       z     vdW  Elec       q    Type
REMARK                         _______ _______ _______ _____ _____    ______ ____
ROOT
ATOM      1  C   UNL     1       1.674   3.475  21.065  0.00  0.00    +0.000 C 
ENDROOT
BRANCH   1   2
ATOM      2  C   UNL     1       2.368   4.785  20.682  0.00  0.00    +0.000 C 
BRANCH   2   3
ATOM      3  C   UNL     1       1.407   5.978  20.736  0.00  0.00    +0.000 C 
BRANCH   3   4
ATOM      4  C   UNL     1       2.038   7.267  20.191  0.00  0.00    +0.000 C 
BRANCH   4   5
ATOM      5  C   UNL     1       1.374   8.538  20.734  0.00  0.00    +0.000 C 
BRANCH   5   6
ATOM      6  C   UNL     1       1.031   9.480  19.583  0.00  0.00    +0.000 C 
BRANCH   6   8
ATOM      7  C   UNL     1      -1.056  10.706  19.183  0.00  0.00    +0.000 C 
ATOM      8  N   UNL     1       0.248  10.724  19.990  0.00  0.00    +0.000 N 
ATOM      9  C   UNL     1       1.005  12.000  19.642  0.00  0.00    +0.000 C 
ATOM     10  C   UNL     1      -0.085  10.703  21.472  0.00  0.00    +0.000 C 
ENDBRANCH   6   8
ENDBRANCH   5   6
ENDBRANCH   4   5
ENDBRANCH   3   4
ENDBRANCH   2   3
ENDBRANCH   1   2
BRANCH   1  11
ATOM     11  C   UNL     1       0.992   2.809  19.866  0.00  0.00    +0.000 C 
BRANCH  11  12
ATOM     12  C   UNL     1       1.528   3.330  18.535  0.00  0.00    +0.000 C 
BRANCH  12  13
ATOM     13  C   UNL     1       2.395   2.288  17.817  0.00  0.00    +0.000 C 
BRANCH  13  14
ATOM     14  C   UNL     1       3.816   2.796  17.537  0.00  0.00    +0.000 C 
BRANCH  14  15
ATOM     15  C   UNL     1       3.901   4.325  17.457  0.00  0.00    +0.000 C 
BRANCH  15  16
ATOM     16  C   UNL     1       5.206   4.739  16.778  0.00  0.00    +0.000 C 
BRANCH  16  17
ATOM     17  N   UNL     1       6.223   5.393  17.705  0.00  0.00    +0.000 N 
ATOM     18  C   UNL     1       6.469   6.843  17.325  0.00  0.00    +0.000 C 
ATOM     19  C   UNL     1       5.787   5.301  19.163  0.00  0.00    +0.000 C 
ATOM     20  C   UNL     1       7.533   4.609  17.549  0.00  0.00    +0.000 C 
ENDBRANCH  16  17
ENDBRANCH  15  16
ENDBRANCH  14  15
ENDBRANCH  13  14
ENDBRANCH  12  13
ENDBRANCH  11  12
ENDBRANCH   1  11
TORSDOF 13
ENDMDL
MODEL 8
REMARK VINA RESULT:      -5.2      5.682      8.586
REMARK  Name = 
REMARK  19 active torsions:
REMARK  status: ('A' for Active; 'I' for Inactive)
REMARK    1  A    between atoms: C_1  and  N_2
REMARK    2  A    between atoms: N_2  and  C_3
REMARK    3  A    between atoms: N_2  and  C_4
REMARK    4  A    between atoms: N_2  and  C_5
REMARK    5  A    between atoms: C_5  and  C_6
REMARK    6  A    between atoms: C_6  and  C_7
REMARK    7  A    between atoms: C_7  and  C_8
REMARK    8  A    between atoms: C_8  and  C_9
REMARK    9  A    between atoms: C_9  and  C_10
REMARK   10  A    between atoms: C_10  and  C_11
REMARK   11  A    between atoms: C_11  and  C_12
REMARK   12  A    between atoms: C_12  and  C_13
REMARK   13  A    between atoms: C_13  and  C_14
REMARK   14  A    between atoms: C_14  and  C_15
REMARK   15  A    between atoms: C_15  and  C_16
REMARK   16  A    between atoms: C_16  and  N_17
REMARK   17  A    between atoms: N_17  and  C_18
REMARK   18  A    between atoms: N_17  and  C_19
REMARK   19  A    between atoms: N_17  and  C_20
REMARK                            x       y       z     vdW  Elec       q    Type
REMARK                         _______ _______ _______ _____ _____    ______ ____
ROOT
ATOM      1  C   UNL     1       0.974   4.140  20.466  0.00  0.00    +0.000 C 
ENDROOT
BRANCH   1   2
ATOM      2  C   UNL     1       1.999   3.256  19.752  0.00  0.00    +0.000 C 
BRANCH   2   3
ATOM      3  C   UNL     1       1.473   2.740  18.409  0.00  0.00    +0.000 C 
BRANCH   3   4
ATOM      4  C   UNL     1       2.588   2.566  17.367  0.00  0.00    +0.000 C 
BRANCH   4   5
ATOM      5  C   UNL     1       3.438   3.828  17.180  0.00  0.00    +0.000 C 
BRANCH   5   6
ATOM      6  C   UNL     1       4.850   3.590  17.709  0.00  0.00    +0.000 C 
BRANCH   6   8
ATOM      7  C   UNL     1       5.019   5.882  16.852  0.00  0.00    +0.000 C 
ATOM      8  N   UNL     1       5.762   4.811  17.659  0.00  0.00    +0.000 N 
ATOM      9  C   UNL     1       7.073   4.503  16.946  0.00  0.00    +0.000 C 
ATOM     10  C   UNL     1       6.040   5.346  19.054  0.00  0.00    +0.000 C 
ENDBRANCH   6   8
ENDBRANCH   5   6
ENDBRANCH   4   5
ENDBRANCH   3   4
ENDBRANCH   2   3
ENDBRANCH   1   2
BRANCH   1  11
ATOM     11  C   UNL     1       1.542   5.520  20.814  0.00  0.00    +0.000 C 
BRANCH  11  12
ATOM     12  C   UNL     1       2.407   6.088  19.693  0.00  0.00    +0.000 C 
BRANCH  12  13
ATOM     13  C   UNL     1       2.210   7.600  19.524  0.00  0.00    +0.000 C 
BRANCH  13  14
ATOM     14  C   UNL     1       2.327   8.050  18.061  0.00  0.00    +0.000 C 
BRANCH  14  15
ATOM     15  C   UNL     1       1.315   9.137  17.685  0.00  0.00    +0.000 C 
BRANCH  15  16
ATOM     16  C   UNL     1       1.338  10.254  18.728  0.00  0.00    +0.000 C 
BRANCH  16  17
ATOM     17  N   UNL     1      -0.035  10.793  19.109  0.00  0.00    +0.000 N 
ATOM     18  C   UNL     1      -0.460  10.309  20.485  0.00  0.00    +0.000 C 
ATOM     19  C   UNL     1      -0.069  12.317  19.057  0.00  0.00    +0.000 C 
ATOM     20  C   UNL     1      -1.026  10.258  18.066  0.00  0.00    +0.000 C 
ENDBRANCH  16  17
ENDBRANCH  15  16
ENDBRANCH  14  15
ENDBRANCH  13  14
ENDBRANCH  12  13
ENDBRANCH  11  12
ENDBRANCH   1  11
TORSDOF 13
ENDMDL
MODEL 9
REMARK VINA RESULT:      -5.1      5.052      8.088
REMARK  Name = 
REMARK  19 active torsions:
REMARK  status: ('A' for Active; 'I' for Inactive)
REMARK    1  A    between atoms: C_1  and  N_2
REMARK    2  A    between atoms: N_2  and  C_3
REMARK    3  A    between atoms: N_2  and  C_4
REMARK    4  A    between atoms: N_2  and  C_5
REMARK    5  A    between atoms: C_5  and  C_6
REMARK    6  A    between atoms: C_6  and  C_7
REMARK    7  A    between atoms: C_7  and  C_8
REMARK    8  A    between atoms: C_8  and  C_9
REMARK    9  A    between atoms: C_9  and  C_10
REMARK   10  A    between atoms: C_10  and  C_11
REMARK   11  A    between atoms: C_11  and  C_12
REMARK   12  A    between atoms: C_12  and  C_13
REMARK   13  A    between atoms: C_13  and  C_14
REMARK   14  A    between atoms: C_14  and  C_15
REMARK   15  A    between atoms: C_15  and  C_16
REMARK   16  A    between atoms: C_16  and  N_17
REMARK   17  A    between atoms: N_17  and  C_18
REMARK   18  A    between atoms: N_17  and  C_19
REMARK   19  A    between atoms: N_17  and  C_20
REMARK                            x       y       z     vdW  Elec       q    Type
REMARK                         _______ _______ _______ _____ _____    ______ ____
ROOT
ATOM      1  C   UNL     1       1.296   3.096  20.176  0.00  0.00    +0.000 C 
ENDROOT
BRANCH   1   2
ATOM      2  C   UNL     1       2.624   2.628  19.578  0.00  0.00    +0.000 C 
BRANCH   2   3
ATOM      3  C   UNL     1       2.508   2.347  18.076  0.00  0.00    +0.000 C 
BRANCH   3   4
ATOM      4  C   UNL     1       2.986   3.526  17.217  0.00  0.00    +0.000 C 
BRANCH   4   5
ATOM      5  C   UNL     1       4.466   3.426  16.829  0.00  0.00    +0.000 C 
BRANCH   5   6
ATOM      6  C   UNL     1       5.299   4.358  17.705  0.00  0.00    +0.000 C 
BRANCH   6   8
ATOM      7  C   UNL     1       5.333   6.381  16.318  0.00  0.00    +0.000 C 
ATOM      8  N   UNL     1       6.224   5.296  16.937  0.00  0.00    +0.000 N 
ATOM      9  C   UNL     1       6.944   4.572  15.807  0.00  0.00    +0.000 C 
ATOM     10  C   UNL     1       7.234   5.953  17.863  0.00  0.00    +0.000 C 
ENDBRANCH   6   8
ENDBRANCH   5   6
ENDBRANCH   4   5
ENDBRANCH   3   4
ENDBRANCH   2   3
ENDBRANCH   1   2
BRANCH   1  11
ATOM     11  C   UNL     1       0.989   4.558  19.832  0.00  0.00    +0.000 C 
BRANCH  11  12
ATOM     12  C   UNL     1       1.870   5.531  20.609  0.00  0.00    +0.000 C 
BRANCH  12  13
ATOM     13  C   UNL     1       2.901   6.222  19.706  0.00  0.00    +0.000 C 
BRANCH  13  14
ATOM     14  C   UNL     1       2.285   6.743  18.401  0.00  0.00    +0.000 C 
BRANCH  14  15
ATOM     15  C   UNL     1       2.544   8.235  18.168  0.00  0.00    +0.000 C 
BRANCH  15  16
ATOM     16  C   UNL     1       1.246   8.934  17.767  0.00  0.00    +0.000 C 
BRANCH  16  17
ATOM     17  N   UNL     1       0.831  10.075  18.686  0.00  0.00    +0.000 N 
ATOM     18  C   UNL     1       1.776  11.258  18.566  0.00  0.00    +0.000 C 
ATOM     19  C   UNL     1      -0.602  10.521  18.409  0.00  0.00    +0.000 C 
ATOM     20  C   UNL     1       0.892   9.534  20.121  0.00  0.00    +0.000 C 
ENDBRANCH  16  17
ENDBRANCH  15  16
ENDBRANCH  14  15
ENDBRANCH  13  14
ENDBRANCH  12  13
ENDBRANCH  11  12
ENDBRANCH   1  11
TORSDOF 13
ENDMDL
