MODEL 1
REMARK VINA RESULT:      -8.6      0.000      0.000
REMARK  Name = 
REMARK  5 active torsions:
REMARK  status: ('A' for Active; 'I' for Inactive)
REMARK    1  A    between atoms: N_3  and  C_4
REMARK    2  A    between atoms: N_10  and  C_11
REMARK    3  A    between atoms: C_14  and  C_15
REMARK    4  A    between atoms: C_15  and  C_17
REMARK    5  A    between atoms: C_18  and  C_19
REMARK                            x       y       z     vdW  Elec       q    Type
REMARK                         _______ _______ _______ _____ _____    ______ ____
ROOT
ATOM      1  C   UNL     1       7.968   7.321  18.325  0.00  0.00    +0.000 A 
ATOM      2  C   UNL     1       7.102   7.535  17.247  0.00  0.00    +0.000 A 
ATOM      3  C   UNL     1       6.401   6.482  16.656  0.00  0.00    +0.000 A 
ATOM      4  C   UNL     1       6.543   5.184  17.138  0.00  0.00    +0.000 A 
ATOM      5  C   UNL     1       7.391   4.952  18.229  0.00  0.00    +0.000 A 
ATOM      6  C   UNL     1       8.095   6.017  18.820  0.00  0.00    +0.000 A 
ENDROOT
BRANCH   1  10
ATOM      7  O   UNL     1       7.965  10.151  17.708  0.00  0.00    +0.000 OA
ATOM      8  C   UNL     1       8.742   9.683  18.533  0.00  0.00    +0.000 C 
ATOM      9  N   UNL     1       9.730  10.422  19.165  0.00  0.00    +0.000 N 
ATOM     10  N   UNL     1       8.750   8.348  18.912  0.00  0.00    +0.000 N 
ATOM     11  H   UNL     1      10.463   9.910  19.631  0.00  0.00    +0.000 HD
ATOM     12  H   UNL     1       9.325   8.093  19.700  0.00  0.00    +0.000 HD
BRANCH   9  13
ATOM     13  C   UNL     1       9.964  11.805  18.945  0.00  0.00    +0.000 A 
ATOM     14  C   UNL     1       9.520  12.805  19.819  0.00  0.00    +0.000 A 
ATOM     15  C   UNL     1       9.709  14.157  19.527  0.00  0.00    +0.000 A 
ATOM     16  C   UNL     1      10.369  14.529  18.364  0.00  0.00    +0.000 A 
ATOM     17  C   UNL     1      10.854  13.547  17.502  0.00  0.00    +0.000 A 
ATOM     18  C   UNL     1      10.659  12.190  17.793  0.00  0.00    +0.000 A 
ENDBRANCH   9  13
ENDBRANCH   1  10
BRANCH   4  19
ATOM     19  C   UNL     1       5.795   4.113  16.424  0.00  0.00    +0.000 C 
ATOM     20  O   UNL     1       6.218   3.658  15.366  0.00  0.00    +0.000 OA
BRANCH  19  21
ATOM     21  C   UNL     1       4.513   3.658  17.008  0.00  0.00    +0.000 C 
ATOM     22  C   UNL     1       4.074   4.179  18.166  0.00  0.00    +0.000 C 
BRANCH  22  23
ATOM     23  C   UNL     1       2.818   3.746  18.786  0.00  0.00    +0.000 A 
ATOM     24  C   UNL     1       2.010   2.797  18.172  0.00  0.00    +0.000 A 
ATOM     25  C   UNL     1       0.825   2.419  18.802  0.00  0.00    +0.000 A 
ATOM     26  C   UNL     1       0.484   2.998  20.020  0.00  0.00    +0.000 A 
ATOM     27  C   UNL     1       1.347   3.935  20.561  0.00  0.00    +0.000 A 
ATOM     28  N   UNL     1       2.498   4.315  19.976  0.00  0.00    +0.000 NA
ENDBRANCH  22  23
ENDBRANCH  19  21
ENDBRANCH   4  19
TORSDOF 5
ENDMDL
MODEL 2
REMARK VINA RESULT:      -8.5      0.604      1.334
REMARK  Name = 
REMARK  5 active torsions:
REMARK  status: ('A' for Active; 'I' for Inactive)
REMARK    1  A    between atoms: N_3  and  C_4
REMARK    2  A    between atoms: N_10  and  C_11
REMARK    3  A    between atoms: C_14  and  C_15
REMARK    4  A    between atoms: C_15  and  C_17
REMARK    5  A    between atoms: C_18  and  C_19
REMARK                            x       y       z     vdW  Elec       q    Type
REMARK                         _______ _______ _______ _____ _____    ______ ____
ROOT
ATOM      1  C   UNL     1       8.019   7.344  18.409  0.00  0.00    +0.000 A 
ATOM      2  C   UNL     1       7.200   7.569  17.297  0.00  0.00    +0.000 A 
ATOM      3  C   UNL     1       6.491   6.530  16.693  0.00  0.00    +0.000 A 
ATOM      4  C   UNL     1       6.577   5.234  17.194  0.00  0.00    +0.000 A 
ATOM      5  C   UNL     1       7.376   4.992  18.319  0.00  0.00    +0.000 A 
ATOM      6  C   UNL     1       8.089   6.043  18.924  0.00  0.00    +0.000 A 
ENDROOT
BRANCH   1  10
ATOM      7  O   UNL     1       8.099  10.171  17.781  0.00  0.00    +0.000 OA
ATOM      8  C   UNL     1       8.842   9.688  18.629  0.00  0.00    +0.000 C 
ATOM      9  N   UNL     1       9.829  10.406  19.285  0.00  0.00    +0.000 N 
ATOM     10  N   UNL     1       8.808   8.355  19.014  0.00  0.00    +0.000 N 
ATOM     11  H   UNL     1      10.537   9.880  19.773  0.00  0.00    +0.000 HD
ATOM     12  H   UNL     1       9.355   8.090  19.818  0.00  0.00    +0.000 HD
BRANCH   9  13
ATOM     13  C   UNL     1      10.102  11.783  19.066  0.00  0.00    +0.000 A 
ATOM     14  C   UNL     1      10.461  12.303  17.817  0.00  0.00    +0.000 A 
ATOM     15  C   UNL     1      10.791  13.651  17.663  0.00  0.00    +0.000 A 
ATOM     16  C   UNL     1      10.743  14.506  18.755  0.00  0.00    +0.000 A 
ATOM     17  C   UNL     1      10.348  14.014  19.998  0.00  0.00    +0.000 A 
ATOM     18  C   UNL     1      10.023  12.660  20.153  0.00  0.00    +0.000 A 
ENDBRANCH   9  13
ENDBRANCH   1  10
BRANCH   4  19
ATOM     19  C   UNL     1       5.824   4.176  16.464  0.00  0.00    +0.000 C 
ATOM     20  O   UNL     1       6.289   3.671  15.448  0.00  0.00    +0.000 OA
BRANCH  19  21
ATOM     21  C   UNL     1       4.489   3.797  16.981  0.00  0.00    +0.000 C 
ATOM     22  C   UNL     1       4.163   4.044  18.260  0.00  0.00    +0.000 C 
BRANCH  22  23
ATOM     23  C   UNL     1       2.858   3.672  18.815  0.00  0.00    +0.000 A 
ATOM     24  C   UNL     1       2.320   4.361  19.895  0.00  0.00    +0.000 A 
ATOM     25  C   UNL     1       1.076   3.968  20.387  0.00  0.00    +0.000 A 
ATOM     26  C   UNL     1       0.410   2.905  19.788  0.00  0.00    +0.000 A 
ATOM     27  C   UNL     1       1.018   2.275  18.717  0.00  0.00    +0.000 A 
ATOM     28  N   UNL     1       2.216   2.635  18.220  0.00  0.00    +0.000 NA
ENDBRANCH  22  23
ENDBRANCH  19  21
ENDBRANCH   4  19
TORSDOF 5
ENDMDL
MODEL 3
REMARK VINA RESULT:      -8.5      0.320      1.365
REMARK  Name = 
REMARK  5 active torsions:
REMARK  status: ('A' for Active; 'I' for Inactive)
REMARK    1  A    between atoms: N_3  and  C_4
REMARK    2  A    between atoms: N_10  and  C_11
REMARK    3  A    between atoms: C_14  and  C_15
REMARK    4  A    between atoms: C_15  and  C_17
REMARK    5  A    between atoms: C_18  and  C_19
REMARK                            x       y       z     vdW  Elec       q    Type
REMARK                         _______ _______ _______ _____ _____    ______ ____
ROOT
ATOM      1  C   UNL     1       8.074   7.240  18.412  0.00  0.00    +0.000 A 
ATOM      2  C   UNL     1       8.050   5.916  18.867  0.00  0.00    +0.000 A 
ATOM      3  C   UNL     1       7.310   4.934  18.208  0.00  0.00    +0.000 A 
ATOM      4  C   UNL     1       6.578   5.250  17.067  0.00  0.00    +0.000 A 
ATOM      5  C   UNL     1       6.604   6.566  16.584  0.00  0.00    +0.000 A 
ATOM      6  C   UNL     1       7.352   7.552  17.253  0.00  0.00    +0.000 A 
ENDROOT
BRANCH   1  10
ATOM      7  O   UNL     1       8.127  10.061  17.760  0.00  0.00    +0.000 OA
ATOM      8  C   UNL     1       8.788   9.613  18.690  0.00  0.00    +0.000 C 
ATOM      9  N   UNL     1       9.672  10.372  19.441  0.00  0.00    +0.000 N 
ATOM     10  N   UNL     1       8.757   8.284  19.087  0.00  0.00    +0.000 N 
ATOM     11  H   UNL     1      10.339   9.876  20.011  0.00  0.00    +0.000 HD
ATOM     12  H   UNL     1       9.220   8.046  19.950  0.00  0.00    +0.000 HD
BRANCH   9  13
ATOM     13  C   UNL     1       9.920  11.755  19.235  0.00  0.00    +0.000 A 
ATOM     14  C   UNL     1      10.736  12.242  18.207  0.00  0.00    +0.000 A 
ATOM     15  C   UNL     1      11.011  13.605  18.086  0.00  0.00    +0.000 A 
ATOM     16  C   UNL     1      10.452  14.508  18.981  0.00  0.00    +0.000 A 
ATOM     17  C   UNL     1       9.606  14.045  19.987  0.00  0.00    +0.000 A 
ATOM     18  C   UNL     1       9.334  12.676  20.111  0.00  0.00    +0.000 A 
ENDBRANCH   9  13
ENDBRANCH   1  10
BRANCH   4  19
ATOM     19  C   UNL     1       5.780   4.154  16.450  0.00  0.00    +0.000 C 
ATOM     20  O   UNL     1       6.056   3.739  15.329  0.00  0.00    +0.000 OA
BRANCH  19  21
ATOM     21  C   UNL     1       4.628   3.625  17.214  0.00  0.00    +0.000 C 
ATOM     22  C   UNL     1       3.757   4.465  17.795  0.00  0.00    +0.000 C 
BRANCH  22  23
ATOM     23  C   UNL     1       2.611   3.983  18.572  0.00  0.00    +0.000 A 
ATOM     24  C   UNL     1       1.841   2.917  18.120  0.00  0.00    +0.000 A 
ATOM     25  C   UNL     1       0.762   2.496  18.897  0.00  0.00    +0.000 A 
ATOM     26  C   UNL     1       0.485   3.148  20.093  0.00  0.00    +0.000 A 
ATOM     27  C   UNL     1       1.303   4.199  20.467  0.00  0.00    +0.000 A 
ATOM     28  N   UNL     1       2.353   4.624  19.740  0.00  0.00    +0.000 NA
ENDBRANCH  22  23
ENDBRANCH  19  21
ENDBRANCH   4  19
TORSDOF 5
ENDMDL
MODEL 4
REMARK VINA RESULT:      -8.4      0.585      1.345
REMARK  Name = 
REMARK  5 active torsions:
REMARK  status: ('A' for Active; 'I' for Inactive)
REMARK    1  A    between atoms: N_3  and  C_4
REMARK    2  A    between atoms: N_10  and  C_11
REMARK    3  A    between atoms: C_14  and  C_15
REMARK    4  A    between atoms: C_15  and  C_17
REMARK    5  A    between atoms: C_18  and  C_19
REMARK                            x       y       z     vdW  Elec       q    Type
REMARK                         _______ _______ _______ _____ _____    ______ ____
ROOT
ATOM      1  C   UNL     1       7.956   7.164  18.273  0.00  0.00    +0.000 A 
ATOM      2  C   UNL     1       8.102   5.803  18.567  0.00  0.00    +0.000 A 
ATOM      3  C   UNL     1       7.351   4.831  17.904  0.00  0.00    +0.000 A 
ATOM      4  C   UNL     1       6.438   5.197  16.920  0.00  0.00    +0.000 A 
ATOM      5  C   UNL     1       6.291   6.552  16.597  0.00  0.00    +0.000 A 
ATOM      6  C   UNL     1       7.050   7.528  17.269  0.00  0.00    +0.000 A 
ENDROOT
BRANCH   1  10
ATOM      7  O   UNL     1       8.055   9.992  17.655  0.00  0.00    +0.000 OA
ATOM      8  C   UNL     1       8.701   9.524  18.586  0.00  0.00    +0.000 C 
ATOM      9  N   UNL     1       9.589  10.261  19.353  0.00  0.00    +0.000 N 
ATOM     10  N   UNL     1       8.648   8.190  18.966  0.00  0.00    +0.000 N 
ATOM     11  H   UNL     1      10.244   9.748  19.923  0.00  0.00    +0.000 HD
ATOM     12  H   UNL     1       9.101   7.935  19.830  0.00  0.00    +0.000 HD
BRANCH   9  13
ATOM     13  C   UNL     1       9.858  11.642  19.167  0.00  0.00    +0.000 A 
ATOM     14  C   UNL     1       9.370  12.639  20.020  0.00  0.00    +0.000 A 
ATOM     15  C   UNL     1       9.599  13.991  19.757  0.00  0.00    +0.000 A 
ATOM     16  C   UNL     1      10.342  14.366  18.646  0.00  0.00    +0.000 A 
ATOM     17  C   UNL     1      10.869  13.385  17.808  0.00  0.00    +0.000 A 
ATOM     18  C   UNL     1      10.635  12.029  18.069  0.00  0.00    +0.000 A 
ENDBRANCH   9  13
ENDBRANCH   1  10
BRANCH   4  19
ATOM     19  C   UNL     1       5.645   4.102  16.293  0.00  0.00    +0.000 C 
ATOM     20  O   UNL     1       6.061   3.528  15.292  0.00  0.00    +0.000 OA
BRANCH  19  21
ATOM     21  C   UNL     1       4.332   3.771  16.891  0.00  0.00    +0.000 C 
ATOM     22  C   UNL     1       4.092   4.035  18.185  0.00  0.00    +0.000 C 
BRANCH  22  23
ATOM     23  C   UNL     1       2.810   3.709  18.820  0.00  0.00    +0.000 A 
ATOM     24  C   UNL     1       2.373   4.406  19.940  0.00  0.00    +0.000 A 
ATOM     25  C   UNL     1       1.147   4.059  20.507  0.00  0.00    +0.000 A 
ATOM     26  C   UNL     1       0.400   3.031  19.942  0.00  0.00    +0.000 A 
ATOM     27  C   UNL     1       0.911   2.390  18.828  0.00  0.00    +0.000 A 
ATOM     28  N   UNL     1       2.089   2.707  18.258  0.00  0.00    +0.000 NA
ENDBRANCH  22  23
ENDBRANCH  19  21
ENDBRANCH   4  19
TORSDOF 5
ENDMDL
MODEL 5
REMARK VINA RESULT:      -8.0      7.866     10.927
REMARK  Name = 
REMARK  5 active torsions:
REMARK  status: ('A' for Active; 'I' for Inactive)
REMARK    1  A    between atoms: N_3  and  C_4
REMARK    2  A    between atoms: N_10  and  C_11
REMARK    3  A    between atoms: C_14  and  C_15
REMARK    4  A    between atoms: C_15  and  C_17
REMARK    5  A    between atoms: C_18  and  C_19
REMARK                            x       y       z     vdW  Elec       q    Type
REMARK                         _______ _______ _______ _____ _____    ______ ____
ROOT
ATOM      1  C   UNL     1       0.868   8.930  21.364  0.00  0.00    +0.000 A 
ATOM      2  C   UNL     1       0.650   9.836  20.320  0.00  0.00    +0.000 A 
ATOM      3  C   UNL     1      -0.132  10.979  20.501  0.00  0.00    +0.000 A 
ATOM      4  C   UNL     1      -0.708  11.249  21.739  0.00  0.00    +0.000 A 
ATOM      5  C   UNL     1      -0.485  10.363  22.801  0.00  0.00    +0.000 A 
ATOM      6  C   UNL     1       0.303   9.213  22.613  0.00  0.00    +0.000 A 
ENDROOT
BRANCH   1  10
ATOM      7  O   UNL     1       2.167   7.914  18.982  0.00  0.00    +0.000 OA
ATOM      8  C   UNL     1       2.152   7.265  20.021  0.00  0.00    +0.000 C 
ATOM      9  N   UNL     1       2.657   5.979  20.132  0.00  0.00    +0.000 N 
ATOM     10  N   UNL     1       1.598   7.723  21.208  0.00  0.00    +0.000 N 
ATOM     11  H   UNL     1       2.385   5.443  20.942  0.00  0.00    +0.000 HD
ATOM     12  H   UNL     1       1.766   7.179  22.040  0.00  0.00    +0.000 HD
BRANCH   9  13
ATOM     13  C   UNL     1       3.257   5.256  19.067  0.00  0.00    +0.000 A 
ATOM     14  C   UNL     1       2.524   4.495  18.149  0.00  0.00    +0.000 A 
ATOM     15  C   UNL     1       3.161   3.742  17.161  0.00  0.00    +0.000 A 
ATOM     16  C   UNL     1       4.545   3.759  17.061  0.00  0.00    +0.000 A 
ATOM     17  C   UNL     1       5.290   4.542  17.942  0.00  0.00    +0.000 A 
ATOM     18  C   UNL     1       4.650   5.293  18.936  0.00  0.00    +0.000 A 
ENDBRANCH   9  13
ENDBRANCH   1  10
BRANCH   4  19
ATOM     19  C   UNL     1      -1.563  12.465  21.835  0.00  0.00    +0.000 C 
ATOM     20  O   UNL     1      -1.134  13.556  21.475  0.00  0.00    +0.000 OA
BRANCH  19  21
ATOM     21  C   UNL     1      -2.916  12.314  22.418  0.00  0.00    +0.000 C 
ATOM     22  C   UNL     1      -3.987  12.811  21.780  0.00  0.00    +0.000 C 
BRANCH  22  23
ATOM     23  C   UNL     1      -5.342  12.696  22.330  0.00  0.00    +0.000 A 
ATOM     24  C   UNL     1      -5.621  13.106  23.628  0.00  0.00    +0.000 A 
ATOM     25  C   UNL     1      -6.925  12.976  24.104  0.00  0.00    +0.000 A 
ATOM     26  C   UNL     1      -7.905  12.442  23.275  0.00  0.00    +0.000 A 
ATOM     27  C   UNL     1      -7.540  12.059  21.996  0.00  0.00    +0.000 A 
ATOM     28  N   UNL     1      -6.290  12.177  21.510  0.00  0.00    +0.000 NA
ENDBRANCH  22  23
ENDBRANCH  19  21
ENDBRANCH   4  19
TORSDOF 5
ENDMDL
MODEL 6
REMARK VINA RESULT:      -8.0      8.004     11.087
REMARK  Name = 
REMARK  5 active torsions:
REMARK  status: ('A' for Active; 'I' for Inactive)
REMARK    1  A    between atoms: N_3  and  C_4
REMARK    2  A    between atoms: N_10  and  C_11
REMARK    3  A    between atoms: C_14  and  C_15
REMARK    4  A    between atoms: C_15  and  C_17
REMARK    5  A    between atoms: C_18  and  C_19
REMARK                            x       y       z     vdW  Elec       q    Type
REMARK                         _______ _______ _______ _____ _____    ______ ____
ROOT
ATOM      1  C   UNL     1       0.840   9.135  21.645  0.00  0.00    +0.000 A 
ATOM      2  C   UNL     1       0.983  10.228  20.782  0.00  0.00    +0.000 A 
ATOM      3  C   UNL     1       0.249  11.400  20.966  0.00  0.00    +0.000 A 
ATOM      4  C   UNL     1      -0.644  11.513  22.028  0.00  0.00    +0.000 A 
ATOM      5  C   UNL     1      -0.787  10.438  22.915  0.00  0.00    +0.000 A 
ATOM      6  C   UNL     1      -0.045   9.257  22.724  0.00  0.00    +0.000 A 
ENDROOT
BRANCH   1  10
ATOM      7  O   UNL     1       1.886   8.018  19.186  0.00  0.00    +0.000 OA
ATOM      8  C   UNL     1       1.944   7.395  20.240  0.00  0.00    +0.000 C 
ATOM      9  N   UNL     1       2.416   6.095  20.340  0.00  0.00    +0.000 N 
ATOM     10  N   UNL     1       1.514   7.901  21.458  0.00  0.00    +0.000 N 
ATOM     11  H   UNL     1       2.200   5.589  21.185  0.00  0.00    +0.000 HD
ATOM     12  H   UNL     1       1.738   7.371  22.286  0.00  0.00    +0.000 HD
BRANCH   9  13
ATOM     13  C   UNL     1       2.894   5.327  19.246  0.00  0.00    +0.000 A 
ATOM     14  C   UNL     1       2.056   4.577  18.413  0.00  0.00    +0.000 A 
ATOM     15  C   UNL     1       2.577   3.778  17.393  0.00  0.00    +0.000 A 
ATOM     16  C   UNL     1       3.948   3.737  17.176  0.00  0.00    +0.000 A 
ATOM     17  C   UNL     1       4.794   4.508  17.970  0.00  0.00    +0.000 A 
ATOM     18  C   UNL     1       4.271   5.306  18.997  0.00  0.00    +0.000 A 
ENDBRANCH   9  13
ENDBRANCH   1  10
BRANCH   4  19
ATOM     19  C   UNL     1      -1.420  12.781  22.127  0.00  0.00    +0.000 C 
ATOM     20  O   UNL     1      -0.857  13.834  22.404  0.00  0.00    +0.000 OA
BRANCH  19  21
ATOM     21  C   UNL     1      -2.885  12.711  21.926  0.00  0.00    +0.000 C 
ATOM     22  C   UNL     1      -3.720  12.913  22.957  0.00  0.00    +0.000 C 
BRANCH  22  23
ATOM     23  C   UNL     1      -5.177  12.838  22.804  0.00  0.00    +0.000 A 
ATOM     24  C   UNL     1      -5.772  13.008  21.559  0.00  0.00    +0.000 A 
ATOM     25  C   UNL     1      -7.161  12.928  21.466  0.00  0.00    +0.000 A 
ATOM     26  C   UNL     1      -7.910  12.683  22.612  0.00  0.00    +0.000 A 
ATOM     27  C   UNL     1      -7.236  12.527  23.810  0.00  0.00    +0.000 A 
ATOM     28  N   UNL     1      -5.896  12.595  23.928  0.00  0.00    +0.000 NA
ENDBRANCH  22  23
ENDBRANCH  19  21
ENDBRANCH   4  19
TORSDOF 5
ENDMDL
MODEL 7
REMARK VINA RESULT:      -8.0      5.477      7.332
REMARK  Name = 
REMARK  5 active torsions:
REMARK  status: ('A' for Active; 'I' for Inactive)
REMARK    1  A    between atoms: N_3  and  C_4
REMARK    2  A    between atoms: N_10  and  C_11
REMARK    3  A    between atoms: C_14  and  C_15
REMARK    4  A    between atoms: C_15  and  C_17
REMARK    5  A    between atoms: C_18  and  C_19
REMARK                            x       y       z     vdW  Elec       q    Type
REMARK                         _______ _______ _______ _____ _____    ______ ____
ROOT
ATOM      1  C   UNL     1       2.314   7.511  19.266  0.00  0.00    +0.000 A 
ATOM      2  C   UNL     1       3.058   7.590  18.084  0.00  0.00    +0.000 A 
ATOM      3  C   UNL     1       3.916   6.561  17.695  0.00  0.00    +0.000 A 
ATOM      4  C   UNL     1       4.044   5.417  18.477  0.00  0.00    +0.000 A 
ATOM      5  C   UNL     1       3.292   5.310  19.654  0.00  0.00    +0.000 A 
ATOM      6  C   UNL     1       2.430   6.351  20.043  0.00  0.00    +0.000 A 
ENDROOT
BRANCH   1  10
ATOM      7  O   UNL     1       2.027  10.188  18.196  0.00  0.00    +0.000 OA
ATOM      8  C   UNL     1       1.430   9.843  19.209  0.00  0.00    +0.000 C 
ATOM      9  N   UNL     1       0.656  10.701  19.975  0.00  0.00    +0.000 N 
ATOM     10  N   UNL     1       1.482   8.560  19.735  0.00  0.00    +0.000 N 
ATOM     11  H   UNL     1       0.410  10.397  20.904  0.00  0.00    +0.000 HD
ATOM     12  H   UNL     1       0.843   8.339  20.484  0.00  0.00    +0.000 HD
BRANCH   9  13
ATOM     13  C   UNL     1       0.451  12.076  19.683  0.00  0.00    +0.000 A 
ATOM     14  C   UNL     1      -0.501  12.529  18.762  0.00  0.00    +0.000 A 
ATOM     15  C   UNL     1      -0.618  13.885  18.451  0.00  0.00    +0.000 A 
ATOM     16  C   UNL     1       0.201  14.814  19.079  0.00  0.00    +0.000 A 
ATOM     17  C   UNL     1       1.127  14.385  20.028  0.00  0.00    +0.000 A 
ATOM     18  C   UNL     1       1.248  13.023  20.335  0.00  0.00    +0.000 A 
ENDBRANCH   9  13
ENDBRANCH   1  10
BRANCH   4  19
ATOM     19  C   UNL     1       5.014   4.386  18.013  0.00  0.00    +0.000 C 
ATOM     20  O   UNL     1       5.608   3.682  18.823  0.00  0.00    +0.000 OA
BRANCH  19  21
ATOM     21  C   UNL     1       5.263   4.278  16.557  0.00  0.00    +0.000 C 
ATOM     22  C   UNL     1       6.455   4.625  16.047  0.00  0.00    +0.000 C 
BRANCH  22  23
ATOM     23  C   UNL     1       6.738   4.547  14.610  0.00  0.00    +0.000 A 
ATOM     24  C   UNL     1       6.047   3.659  13.795  0.00  0.00    +0.000 A 
ATOM     25  C   UNL     1       6.353   3.623  12.435  0.00  0.00    +0.000 A 
ATOM     26  C   UNL     1       7.335   4.470  11.933  0.00  0.00    +0.000 A 
ATOM     27  C   UNL     1       7.973   5.323  12.816  0.00  0.00    +0.000 A 
ATOM     28  N   UNL     1       7.696   5.381  14.132  0.00  0.00    +0.000 NA
ENDBRANCH  22  23
ENDBRANCH  19  21
ENDBRANCH   4  19
TORSDOF 5
ENDMDL
MODEL 8
REMARK VINA RESULT:      -8.0      7.956     11.057
REMARK  Name = 
REMARK  5 active torsions:
REMARK  status: ('A' for Active; 'I' for Inactive)
REMARK    1  A    between atoms: N_3  and  C_4
REMARK    2  A    between atoms: N_10  and  C_11
REMARK    3  A    between atoms: C_14  and  C_15
REMARK    4  A    between atoms: C_15  and  C_17
REMARK    5  A    between atoms: C_18  and  C_19
REMARK                            x       y       z     vdW  Elec       q    Type
REMARK                         _______ _______ _______ _____ _____    ______ ____
ROOT
ATOM      1  C   UNL     1       0.748   9.025  21.645  0.00  0.00    +0.000 A 
ATOM      2  C   UNL     1       0.123   9.308  22.864  0.00  0.00    +0.000 A 
ATOM      3  C   UNL     1      -0.599  10.488  23.055  0.00  0.00    +0.000 A 
ATOM      4  C   UNL     1      -0.722  11.413  22.023  0.00  0.00    +0.000 A 
ATOM      5  C   UNL     1      -0.120  11.138  20.787  0.00  0.00    +0.000 A 
ATOM      6  C   UNL     1       0.607   9.948  20.601  0.00  0.00    +0.000 A 
ENDROOT
BRANCH   1  10
ATOM      7  O   UNL     1       1.846   8.051  19.147  0.00  0.00    +0.000 OA
ATOM      8  C   UNL     1       1.997   7.428  20.192  0.00  0.00    +0.000 C 
ATOM      9  N   UNL     1       2.608   6.185  20.265  0.00  0.00    +0.000 N 
ATOM     10  N   UNL     1       1.546   7.872  21.427  0.00  0.00    +0.000 N 
ATOM     11  H   UNL     1       2.469   5.651  21.108  0.00  0.00    +0.000 HD
ATOM     12  H   UNL     1       1.846   7.362  22.242  0.00  0.00    +0.000 HD
BRANCH   9  13
ATOM     13  C   UNL     1       3.139   5.484  19.150  0.00  0.00    +0.000 A 
ATOM     14  C   UNL     1       4.423   5.714  18.642  0.00  0.00    +0.000 A 
ATOM     15  C   UNL     1       4.878   5.053  17.499  0.00  0.00    +0.000 A 
ATOM     16  C   UNL     1       4.060   4.131  16.859  0.00  0.00    +0.000 A 
ATOM     17  C   UNL     1       2.793   3.861  17.374  0.00  0.00    +0.000 A 
ATOM     18  C   UNL     1       2.335   4.529  18.518  0.00  0.00    +0.000 A 
ENDBRANCH   9  13
ENDBRANCH   1  10
BRANCH   4  19
ATOM     19  C   UNL     1      -1.470  12.665  22.323  0.00  0.00    +0.000 C 
ATOM     20  O   UNL     1      -0.926  13.758  22.206  0.00  0.00    +0.000 OA
BRANCH  19  21
ATOM     21  C   UNL     1      -2.864  12.537  22.807  0.00  0.00    +0.000 C 
ATOM     22  C   UNL     1      -3.892  12.816  21.992  0.00  0.00    +0.000 C 
BRANCH  22  23
ATOM     23  C   UNL     1      -5.286  12.717  22.436  0.00  0.00    +0.000 A 
ATOM     24  C   UNL     1      -5.670  13.181  23.688  0.00  0.00    +0.000 A 
ATOM     25  C   UNL     1      -7.008  13.063  24.064  0.00  0.00    +0.000 A 
ATOM     26  C   UNL     1      -7.917  12.488  23.183  0.00  0.00    +0.000 A 
ATOM     27  C   UNL     1      -7.449  12.052  21.957  0.00  0.00    +0.000 A 
ATOM     28  N   UNL     1      -6.164  12.156  21.566  0.00  0.00    +0.000 NA
ENDBRANCH  22  23
ENDBRANCH  19  21
ENDBRANCH   4  19
TORSDOF 5
ENDMDL
MODEL 9
REMARK VINA RESULT:      -8.0      7.970     11.018
REMARK  Name = 
REMARK  5 active torsions:
REMARK  status: ('A' for Active; 'I' for Inactive)
REMARK    1  A    between atoms: N_3  and  C_4
REMARK    2  A    between atoms: N_10  and  C_11
REMARK    3  A    between atoms: C_14  and  C_15
REMARK    4  A    between atoms: C_15  and  C_17
REMARK    5  A    between atoms: C_18  and  C_19
REMARK                            x       y       z     vdW  Elec       q    Type
REMARK                         _______ _______ _______ _____ _____    ______ ____
ROOT
ATOM      1  C   UNL     1       0.697   9.329  21.903  0.00  0.00    +0.000 A 
ATOM      2  C   UNL     1      -0.279   9.376  22.904  0.00  0.00    +0.000 A 
ATOM      3  C   UNL     1      -1.003  10.541  23.160  0.00  0.00    +0.000 A 
ATOM      4  C   UNL     1      -0.773  11.692  22.411  0.00  0.00    +0.000 A 
ATOM      5  C   UNL     1       0.186  11.659  21.390  0.00  0.00    +0.000 A 
ATOM      6  C   UNL     1       0.913  10.481  21.137  0.00  0.00    +0.000 A 
ENDROOT
BRANCH   1  10
ATOM      7  O   UNL     1       1.523   8.244  19.347  0.00  0.00    +0.000 OA
ATOM      8  C   UNL     1       1.818   7.686  20.397  0.00  0.00    +0.000 C 
ATOM      9  N   UNL     1       2.476   6.468  20.462  0.00  0.00    +0.000 N 
ATOM     10  N   UNL     1       1.503   8.188  21.652  0.00  0.00    +0.000 N 
ATOM     11  H   UNL     1       2.457   5.978  21.343  0.00  0.00    +0.000 HD
ATOM     12  H   UNL     1       1.915   7.733  22.451  0.00  0.00    +0.000 HD
BRANCH   9  13
ATOM     13  C   UNL     1       2.894   5.719  19.330  0.00  0.00    +0.000 A 
ATOM     14  C   UNL     1       4.133   5.902  18.706  0.00  0.00    +0.000 A 
ATOM     15  C   UNL     1       4.474   5.195  17.551  0.00  0.00    +0.000 A 
ATOM     16  C   UNL     1       3.585   4.272  17.016  0.00  0.00    +0.000 A 
ATOM     17  C   UNL     1       2.363   4.047  17.648  0.00  0.00    +0.000 A 
ATOM     18  C   UNL     1       2.020   4.762  18.803  0.00  0.00    +0.000 A 
ENDBRANCH   9  13
ENDBRANCH   1  10
BRANCH   4  19
ATOM     19  C   UNL     1      -1.557  12.904  22.778  0.00  0.00    +0.000 C 
ATOM     20  O   UNL     1      -1.004  13.868  23.297  0.00  0.00    +0.000 OA
BRANCH  19  21
ATOM     21  C   UNL     1      -3.017  12.881  22.538  0.00  0.00    +0.000 C 
ATOM     22  C   UNL     1      -3.497  12.705  21.296  0.00  0.00    +0.000 C 
BRANCH  22  23
ATOM     23  C   UNL     1      -4.936  12.691  21.013  0.00  0.00    +0.000 A 
ATOM     24  C   UNL     1      -5.416  13.013  19.749  0.00  0.00    +0.000 A 
ATOM     25  C   UNL     1      -6.793  12.985  19.530  0.00  0.00    +0.000 A 
ATOM     26  C   UNL     1      -7.644  12.639  20.574  0.00  0.00    +0.000 A 
ATOM     27  C   UNL     1      -7.080  12.334  21.800  0.00  0.00    +0.000 A 
ATOM     28  N   UNL     1      -5.755  12.349  22.038  0.00  0.00    +0.000 NA
ENDBRANCH  22  23
ENDBRANCH  19  21
ENDBRANCH   4  19
TORSDOF 5
ENDMDL
