MODEL 1
REMARK VINA RESULT:      -7.6      0.000      0.000
REMARK  Name = 
REMARK  4 active torsions:
REMARK  status: ('A' for Active; 'I' for Inactive)
REMARK    1  A    between atoms: C_1  and  O_2
REMARK    2  A    between atoms: O_2  and  C_3
REMARK    3  A    between atoms: N_5  and  C_6
REMARK    4  A    between atoms: C_15  and  C_16
REMARK                            x       y       z     vdW  Elec       q    Type
REMARK                         _______ _______ _______ _____ _____    ______ ____
ROOT
ATOM      1  C   UNL     1       4.585   5.534  17.020  0.00  0.00    +0.000 A 
ATOM      2  C   UNL     1       4.277   6.845  17.412  0.00  0.00    +0.000 A 
ATOM      3  C   UNL     1       3.132   7.138  18.143  0.00  0.00    +0.000 A 
ATOM      4  C   UNL     1       2.264   6.119  18.493  0.00  0.00    +0.000 A 
ATOM      5  C   UNL     1       2.532   4.788  18.119  0.00  0.00    +0.000 A 
ATOM      6  C   UNL     1       3.702   4.484  17.371  0.00  0.00    +0.000 A 
ATOM      7  C   UNL     1       3.967   3.054  16.940  0.00  0.00    +0.000 C 
ATOM      8  C   UNL     1       3.160   1.989  17.682  0.00  0.00    +0.000 C 
ATOM      9  C   UNL     1       1.700   2.399  17.812  0.00  0.00    +0.000 C 
ATOM     10  C   UNL     1       1.556   3.716  18.575  0.00  0.00    +0.000 C 
ENDROOT
BRANCH  10  11
ATOM     11  C   UNL     1       1.755   3.566  20.064  0.00  0.00    +0.000 A 
ATOM     12  C   UNL     1       2.549   4.274  20.947  0.00  0.00    +0.000 A 
ATOM     13  N   UNL     1       2.304   3.737  22.178  0.00  0.00    +0.000 N 
ATOM     14  C   UNL     1       1.404   2.726  22.012  0.00  0.00    +0.000 A 
ATOM     15  N   UNL     1       1.058   2.592  20.753  0.00  0.00    +0.000 NA
ATOM     16  H   UNL     1       2.704   4.039  23.055  0.00  0.00    +0.000 HD
ENDBRANCH  10  11
BRANCH   1  19
ATOM     17  C   UNL     1       6.946   4.793  16.760  0.00  0.00    +0.000 C 
ATOM     18  O   UNL     1       7.206   4.462  17.908  0.00  0.00    +0.000 OA
ATOM     19  N   UNL     1       5.753   5.265  16.270  0.00  0.00    +0.000 N 
ATOM     20  H   UNL     1       5.728   5.356  15.269  0.00  0.00    +0.000 HD
BRANCH  17  22
ATOM     21  C   UNL     1       7.233   4.876  14.456  0.00  0.00    +0.000 C 
ATOM     22  O   UNL     1       7.844   4.694  15.740  0.00  0.00    +0.000 OA
ENDBRANCH  17  22
ENDBRANCH   1  19
TORSDOF 3
ENDMDL
MODEL 2
REMARK VINA RESULT:      -7.4      1.698      2.409
REMARK  Name = 
REMARK  4 active torsions:
REMARK  status: ('A' for Active; 'I' for Inactive)
REMARK    1  A    between atoms: C_1  and  O_2
REMARK    2  A    between atoms: O_2  and  C_3
REMARK    3  A    between atoms: N_5  and  C_6
REMARK    4  A    between atoms: C_15  and  C_16
REMARK                            x       y       z     vdW  Elec       q    Type
REMARK                         _______ _______ _______ _____ _____    ______ ____
ROOT
ATOM      1  C   UNL     1       5.959   4.246  16.914  0.00  0.00    +0.000 A 
ATOM      2  C   UNL     1       6.984   4.729  17.741  0.00  0.00    +0.000 A 
ATOM      3  C   UNL     1       6.713   5.320  18.970  0.00  0.00    +0.000 A 
ATOM      4  C   UNL     1       5.403   5.446  19.394  0.00  0.00    +0.000 A 
ATOM      5  C   UNL     1       4.341   4.977  18.596  0.00  0.00    +0.000 A 
ATOM      6  C   UNL     1       4.613   4.372  17.340  0.00  0.00    +0.000 A 
ATOM      7  C   UNL     1       3.464   3.902  16.468  0.00  0.00    +0.000 C 
ATOM      8  C   UNL     1       2.121   3.755  17.183  0.00  0.00    +0.000 C 
ATOM      9  C   UNL     1       1.846   4.950  18.083  0.00  0.00    +0.000 C 
ATOM     10  C   UNL     1       2.931   5.110  19.148  0.00  0.00    +0.000 C 
ENDROOT
BRANCH  10  11
ATOM     11  C   UNL     1       2.816   4.107  20.269  0.00  0.00    +0.000 A 
ATOM     12  C   UNL     1       2.087   4.142  21.444  0.00  0.00    +0.000 A 
ATOM     13  N   UNL     1       2.325   2.949  22.064  0.00  0.00    +0.000 N 
ATOM     14  C   UNL     1       3.189   2.245  21.277  0.00  0.00    +0.000 A 
ATOM     15  N   UNL     1       3.509   2.914  20.194  0.00  0.00    +0.000 NA
ATOM     16  H   UNL     1       1.927   2.636  22.937  0.00  0.00    +0.000 HD
ENDBRANCH  10  11
BRANCH   1  19
ATOM     17  C   UNL     1       6.541   4.322  14.496  0.00  0.00    +0.000 C 
ATOM     18  O   UNL     1       6.640   5.529  14.327  0.00  0.00    +0.000 OA
ATOM     19  N   UNL     1       6.262   3.657  15.665  0.00  0.00    +0.000 N 
ATOM     20  H   UNL     1       6.354   2.658  15.600  0.00  0.00    +0.000 HD
BRANCH  17  22
ATOM     21  C   UNL     1       5.751   3.493  12.474  0.00  0.00    +0.000 C 
ATOM     22  O   UNL     1       6.748   3.415  13.501  0.00  0.00    +0.000 OA
ENDBRANCH  17  22
ENDBRANCH   1  19
TORSDOF 3
ENDMDL
MODEL 3
REMARK VINA RESULT:      -7.2      0.936      1.114
REMARK  Name = 
REMARK  4 active torsions:
REMARK  status: ('A' for Active; 'I' for Inactive)
REMARK    1  A    between atoms: C_1  and  O_2
REMARK    2  A    between atoms: O_2  and  C_3
REMARK    3  A    between atoms: N_5  and  C_6
REMARK    4  A    between atoms: C_15  and  C_16
REMARK                            x       y       z     vdW  Elec       q    Type
REMARK                         _______ _______ _______ _____ _____    ______ ____
ROOT
ATOM      1  C   UNL     1       4.709   5.750  17.057  0.00  0.00    +0.000 A 
ATOM      2  C   UNL     1       4.211   7.018  17.393  0.00  0.00    +0.000 A 
ATOM      3  C   UNL     1       2.981   7.176  18.019  0.00  0.00    +0.000 A 
ATOM      4  C   UNL     1       2.217   6.062  18.319  0.00  0.00    +0.000 A 
ATOM      5  C   UNL     1       2.677   4.770  17.999  0.00  0.00    +0.000 A 
ATOM      6  C   UNL     1       3.934   4.603  17.358  0.00  0.00    +0.000 A 
ATOM      7  C   UNL     1       4.407   3.212  16.983  0.00  0.00    +0.000 C 
ATOM      8  C   UNL     1       3.675   2.064  17.680  0.00  0.00    +0.000 C 
ATOM      9  C   UNL     1       2.171   2.293  17.679  0.00  0.00    +0.000 C 
ATOM     10  C   UNL     1       1.803   3.591  18.398  0.00  0.00    +0.000 C 
ENDROOT
BRANCH  10  11
ATOM     11  C   UNL     1       1.892   3.485  19.901  0.00  0.00    +0.000 A 
ATOM     12  C   UNL     1       2.557   4.270  20.826  0.00  0.00    +0.000 A 
ATOM     13  N   UNL     1       2.255   3.740  22.047  0.00  0.00    +0.000 N 
ATOM     14  C   UNL     1       1.450   2.659  21.835  0.00  0.00    +0.000 A 
ATOM     15  N   UNL     1       1.217   2.474  20.557  0.00  0.00    +0.000 NA
ATOM     16  H   UNL     1       2.558   4.088  22.944  0.00  0.00    +0.000 HD
ENDBRANCH  10  11
BRANCH   1  19
ATOM     17  C   UNL     1       6.169   5.241  15.107  0.00  0.00    +0.000 C 
ATOM     18  O   UNL     1       5.328   5.012  14.250  0.00  0.00    +0.000 OA
ATOM     19  N   UNL     1       5.960   5.618  16.412  0.00  0.00    +0.000 N 
ATOM     20  H   UNL     1       6.798   5.877  16.902  0.00  0.00    +0.000 HD
BRANCH  17  22
ATOM     21  C   UNL     1       7.806   5.184  13.459  0.00  0.00    +0.000 C 
ATOM     22  O   UNL     1       7.508   5.196  14.861  0.00  0.00    +0.000 OA
ENDBRANCH  17  22
ENDBRANCH   1  19
TORSDOF 3
ENDMDL
MODEL 4
REMARK VINA RESULT:      -7.2      2.830      6.168
REMARK  Name = 
REMARK  4 active torsions:
REMARK  status: ('A' for Active; 'I' for Inactive)
REMARK    1  A    between atoms: C_1  and  O_2
REMARK    2  A    between atoms: O_2  and  C_3
REMARK    3  A    between atoms: N_5  and  C_6
REMARK    4  A    between atoms: C_15  and  C_16
REMARK                            x       y       z     vdW  Elec       q    Type
REMARK                         _______ _______ _______ _____ _____    ______ ____
ROOT
ATOM      1  C   UNL     1       3.451   5.977  19.107  0.00  0.00    +0.000 A 
ATOM      2  C   UNL     1       2.599   6.822  18.380  0.00  0.00    +0.000 A 
ATOM      3  C   UNL     1       3.029   7.481  17.233  0.00  0.00    +0.000 A 
ATOM      4  C   UNL     1       4.329   7.310  16.793  0.00  0.00    +0.000 A 
ATOM      5  C   UNL     1       5.220   6.472  17.492  0.00  0.00    +0.000 A 
ATOM      6  C   UNL     1       4.785   5.797  18.664  0.00  0.00    +0.000 A 
ATOM      7  C   UNL     1       5.759   4.924  19.434  0.00  0.00    +0.000 C 
ATOM      8  C   UNL     1       7.020   4.524  18.668  0.00  0.00    +0.000 C 
ATOM      9  C   UNL     1       7.613   5.713  17.928  0.00  0.00    +0.000 C 
ATOM     10  C   UNL     1       6.619   6.299  16.924  0.00  0.00    +0.000 C 
ENDROOT
BRANCH  10  11
ATOM     11  C   UNL     1       6.471   5.463  15.676  0.00  0.00    +0.000 A 
ATOM     12  C   UNL     1       5.480   4.578  15.292  0.00  0.00    +0.000 A 
ATOM     13  N   UNL     1       5.837   4.139  14.049  0.00  0.00    +0.000 N 
ATOM     14  C   UNL     1       7.018   4.740  13.727  0.00  0.00    +0.000 A 
ATOM     15  N   UNL     1       7.431   5.536  14.685  0.00  0.00    +0.000 NA
ATOM     16  H   UNL     1       5.317   3.499  13.467  0.00  0.00    +0.000 HD
ENDBRANCH  10  11
BRANCH   1  19
ATOM     17  C   UNL     1       2.106   4.276  20.327  0.00  0.00    +0.000 C 
ATOM     18  O   UNL     1       1.604   3.672  19.390  0.00  0.00    +0.000 OA
ATOM     19  N   UNL     1       2.991   5.326  20.274  0.00  0.00    +0.000 N 
ATOM     20  H   UNL     1       3.372   5.586  21.167  0.00  0.00    +0.000 HD
BRANCH  17  22
ATOM     21  C   UNL     1       1.648   2.540  21.801  0.00  0.00    +0.000 C 
ATOM     22  O   UNL     1       1.880   3.944  21.628  0.00  0.00    +0.000 OA
ENDBRANCH  17  22
ENDBRANCH   1  19
TORSDOF 3
ENDMDL
MODEL 5
REMARK VINA RESULT:      -7.0      1.554      1.833
REMARK  Name = 
REMARK  4 active torsions:
REMARK  status: ('A' for Active; 'I' for Inactive)
REMARK    1  A    between atoms: C_1  and  O_2
REMARK    2  A    between atoms: O_2  and  C_3
REMARK    3  A    between atoms: N_5  and  C_6
REMARK    4  A    between atoms: C_15  and  C_16
REMARK                            x       y       z     vdW  Elec       q    Type
REMARK                         _______ _______ _______ _____ _____    ______ ____
ROOT
ATOM      1  C   UNL     1       4.267   6.647  17.475  0.00  0.00    +0.000 A 
ATOM      2  C   UNL     1       3.397   7.686  17.840  0.00  0.00    +0.000 A 
ATOM      3  C   UNL     1       2.085   7.439  18.224  0.00  0.00    +0.000 A 
ATOM      4  C   UNL     1       1.612   6.139  18.246  0.00  0.00    +0.000 A 
ATOM      5  C   UNL     1       2.449   5.064  17.886  0.00  0.00    +0.000 A 
ATOM      6  C   UNL     1       3.791   5.313  17.493  0.00  0.00    +0.000 A 
ATOM      7  C   UNL     1       4.677   4.156  17.071  0.00  0.00    +0.000 C 
ATOM      8  C   UNL     1       4.179   2.770  17.483  0.00  0.00    +0.000 C 
ATOM      9  C   UNL     1       2.690   2.620  17.210  0.00  0.00    +0.000 C 
ATOM     10  C   UNL     1       1.873   3.660  17.976  0.00  0.00    +0.000 C 
ENDROOT
BRANCH  10  11
ATOM     11  C   UNL     1       1.741   3.348  19.447  0.00  0.00    +0.000 A 
ATOM     12  C   UNL     1       0.626   3.069  20.217  0.00  0.00    +0.000 A 
ATOM     13  N   UNL     1       1.097   2.820  21.474  0.00  0.00    +0.000 N 
ATOM     14  C   UNL     1       2.453   2.972  21.440  0.00  0.00    +0.000 A 
ATOM     15  N   UNL     1       2.871   3.294  20.239  0.00  0.00    +0.000 NA
ATOM     16  H   UNL     1       0.548   2.560  22.280  0.00  0.00    +0.000 HD
ENDBRANCH  10  11
BRANCH   1  19
ATOM     17  C   UNL     1       6.735   6.639  17.789  0.00  0.00    +0.000 C 
ATOM     18  O   UNL     1       6.824   6.039  18.851  0.00  0.00    +0.000 OA
ATOM     19  N   UNL     1       5.594   6.928  17.080  0.00  0.00    +0.000 N 
ATOM     20  H   UNL     1       5.766   7.320  16.170  0.00  0.00    +0.000 HD
BRANCH  17  22
ATOM     21  C   UNL     1       8.188   8.425  17.479  0.00  0.00    +0.000 C 
ATOM     22  O   UNL     1       7.820   7.093  17.101  0.00  0.00    +0.000 OA
ENDBRANCH  17  22
ENDBRANCH   1  19
TORSDOF 3
ENDMDL
MODEL 6
REMARK VINA RESULT:      -6.7      2.835      6.147
REMARK  Name = 
REMARK  4 active torsions:
REMARK  status: ('A' for Active; 'I' for Inactive)
REMARK    1  A    between atoms: C_1  and  O_2
REMARK    2  A    between atoms: O_2  and  C_3
REMARK    3  A    between atoms: N_5  and  C_6
REMARK    4  A    between atoms: C_15  and  C_16
REMARK                            x       y       z     vdW  Elec       q    Type
REMARK                         _______ _______ _______ _____ _____    ______ ____
ROOT
ATOM      1  C   UNL     1       4.342   2.962  19.256  0.00  0.00    +0.000 A 
ATOM      2  C   UNL     1       3.188   2.413  18.679  0.00  0.00    +0.000 A 
ATOM      3  C   UNL     1       2.674   2.888  17.478  0.00  0.00    +0.000 A 
ATOM      4  C   UNL     1       3.307   3.934  16.830  0.00  0.00    +0.000 A 
ATOM      5  C   UNL     1       4.468   4.517  17.373  0.00  0.00    +0.000 A 
ATOM      6  C   UNL     1       4.997   4.035  18.601  0.00  0.00    +0.000 A 
ATOM      7  C   UNL     1       6.226   4.691  19.200  0.00  0.00    +0.000 C 
ATOM      8  C   UNL     1       7.034   5.561  18.237  0.00  0.00    +0.000 C 
ATOM      9  C   UNL     1       6.122   6.455  17.410  0.00  0.00    +0.000 C 
ATOM     10  C   UNL     1       5.134   5.633  16.583  0.00  0.00    +0.000 C 
ENDROOT
BRANCH  10  11
ATOM     11  C   UNL     1       5.764   4.982  15.376  0.00  0.00    +0.000 A 
ATOM     12  C   UNL     1       5.486   3.782  14.746  0.00  0.00    +0.000 A 
ATOM     13  N   UNL     1       6.336   3.718  13.680  0.00  0.00    +0.000 N 
ATOM     14  C   UNL     1       7.105   4.844  13.701  0.00  0.00    +0.000 A 
ATOM     15  N   UNL     1       6.791   5.622  14.711  0.00  0.00    +0.000 NA
ATOM     16  H   UNL     1       6.382   2.980  12.992  0.00  0.00    +0.000 HD
ENDBRANCH  10  11
BRANCH   1  19
ATOM     17  C   UNL     1       5.249   1.178  20.735  0.00  0.00    +0.000 C 
ATOM     18  O   UNL     1       5.322   0.248  19.945  0.00  0.00    +0.000 OA
ATOM     19  N   UNL     1       4.838   2.465  20.483  0.00  0.00    +0.000 N 
ATOM     20  H   UNL     1       4.978   3.097  21.252  0.00  0.00    +0.000 HD
BRANCH  17  22
ATOM     21  C   UNL     1       6.393  -0.111  22.293  0.00  0.00    +0.000 C 
ATOM     22  O   UNL     1       5.627   1.074  22.039  0.00  0.00    +0.000 OA
ENDBRANCH  17  22
ENDBRANCH   1  19
TORSDOF 3
ENDMDL
MODEL 7
REMARK VINA RESULT:      -6.7      4.987      7.393
REMARK  Name = 
REMARK  4 active torsions:
REMARK  status: ('A' for Active; 'I' for Inactive)
REMARK    1  A    between atoms: C_1  and  O_2
REMARK    2  A    between atoms: O_2  and  C_3
REMARK    3  A    between atoms: N_5  and  C_6
REMARK    4  A    between atoms: C_15  and  C_16
REMARK                            x       y       z     vdW  Elec       q    Type
REMARK                         _______ _______ _______ _____ _____    ______ ____
ROOT
ATOM      1  C   UNL     1       2.130   7.335  19.778  0.00  0.00    +0.000 A 
ATOM      2  C   UNL     1       2.610   7.316  18.460  0.00  0.00    +0.000 A 
ATOM      3  C   UNL     1       2.340   8.348  17.569  0.00  0.00    +0.000 A 
ATOM      4  C   UNL     1       1.572   9.423  17.981  0.00  0.00    +0.000 A 
ATOM      5  C   UNL     1       1.067   9.483  19.295  0.00  0.00    +0.000 A 
ATOM      6  C   UNL     1       1.342   8.431  20.209  0.00  0.00    +0.000 A 
ATOM      7  C   UNL     1       0.765   8.483  21.611  0.00  0.00    +0.000 C 
ATOM      8  C   UNL     1       0.263   9.856  22.057  0.00  0.00    +0.000 C 
ATOM      9  C   UNL     1      -0.555  10.524  20.961  0.00  0.00    +0.000 C 
ATOM     10  C   UNL     1       0.269  10.716  19.688  0.00  0.00    +0.000 C 
ENDROOT
BRANCH  10  11
ATOM     11  C   UNL     1       1.260  11.851  19.785  0.00  0.00    +0.000 A 
ATOM     12  C   UNL     1       1.971  12.518  18.805  0.00  0.00    +0.000 A 
ATOM     13  N   UNL     1       2.684  13.484  19.456  0.00  0.00    +0.000 N 
ATOM     14  C   UNL     1       2.409  13.367  20.787  0.00  0.00    +0.000 A 
ATOM     15  N   UNL     1       1.562  12.392  21.020  0.00  0.00    +0.000 NA
ATOM     16  H   UNL     1       3.293  14.168  19.033  0.00  0.00    +0.000 HD
ENDBRANCH  10  11
BRANCH   1  19
ATOM     17  C   UNL     1       1.848   5.015  20.633  0.00  0.00    +0.000 C 
ATOM     18  O   UNL     1       1.053   4.570  19.819  0.00  0.00    +0.000 OA
ATOM     19  N   UNL     1       2.413   6.267  20.660  0.00  0.00    +0.000 N 
ATOM     20  H   UNL     1       3.138   6.375  21.348  0.00  0.00    +0.000 HD
BRANCH  17  22
ATOM     21  C   UNL     1       1.901   2.912  21.620  0.00  0.00    +0.000 C 
ATOM     22  O   UNL     1       2.348   4.274  21.661  0.00  0.00    +0.000 OA
ENDBRANCH  17  22
ENDBRANCH   1  19
TORSDOF 3
ENDMDL
MODEL 8
REMARK VINA RESULT:      -6.3      9.811     12.333
REMARK  Name = 
REMARK  4 active torsions:
REMARK  status: ('A' for Active; 'I' for Inactive)
REMARK    1  A    between atoms: C_1  and  O_2
REMARK    2  A    between atoms: O_2  and  C_3
REMARK    3  A    between atoms: N_5  and  C_6
REMARK    4  A    between atoms: C_15  and  C_16
REMARK                            x       y       z     vdW  Elec       q    Type
REMARK                         _______ _______ _______ _____ _____    ______ ____
ROOT
ATOM      1  C   UNL     1       8.389  13.085  22.967  0.00  0.00    +0.000 A 
ATOM      2  C   UNL     1       8.524  14.372  23.508  0.00  0.00    +0.000 A 
ATOM      3  C   UNL     1       9.431  15.290  22.992  0.00  0.00    +0.000 A 
ATOM      4  C   UNL     1      10.231  14.933  21.922  0.00  0.00    +0.000 A 
ATOM      5  C   UNL     1      10.132  13.650  21.347  0.00  0.00    +0.000 A 
ATOM      6  C   UNL     1       9.205  12.709  21.871  0.00  0.00    +0.000 A 
ATOM      7  C   UNL     1       9.128  11.317  21.273  0.00  0.00    +0.000 C 
ATOM      8  C   UNL     1       9.772  11.164  19.895  0.00  0.00    +0.000 C 
ATOM      9  C   UNL     1      11.130  11.850  19.845  0.00  0.00    +0.000 C 
ATOM     10  C   UNL     1      11.012  13.345  20.146  0.00  0.00    +0.000 C 
ENDROOT
BRANCH  10  11
ATOM     11  C   UNL     1      10.450  14.141  18.994  0.00  0.00    +0.000 A 
ATOM     12  C   UNL     1       9.166  14.213  18.483  0.00  0.00    +0.000 A 
ATOM     13  N   UNL     1       9.222  15.124  17.467  0.00  0.00    +0.000 N 
ATOM     14  C   UNL     1      10.513  15.556  17.376  0.00  0.00    +0.000 A 
ATOM     15  N   UNL     1      11.278  14.981  18.274  0.00  0.00    +0.000 NA
ATOM     16  H   UNL     1       8.450  15.433  16.896  0.00  0.00    +0.000 HD
ENDBRANCH  10  11
BRANCH   1  19
ATOM     17  C   UNL     1       6.095  12.276  23.489  0.00  0.00    +0.000 C 
ATOM     18  O   UNL     1       5.423  13.137  22.939  0.00  0.00    +0.000 OA
ATOM     19  N   UNL     1       7.464  12.168  23.517  0.00  0.00    +0.000 N 
ATOM     20  H   UNL     1       7.799  11.311  23.921  0.00  0.00    +0.000 HD
BRANCH  17  22
ATOM     21  C   UNL     1       5.899  11.203  25.540  0.00  0.00    +0.000 C 
ATOM     22  O   UNL     1       5.547  11.219  24.151  0.00  0.00    +0.000 OA
ENDBRANCH  17  22
ENDBRANCH   1  19
TORSDOF 3
ENDMDL
MODEL 9
REMARK VINA RESULT:      -6.3      1.811      3.311
REMARK  Name = 
REMARK  4 active torsions:
REMARK  status: ('A' for Active; 'I' for Inactive)
REMARK    1  A    between atoms: C_1  and  O_2
REMARK    2  A    between atoms: O_2  and  C_3
REMARK    3  A    between atoms: N_5  and  C_6
REMARK    4  A    between atoms: C_15  and  C_16
REMARK                            x       y       z     vdW  Elec       q    Type
REMARK                         _______ _______ _______ _____ _____    ______ ____
ROOT
ATOM      1  C   UNL     1       6.552   5.518  16.914  0.00  0.00    +0.000 A 
ATOM      2  C   UNL     1       7.219   4.662  17.803  0.00  0.00    +0.000 A 
ATOM      3  C   UNL     1       6.709   4.380  19.065  0.00  0.00    +0.000 A 
ATOM      4  C   UNL     1       5.518   4.958  19.467  0.00  0.00    +0.000 A 
ATOM      5  C   UNL     1       4.815   5.825  18.607  0.00  0.00    +0.000 A 
ATOM      6  C   UNL     1       5.333   6.116  17.316  0.00  0.00    +0.000 A 
ATOM      7  C   UNL     1       4.591   7.080  16.409  0.00  0.00    +0.000 C 
ATOM      8  C   UNL     1       3.138   7.355  16.800  0.00  0.00    +0.000 C 
ATOM      9  C   UNL     1       3.009   7.595  18.296  0.00  0.00    +0.000 C 
ATOM     10  C   UNL     1       3.492   6.388  19.100  0.00  0.00    +0.000 C 
ENDROOT
BRANCH  10  11
ATOM     11  C   UNL     1       2.513   5.239  19.095  0.00  0.00    +0.000 A 
ATOM     12  C   UNL     1       2.157   4.358  18.090  0.00  0.00    +0.000 A 
ATOM     13  N   UNL     1       1.260   3.496  18.653  0.00  0.00    +0.000 N 
ATOM     14  C   UNL     1       1.082   3.881  19.949  0.00  0.00    +0.000 A 
ATOM     15  N   UNL     1       1.815   4.929  20.246  0.00  0.00    +0.000 NA
ATOM     16  H   UNL     1       0.817   2.710  18.200  0.00  0.00    +0.000 HD
ENDBRANCH  10  11
BRANCH   1  19
ATOM     17  C   UNL     1       7.057   4.973  14.539  0.00  0.00    +0.000 C 
ATOM     18  O   UNL     1       6.498   3.891  14.434  0.00  0.00    +0.000 OA
ATOM     19  N   UNL     1       7.098   5.795  15.639  0.00  0.00    +0.000 N 
ATOM     20  H   UNL     1       7.508   6.695  15.462  0.00  0.00    +0.000 HD
BRANCH  17  22
ATOM     21  C   UNL     1       7.519   4.884  12.264  0.00  0.00    +0.000 C 
ATOM     22  O   UNL     1       7.718   5.568  13.508  0.00  0.00    +0.000 OA
ENDBRANCH  17  22
ENDBRANCH   1  19
TORSDOF 3
ENDMDL
