MODEL 1
REMARK VINA RESULT:      -8.7      0.000      0.000
REMARK  Name = 
REMARK  5 active torsions:
REMARK  status: ('A' for Active; 'I' for Inactive)
REMARK    1  A    between atoms: C_2  and  C_3
REMARK    2  A    between atoms: C_3  and  N_4
REMARK    3  A    between atoms: C_5  and  C_6
REMARK    4  A    between atoms: C_11  and  N_12
REMARK    5  A    between atoms: N_12  and  C_13
REMARK                            x       y       z     vdW  Elec       q    Type
REMARK                         _______ _______ _______ _____ _____    ______ ____
ROOT
ATOM      1  C   UNL     1       0.049  10.037  21.187  0.00  0.00    +0.000 A 
ATOM      2  N   UNL     1       0.016  10.536  22.426  0.00  0.00    +0.000 NA
ATOM      3  C   UNL     1      -0.383  11.795  22.508  0.00  0.00    +0.000 A 
ATOM      4  N   UNL     1      -1.653  11.867  23.053  0.00  0.00    +0.000 N 
ATOM      5  C   UNL     1      -2.729  12.711  22.868  0.00  0.00    +0.000 A 
ATOM      6  N   UNL     1      -2.600  13.984  22.479  0.00  0.00    +0.000 NA
ATOM      7  C   UNL     1      -3.689  14.769  22.600  0.00  0.00    +0.000 A 
ATOM      8  C   UNL     1      -4.899  14.332  23.080  0.00  0.00    +0.000 A 
ATOM      9  C   UNL     1      -4.960  12.995  23.370  0.00  0.00    +0.000 A 
ATOM     10  N   UNL     1      -3.904  12.171  23.254  0.00  0.00    +0.000 NA
ATOM     11  N   UNL     1       0.096  12.677  21.649  0.00  0.00    +0.000 NA
ATOM     12  C   UNL     1       0.083  12.241  20.400  0.00  0.00    +0.000 A 
ATOM     13  C   UNL     1       0.073  13.212  19.418  0.00  0.00    +0.000 A 
ATOM     14  C   UNL     1      -0.728  13.018  18.307  0.00  0.00    +0.000 A 
ATOM     15  C   UNL     1      -1.401  11.804  18.169  0.00  0.00    +0.000 A 
ATOM     16  C   UNL     1      -1.081  10.714  19.002  0.00  0.00    +0.000 A 
ATOM     17  C   UNL     1      -0.234  10.905  20.116  0.00  0.00    +0.000 A 
ATOM     18  H   UNL     1      -1.994  10.930  23.198  0.00  0.00    +0.000 HD
ENDROOT
BRANCH   1  19
ATOM     19  N   UNL     1       0.786   8.852  21.190  0.00  0.00    +0.000 N 
ATOM     20  H   UNL     1       0.040   8.246  21.565  0.00  0.00    +0.000 HD
BRANCH  19  28
ATOM     21  N   UNL     1       2.882   4.574  19.374  0.00  0.00    +0.000 N 
ATOM     22  C   UNL     1       3.556   4.472  18.161  0.00  0.00    +0.000 A 
ATOM     23  C   UNL     1       4.225   3.257  17.624  0.00  0.00    +0.000 C 
ATOM     24  N   UNL     1       3.540   5.629  17.532  0.00  0.00    +0.000 NA
ATOM     25  C   UNL     1       2.862   6.493  18.349  0.00  0.00    +0.000 A 
ATOM     26  C   UNL     1       2.613   7.841  18.145  0.00  0.00    +0.000 A 
ATOM     27  C   UNL     1       1.927   8.542  19.126  0.00  0.00    +0.000 A 
ATOM     28  C   UNL     1       1.465   7.948  20.329  0.00  0.00    +0.000 A 
ATOM     29  C   UNL     1       1.690   6.575  20.528  0.00  0.00    +0.000 A 
ATOM     30  C   UNL     1       2.421   5.872  19.523  0.00  0.00    +0.000 A 
BRANCH  21  31
ATOM     31  C   UNL     1       2.713   3.475  20.316  0.00  0.00    +0.000 C 
BRANCH  31  33
ATOM     32  C   UNL     1       0.724   2.526  19.105  0.00  0.00    +0.000 C 
ATOM     33  C   UNL     1       1.346   2.864  20.218  0.00  0.00    +0.000 C 
ENDBRANCH  31  33
ENDBRANCH  21  31
ENDBRANCH  19  28
ENDBRANCH   1  19
TORSDOF 4
ENDMDL
MODEL 2
REMARK VINA RESULT:      -8.7      2.698      4.060
REMARK  Name = 
REMARK  5 active torsions:
REMARK  status: ('A' for Active; 'I' for Inactive)
REMARK    1  A    between atoms: C_2  and  C_3
REMARK    2  A    between atoms: C_3  and  N_4
REMARK    3  A    between atoms: C_5  and  C_6
REMARK    4  A    between atoms: C_11  and  N_12
REMARK    5  A    between atoms: N_12  and  C_13
REMARK                            x       y       z     vdW  Elec       q    Type
REMARK                         _______ _______ _______ _____ _____    ______ ____
ROOT
ATOM      1  C   UNL     1       1.632   9.608  18.991  0.00  0.00    +0.000 A 
ATOM      2  N   UNL     1       1.601  10.763  18.319  0.00  0.00    +0.000 NA
ATOM      3  C   UNL     1       1.038  11.769  18.968  0.00  0.00    +0.000 A 
ATOM      4  N   UNL     1       1.995  12.682  19.372  0.00  0.00    +0.000 N 
ATOM      5  C   UNL     1       2.123  13.516  20.464  0.00  0.00    +0.000 A 
ATOM      6  N   UNL     1       1.076  14.008  21.135  0.00  0.00    +0.000 NA
ATOM      7  C   UNL     1       1.323  15.015  21.995  0.00  0.00    +0.000 A 
ATOM      8  C   UNL     1       2.572  15.541  22.221  0.00  0.00    +0.000 A 
ATOM      9  C   UNL     1       3.593  14.916  21.556  0.00  0.00    +0.000 A 
ATOM     10  N   UNL     1       3.396  13.901  20.697  0.00  0.00    +0.000 NA
ATOM     11  N   UNL     1      -0.095  11.560  19.616  0.00  0.00    +0.000 NA
ATOM     12  C   UNL     1      -0.077  10.457  20.346  0.00  0.00    +0.000 A 
ATOM     13  C   UNL     1      -0.960  10.417  21.407  0.00  0.00    +0.000 A 
ATOM     14  C   UNL     1      -0.529   9.870  22.603  0.00  0.00    +0.000 A 
ATOM     15  C   UNL     1       0.735   9.281  22.653  0.00  0.00    +0.000 A 
ATOM     16  C   UNL     1       1.449   9.024  21.468  0.00  0.00    +0.000 A 
ATOM     17  C   UNL     1       0.989   9.551  20.240  0.00  0.00    +0.000 A 
ATOM     18  H   UNL     1       2.905  12.324  19.127  0.00  0.00    +0.000 HD
ENDROOT
BRANCH   1  19
ATOM     19  N   UNL     1       1.930   8.571  18.105  0.00  0.00    +0.000 N 
ATOM     20  H   UNL     1       2.609   9.093  17.531  0.00  0.00    +0.000 HD
BRANCH  19  28
ATOM     21  N   UNL     1       2.395   3.516  18.573  0.00  0.00    +0.000 N 
ATOM     22  C   UNL     1       3.534   2.789  18.242  0.00  0.00    +0.000 A 
ATOM     23  C   UNL     1       3.725   1.324  18.414  0.00  0.00    +0.000 C 
ATOM     24  N   UNL     1       4.460   3.589  17.754  0.00  0.00    +0.000 NA
ATOM     25  C   UNL     1       3.923   4.847  17.781  0.00  0.00    +0.000 A 
ATOM     26  C   UNL     1       4.523   6.039  17.405  0.00  0.00    +0.000 A 
ATOM     27  C   UNL     1       3.802   7.215  17.544  0.00  0.00    +0.000 A 
ATOM     28  C   UNL     1       2.478   7.261  18.052  0.00  0.00    +0.000 A 
ATOM     29  C   UNL     1       1.853   6.052  18.408  0.00  0.00    +0.000 A 
ATOM     30  C   UNL     1       2.618   4.853  18.284  0.00  0.00    +0.000 A 
BRANCH  21  31
ATOM     31  C   UNL     1       1.183   2.935  19.136  0.00  0.00    +0.000 C 
BRANCH  31  33
ATOM     32  C   UNL     1       1.795   2.776  21.570  0.00  0.00    +0.000 C 
ATOM     33  C   UNL     1       1.042   3.251  20.596  0.00  0.00    +0.000 C 
ENDBRANCH  31  33
ENDBRANCH  21  31
ENDBRANCH  19  28
ENDBRANCH   1  19
TORSDOF 4
ENDMDL
MODEL 3
REMARK VINA RESULT:      -8.5      2.238      9.725
REMARK  Name = 
REMARK  5 active torsions:
REMARK  status: ('A' for Active; 'I' for Inactive)
REMARK    1  A    between atoms: C_2  and  C_3
REMARK    2  A    between atoms: C_3  and  N_4
REMARK    3  A    between atoms: C_5  and  C_6
REMARK    4  A    between atoms: C_11  and  N_12
REMARK    5  A    between atoms: N_12  and  C_13
REMARK                            x       y       z     vdW  Elec       q    Type
REMARK                         _______ _______ _______ _____ _____    ______ ____
ROOT
ATOM      1  C   UNL     1       2.841   5.981  19.772  0.00  0.00    +0.000 A 
ATOM      2  N   UNL     1       4.108   6.375  19.609  0.00  0.00    +0.000 NA
ATOM      3  C   UNL     1       4.893   5.492  19.013  0.00  0.00    +0.000 A 
ATOM      4  N   UNL     1       5.194   5.901  17.726  0.00  0.00    +0.000 N 
ATOM      5  C   UNL     1       5.426   5.236  16.539  0.00  0.00    +0.000 A 
ATOM      6  N   UNL     1       5.923   3.996  16.482  0.00  0.00    +0.000 NA
ATOM      7  C   UNL     1       6.356   3.570  15.279  0.00  0.00    +0.000 A 
ATOM      8  C   UNL     1       6.302   4.325  14.133  0.00  0.00    +0.000 A 
ATOM      9  C   UNL     1       5.698   5.547  14.272  0.00  0.00    +0.000 A 
ATOM     10  N   UNL     1       5.241   6.009  15.448  0.00  0.00    +0.000 NA
ATOM     11  N   UNL     1       4.829   4.225  19.383  0.00  0.00    +0.000 NA
ATOM     12  C   UNL     1       3.588   3.781  19.491  0.00  0.00    +0.000 A 
ATOM     13  C   UNL     1       3.419   2.416  19.371  0.00  0.00    +0.000 A 
ATOM     14  C   UNL     1       2.330   1.946  18.658  0.00  0.00    +0.000 A 
ATOM     15  C   UNL     1       1.389   2.864  18.191  0.00  0.00    +0.000 A 
ATOM     16  C   UNL     1       1.409   4.197  18.643  0.00  0.00    +0.000 A 
ATOM     17  C   UNL     1       2.504   4.667  19.402  0.00  0.00    +0.000 A 
ATOM     18  H   UNL     1       4.686   6.749  17.531  0.00  0.00    +0.000 HD
ENDROOT
BRANCH   1  19
ATOM     19  N   UNL     1       2.213   6.828  20.686  0.00  0.00    +0.000 N 
ATOM     20  H   UNL     1       3.067   7.131  21.179  0.00  0.00    +0.000 HD
BRANCH  19  28
ATOM     21  N   UNL     1      -0.719  10.772  19.326  0.00  0.00    +0.000 N 
ATOM     22  C   UNL     1      -1.195  11.745  20.198  0.00  0.00    +0.000 A 
ATOM     23  C   UNL     1      -2.007  12.936  19.831  0.00  0.00    +0.000 C 
ATOM     24  N   UNL     1      -0.813  11.480  21.431  0.00  0.00    +0.000 NA
ATOM     25  C   UNL     1      -0.071  10.333  21.356  0.00  0.00    +0.000 A 
ATOM     26  C   UNL     1       0.582   9.671  22.385  0.00  0.00    +0.000 A 
ATOM     27  C   UNL     1       1.310   8.531  22.080  0.00  0.00    +0.000 A 
ATOM     28  C   UNL     1       1.419   8.004  20.767  0.00  0.00    +0.000 A 
ATOM     29  C   UNL     1       0.736   8.655  19.724  0.00  0.00    +0.000 A 
ATOM     30  C   UNL     1       0.013   9.842  20.049  0.00  0.00    +0.000 A 
BRANCH  21  31
ATOM     31  C   UNL     1      -0.963  10.764  17.890  0.00  0.00    +0.000 C 
BRANCH  31  33
ATOM     32  C   UNL     1      -2.721   9.866  16.332  0.00  0.00    +0.000 C 
ATOM     33  C   UNL     1      -2.221  10.023  17.543  0.00  0.00    +0.000 C 
ENDBRANCH  31  33
ENDBRANCH  21  31
ENDBRANCH  19  28
ENDBRANCH   1  19
TORSDOF 4
ENDMDL
MODEL 4
REMARK VINA RESULT:      -8.4      0.986      1.215
REMARK  Name = 
REMARK  5 active torsions:
REMARK  status: ('A' for Active; 'I' for Inactive)
REMARK    1  A    between atoms: C_2  and  C_3
REMARK    2  A    between atoms: C_3  and  N_4
REMARK    3  A    between atoms: C_5  and  C_6
REMARK    4  A    between atoms: C_11  and  N_12
REMARK    5  A    between atoms: N_12  and  C_13
REMARK                            x       y       z     vdW  Elec       q    Type
REMARK                         _______ _______ _______ _____ _____    ______ ____
ROOT
ATOM      1  C   UNL     1       0.583   9.879  20.708  0.00  0.00    +0.000 A 
ATOM      2  N   UNL     1       0.807  10.608  21.806  0.00  0.00    +0.000 NA
ATOM      3  C   UNL     1       0.214  11.791  21.820  0.00  0.00    +0.000 A 
ATOM      4  N   UNL     1      -0.839  11.795  22.717  0.00  0.00    +0.000 N 
ATOM      5  C   UNL     1      -2.065  12.428  22.752  0.00  0.00    +0.000 A 
ATOM      6  N   UNL     1      -2.298  13.603  22.157  0.00  0.00    +0.000 NA
ATOM      7  C   UNL     1      -3.437  14.239  22.493  0.00  0.00    +0.000 A 
ATOM      8  C   UNL     1      -4.355  13.745  23.387  0.00  0.00    +0.000 A 
ATOM      9  C   UNL     1      -4.075  12.498  23.878  0.00  0.00    +0.000 A 
ATOM     10  N   UNL     1      -2.957  11.821  23.562  0.00  0.00    +0.000 NA
ATOM     11  N   UNL     1       0.252  12.540  20.731  0.00  0.00    +0.000 NA
ATOM     12  C   UNL     1      -0.029  11.864  19.629  0.00  0.00    +0.000 A 
ATOM     13  C   UNL     1      -0.501  12.608  18.566  0.00  0.00    +0.000 A 
ATOM     14  C   UNL     1      -1.531  12.086  17.802  0.00  0.00    +0.000 A 
ATOM     15  C   UNL     1      -1.970  10.788  18.066  0.00  0.00    +0.000 A 
ATOM     16  C   UNL     1      -1.226   9.942  18.910  0.00  0.00    +0.000 A 
ATOM     17  C   UNL     1      -0.151  10.467  19.662  0.00  0.00    +0.000 A 
ATOM     18  H   UNL     1      -0.939  10.868  23.100  0.00  0.00    +0.000 HD
ENDROOT
BRANCH   1  19
ATOM     19  N   UNL     1       1.504   8.832  20.658  0.00  0.00    +0.000 N 
ATOM     20  H   UNL     1       1.288   8.436  21.585  0.00  0.00    +0.000 HD
BRANCH  19  28
ATOM     21  N   UNL     1       1.690   3.946  19.213  0.00  0.00    +0.000 N 
ATOM     22  C   UNL     1       2.441   3.461  18.148  0.00  0.00    +0.000 A 
ATOM     23  C   UNL     1       2.562   2.039  17.731  0.00  0.00    +0.000 C 
ATOM     24  N   UNL     1       3.066   4.450  17.542  0.00  0.00    +0.000 NA
ATOM     25  C   UNL     1       2.729   5.585  18.229  0.00  0.00    +0.000 A 
ATOM     26  C   UNL     1       3.163   6.881  17.999  0.00  0.00    +0.000 A 
ATOM     27  C   UNL     1       2.716   7.887  18.842  0.00  0.00    +0.000 A 
ATOM     28  C   UNL     1       1.833   7.657  19.929  0.00  0.00    +0.000 A 
ATOM     29  C   UNL     1       1.366   6.349  20.149  0.00  0.00    +0.000 A 
ATOM     30  C   UNL     1       1.856   5.320  19.289  0.00  0.00    +0.000 A 
BRANCH  21  31
ATOM     31  C   UNL     1       0.876   3.116  20.092  0.00  0.00    +0.000 C 
BRANCH  31  33
ATOM     32  C   UNL     1       2.819   2.571  21.592  0.00  0.00    +0.000 C 
ATOM     33  C   UNL     1       1.548   2.877  21.412  0.00  0.00    +0.000 C 
ENDBRANCH  31  33
ENDBRANCH  21  31
ENDBRANCH  19  28
ENDBRANCH   1  19
TORSDOF 4
ENDMDL
MODEL 5
REMARK VINA RESULT:      -8.2      2.443      9.836
REMARK  Name = 
REMARK  5 active torsions:
REMARK  status: ('A' for Active; 'I' for Inactive)
REMARK    1  A    between atoms: C_2  and  C_3
REMARK    2  A    between atoms: C_3  and  N_4
REMARK    3  A    between atoms: C_5  and  C_6
REMARK    4  A    between atoms: C_11  and  N_12
REMARK    5  A    between atoms: N_12  and  C_13
REMARK                            x       y       z     vdW  Elec       q    Type
REMARK                         _______ _______ _______ _____ _____    ______ ____
ROOT
ATOM      1  C   UNL     1       2.552   5.919  19.820  0.00  0.00    +0.000 A 
ATOM      2  N   UNL     1       3.785   6.413  19.679  0.00  0.00    +0.000 NA
ATOM      3  C   UNL     1       4.660   5.581  19.138  0.00  0.00    +0.000 A 
ATOM      4  N   UNL     1       4.967   5.970  17.847  0.00  0.00    +0.000 N 
ATOM      5  C   UNL     1       5.292   5.288  16.692  0.00  0.00    +0.000 A 
ATOM      6  N   UNL     1       5.893   4.094  16.694  0.00  0.00    +0.000 NA
ATOM      7  C   UNL     1       6.399   3.666  15.520  0.00  0.00    +0.000 A 
ATOM      8  C   UNL     1       6.318   4.375  14.347  0.00  0.00    +0.000 A 
ATOM      9  C   UNL     1       5.609   5.545  14.424  0.00  0.00    +0.000 A 
ATOM     10  N   UNL     1       5.077   6.005  15.569  0.00  0.00    +0.000 NA
ATOM     11  N   UNL     1       4.692   4.326  19.552  0.00  0.00    +0.000 NA
ATOM     12  C   UNL     1       3.489   3.781  19.640  0.00  0.00    +0.000 A 
ATOM     13  C   UNL     1       3.440   2.404  19.564  0.00  0.00    +0.000 A 
ATOM     14  C   UNL     1       2.418   1.819  18.838  0.00  0.00    +0.000 A 
ATOM     15  C   UNL     1       1.418   2.638  18.311  0.00  0.00    +0.000 A 
ATOM     16  C   UNL     1       1.311   3.982  18.715  0.00  0.00    +0.000 A 
ATOM     17  C   UNL     1       2.338   4.568  19.488  0.00  0.00    +0.000 A 
ATOM     18  H   UNL     1       4.396   6.766  17.607  0.00  0.00    +0.000 HD
ENDROOT
BRANCH   1  19
ATOM     19  N   UNL     1       1.825   6.739  20.684  0.00  0.00    +0.000 N 
ATOM     20  H   UNL     1       2.483   6.694  21.477  0.00  0.00    +0.000 HD
BRANCH  19  28
ATOM     21  N   UNL     1       0.641  11.583  19.624  0.00  0.00    +0.000 N 
ATOM     22  C   UNL     1       0.017  12.460  20.506  0.00  0.00    +0.000 A 
ATOM     23  C   UNL     1      -0.296  13.891  20.252  0.00  0.00    +0.000 C 
ATOM     24  N   UNL     1      -0.259  11.847  21.640  0.00  0.00    +0.000 NA
ATOM     25  C   UNL     1       0.202  10.566  21.497  0.00  0.00    +0.000 A 
ATOM     26  C   UNL     1       0.179   9.543  22.432  0.00  0.00    +0.000 A 
ATOM     27  C   UNL     1       0.733   8.320  22.086  0.00  0.00    +0.000 A 
ATOM     28  C   UNL     1       1.322   8.061  20.821  0.00  0.00    +0.000 A 
ATOM     29  C   UNL     1       1.323   9.086  19.859  0.00  0.00    +0.000 A 
ATOM     30  C   UNL     1       0.773  10.348  20.239  0.00  0.00    +0.000 A 
BRANCH  21  31
ATOM     31  C   UNL     1       1.077  11.941  18.281  0.00  0.00    +0.000 C 
BRANCH  31  33
ATOM     32  C   UNL     1       2.880  13.693  18.278  0.00  0.00    +0.000 C 
ATOM     33  C   UNL     1       2.495  12.431  18.269  0.00  0.00    +0.000 C 
ENDBRANCH  31  33
ENDBRANCH  21  31
ENDBRANCH  19  28
ENDBRANCH   1  19
TORSDOF 4
ENDMDL
MODEL 6
REMARK VINA RESULT:      -8.2      1.651      2.780
REMARK  Name = 
REMARK  5 active torsions:
REMARK  status: ('A' for Active; 'I' for Inactive)
REMARK    1  A    between atoms: C_2  and  C_3
REMARK    2  A    between atoms: C_3  and  N_4
REMARK    3  A    between atoms: C_5  and  C_6
REMARK    4  A    between atoms: C_11  and  N_12
REMARK    5  A    between atoms: N_12  and  C_13
REMARK                            x       y       z     vdW  Elec       q    Type
REMARK                         _______ _______ _______ _____ _____    ______ ____
ROOT
ATOM      1  C   UNL     1       0.632   8.758  21.134  0.00  0.00    +0.000 A 
ATOM      2  N   UNL     1       0.767   9.253  22.368  0.00  0.00    +0.000 NA
ATOM      3  C   UNL     1       0.570  10.557  22.469  0.00  0.00    +0.000 A 
ATOM      4  N   UNL     1      -0.630  10.819  23.106  0.00  0.00    +0.000 N 
ATOM      5  C   UNL     1      -1.578  11.815  22.994  0.00  0.00    +0.000 A 
ATOM      6  N   UNL     1      -1.288  13.056  22.586  0.00  0.00    +0.000 NA
ATOM      7  C   UNL     1      -2.234  13.996  22.781  0.00  0.00    +0.000 A 
ATOM      8  C   UNL     1      -3.457  13.745  23.353  0.00  0.00    +0.000 A 
ATOM      9  C   UNL     1      -3.697  12.432  23.657  0.00  0.00    +0.000 A 
ATOM     10  N   UNL     1      -2.789  11.459  23.470  0.00  0.00    +0.000 NA
ATOM     11  N   UNL     1       1.111  11.360  21.569  0.00  0.00    +0.000 NA
ATOM     12  C   UNL     1       0.939  10.934  20.328  0.00  0.00    +0.000 A 
ATOM     13  C   UNL     1       1.003  11.898  19.342  0.00  0.00    +0.000 A 
ATOM     14  C   UNL     1       0.101  11.830  18.294  0.00  0.00    +0.000 A 
ATOM     15  C   UNL     1      -0.756  10.732  18.218  0.00  0.00    +0.000 A 
ATOM     16  C   UNL     1      -0.543   9.604  19.033  0.00  0.00    +0.000 A 
ATOM     17  C   UNL     1       0.404   9.661  20.080  0.00  0.00    +0.000 A 
ATOM     18  H   UNL     1      -1.097   9.943  23.284  0.00  0.00    +0.000 HD
ENDROOT
BRANCH   1  19
ATOM     19  N   UNL     1       1.180   7.475  21.092  0.00  0.00    +0.000 N 
ATOM     20  H   UNL     1       0.300   6.961  21.253  0.00  0.00    +0.000 HD
BRANCH  19  28
ATOM     21  N   UNL     1       4.219   5.696  17.406  0.00  0.00    +0.000 N 
ATOM     22  C   UNL     1       4.387   4.350  17.095  0.00  0.00    +0.000 A 
ATOM     23  C   UNL     1       5.222   3.798  15.996  0.00  0.00    +0.000 C 
ATOM     24  N   UNL     1       3.680   3.601  17.916  0.00  0.00    +0.000 NA
ATOM     25  C   UNL     1       3.036   4.467  18.757  0.00  0.00    +0.000 A 
ATOM     26  C   UNL     1       2.143   4.165  19.773  0.00  0.00    +0.000 A 
ATOM     27  C   UNL     1       1.578   5.209  20.490  0.00  0.00    +0.000 A 
ATOM     28  C   UNL     1       1.870   6.574  20.237  0.00  0.00    +0.000 A 
ATOM     29  C   UNL     1       2.796   6.886  19.226  0.00  0.00    +0.000 A 
ATOM     30  C   UNL     1       3.349   5.802  18.479  0.00  0.00    +0.000 A 
BRANCH  21  31
ATOM     31  C   UNL     1       4.863   6.791  16.693  0.00  0.00    +0.000 C 
BRANCH  31  33
ATOM     32  C   UNL     1       7.308   6.607  17.254  0.00  0.00    +0.000 C 
ATOM     33  C   UNL     1       6.140   7.213  17.359  0.00  0.00    +0.000 C 
ENDBRANCH  31  33
ENDBRANCH  21  31
ENDBRANCH  19  28
ENDBRANCH   1  19
TORSDOF 4
ENDMDL
MODEL 7
REMARK VINA RESULT:      -8.2      1.539      2.145
REMARK  Name = 
REMARK  5 active torsions:
REMARK  status: ('A' for Active; 'I' for Inactive)
REMARK    1  A    between atoms: C_2  and  C_3
REMARK    2  A    between atoms: C_3  and  N_4
REMARK    3  A    between atoms: C_5  and  C_6
REMARK    4  A    between atoms: C_11  and  N_12
REMARK    5  A    between atoms: N_12  and  C_13
REMARK                            x       y       z     vdW  Elec       q    Type
REMARK                         _______ _______ _______ _____ _____    ______ ____
ROOT
ATOM      1  C   UNL     1       0.716  10.148  18.799  0.00  0.00    +0.000 A 
ATOM      2  N   UNL     1       1.125  11.096  19.648  0.00  0.00    +0.000 NA
ATOM      3  C   UNL     1       0.230  12.036  19.905  0.00  0.00    +0.000 A 
ATOM      4  N   UNL     1      -0.268  11.895  21.188  0.00  0.00    +0.000 N 
ATOM      5  C   UNL     1      -1.494  12.139  21.772  0.00  0.00    +0.000 A 
ATOM      6  N   UNL     1      -2.346  13.066  21.323  0.00  0.00    +0.000 NA
ATOM      7  C   UNL     1      -3.373  13.392  22.133  0.00  0.00    +0.000 A 
ATOM      8  C   UNL     1      -3.589  12.822  23.363  0.00  0.00    +0.000 A 
ATOM      9  C   UNL     1      -2.716  11.821  23.700  0.00  0.00    +0.000 A 
ATOM     10  N   UNL     1      -1.686  11.455  22.919  0.00  0.00    +0.000 NA
ATOM     11  N   UNL     1      -0.461  12.554  18.904  0.00  0.00    +0.000 NA
ATOM     12  C   UNL     1      -0.938  11.639  18.077  0.00  0.00    +0.000 A 
ATOM     13  C   UNL     1      -2.042  12.007  17.335  0.00  0.00    +0.000 A 
ATOM     14  C   UNL     1      -3.052  11.079  17.151  0.00  0.00    +0.000 A 
ATOM     15  C   UNL     1      -2.862   9.779  17.622  0.00  0.00    +0.000 A 
ATOM     16  C   UNL     1      -1.589   9.354  18.046  0.00  0.00    +0.000 A 
ATOM     17  C   UNL     1      -0.547  10.297  18.199  0.00  0.00    +0.000 A 
ATOM     18  H   UNL     1       0.130  11.065  21.598  0.00  0.00    +0.000 HD
ENDROOT
BRANCH   1  19
ATOM     19  N   UNL     1       1.823   9.424  18.355  0.00  0.00    +0.000 N 
ATOM     20  H   UNL     1       2.543  10.023  18.787  0.00  0.00    +0.000 HD
BRANCH  19  28
ATOM     21  N   UNL     1       3.017   4.748  19.998  0.00  0.00    +0.000 N 
ATOM     22  C   UNL     1       3.982   3.926  19.425  0.00  0.00    +0.000 A 
ATOM     23  C   UNL     1       4.394   2.581  19.907  0.00  0.00    +0.000 C 
ATOM     24  N   UNL     1       4.515   4.514  18.373  0.00  0.00    +0.000 NA
ATOM     25  C   UNL     1       3.900   5.733  18.271  0.00  0.00    +0.000 A 
ATOM     26  C   UNL     1       4.143   6.736  17.346  0.00  0.00    +0.000 A 
ATOM     27  C   UNL     1       3.421   7.915  17.444  0.00  0.00    +0.000 A 
ATOM     28  C   UNL     1       2.442   8.147  18.444  0.00  0.00    +0.000 A 
ATOM     29  C   UNL     1       2.170   7.123  19.368  0.00  0.00    +0.000 A 
ATOM     30  C   UNL     1       2.941   5.925  19.271  0.00  0.00    +0.000 A 
BRANCH  21  31
ATOM     31  C   UNL     1       2.234   4.398  21.177  0.00  0.00    +0.000 C 
BRANCH  31  33
ATOM     32  C   UNL     1       0.706   3.128  19.636  0.00  0.00    +0.000 C 
ATOM     33  C   UNL     1       1.130   3.437  20.847  0.00  0.00    +0.000 C 
ENDBRANCH  31  33
ENDBRANCH  21  31
ENDBRANCH  19  28
ENDBRANCH   1  19
TORSDOF 4
ENDMDL
MODEL 8
REMARK VINA RESULT:      -8.2      1.387      1.726
REMARK  Name = 
REMARK  5 active torsions:
REMARK  status: ('A' for Active; 'I' for Inactive)
REMARK    1  A    between atoms: C_2  and  C_3
REMARK    2  A    between atoms: C_3  and  N_4
REMARK    3  A    between atoms: C_5  and  C_6
REMARK    4  A    between atoms: C_11  and  N_12
REMARK    5  A    between atoms: N_12  and  C_13
REMARK                            x       y       z     vdW  Elec       q    Type
REMARK                         _______ _______ _______ _____ _____    ______ ____
ROOT
ATOM      1  C   UNL     1       0.618  10.715  19.504  0.00  0.00    +0.000 A 
ATOM      2  N   UNL     1       0.715  10.350  20.785  0.00  0.00    +0.000 NA
ATOM      3  C   UNL     1       0.692  11.349  21.652  0.00  0.00    +0.000 A 
ATOM      4  N   UNL     1      -0.510  11.370  22.337  0.00  0.00    +0.000 N 
ATOM      5  C   UNL     1      -1.298  12.375  22.859  0.00  0.00    +0.000 A 
ATOM      6  N   UNL     1      -0.807  13.548  23.273  0.00  0.00    +0.000 NA
ATOM      7  C   UNL     1      -1.627  14.326  24.007  0.00  0.00    +0.000 A 
ATOM      8  C   UNL     1      -2.917  13.985  24.333  0.00  0.00    +0.000 A 
ATOM      9  C   UNL     1      -3.361  12.808  23.792  0.00  0.00    +0.000 A 
ATOM     10  N   UNL     1      -2.583  12.006  23.045  0.00  0.00    +0.000 NA
ATOM     11  N   UNL     1       1.413  12.429  21.405  0.00  0.00    +0.000 NA
ATOM     12  C   UNL     1       1.289  12.859  20.160  0.00  0.00    +0.000 A 
ATOM     13  C   UNL     1       1.569  14.194  19.949  0.00  0.00    +0.000 A 
ATOM     14  C   UNL     1       0.759  14.909  19.084  0.00  0.00    +0.000 A 
ATOM     15  C   UNL     1      -0.232  14.227  18.377  0.00  0.00    +0.000 A 
ATOM     16  C   UNL     1      -0.247  12.819  18.349  0.00  0.00    +0.000 A 
ATOM     17  C   UNL     1       0.608  12.090  19.206  0.00  0.00    +0.000 A 
ATOM     18  H   UNL     1      -1.107  10.650  21.961  0.00  0.00    +0.000 HD
ENDROOT
BRANCH   1  19
ATOM     19  N   UNL     1       0.985   9.640  18.692  0.00  0.00    +0.000 N 
ATOM     20  H   UNL     1       1.390  10.199  17.926  0.00  0.00    +0.000 HD
BRANCH  19  28
ATOM     21  N   UNL     1       3.008   5.115  19.886  0.00  0.00    +0.000 N 
ATOM     22  C   UNL     1       4.090   4.532  19.235  0.00  0.00    +0.000 A 
ATOM     23  C   UNL     1       4.739   3.242  19.588  0.00  0.00    +0.000 C 
ATOM     24  N   UNL     1       4.491   5.298  18.241  0.00  0.00    +0.000 NA
ATOM     25  C   UNL     1       3.672   6.394  18.256  0.00  0.00    +0.000 A 
ATOM     26  C   UNL     1       3.718   7.504  17.427  0.00  0.00    +0.000 A 
ATOM     27  C   UNL     1       2.803   8.525  17.638  0.00  0.00    +0.000 A 
ATOM     28  C   UNL     1       1.818   8.489  18.660  0.00  0.00    +0.000 A 
ATOM     29  C   UNL     1       1.748   7.353  19.485  0.00  0.00    +0.000 A 
ATOM     30  C   UNL     1       2.714   6.323  19.273  0.00  0.00    +0.000 A 
BRANCH  21  31
ATOM     31  C   UNL     1       2.322   4.528  21.030  0.00  0.00    +0.000 C 
BRANCH  31  33
ATOM     32  C   UNL     1       0.942   2.705  19.983  0.00  0.00    +0.000 C 
ATOM     33  C   UNL     1       1.044   3.853  20.626  0.00  0.00    +0.000 C 
ENDBRANCH  31  33
ENDBRANCH  21  31
ENDBRANCH  19  28
ENDBRANCH   1  19
TORSDOF 4
ENDMDL
MODEL 9
REMARK VINA RESULT:      -8.2      1.382      1.880
REMARK  Name = 
REMARK  5 active torsions:
REMARK  status: ('A' for Active; 'I' for Inactive)
REMARK    1  A    between atoms: C_2  and  C_3
REMARK    2  A    between atoms: C_3  and  N_4
REMARK    3  A    between atoms: C_5  and  C_6
REMARK    4  A    between atoms: C_11  and  N_12
REMARK    5  A    between atoms: N_12  and  C_13
REMARK                            x       y       z     vdW  Elec       q    Type
REMARK                         _______ _______ _______ _____ _____    ______ ____
ROOT
ATOM      1  C   UNL     1      -0.444  11.172  21.865  0.00  0.00    +0.000 A 
ATOM      2  N   UNL     1      -1.197  11.016  22.958  0.00  0.00    +0.000 NA
ATOM      3  C   UNL     1      -1.822  12.110  23.364  0.00  0.00    +0.000 A 
ATOM      4  N   UNL     1      -3.178  12.018  23.106  0.00  0.00    +0.000 N 
ATOM      5  C   UNL     1      -4.154  12.934  22.771  0.00  0.00    +0.000 A 
ATOM      6  N   UNL     1      -4.101  14.222  23.129  0.00  0.00    +0.000 NA
ATOM      7  C   UNL     1      -5.231  14.941  22.981  0.00  0.00    +0.000 A 
ATOM      8  C   UNL     1      -6.404  14.430  22.482  0.00  0.00    +0.000 A 
ATOM      9  C   UNL     1      -6.338  13.129  22.061  0.00  0.00    +0.000 A 
ATOM     10  N   UNL     1      -5.230  12.376  22.178  0.00  0.00    +0.000 NA
ATOM     11  N   UNL     1      -1.159  13.253  23.398  0.00  0.00    +0.000 NA
ATOM     12  C   UNL     1      -0.453  13.472  22.301  0.00  0.00    +0.000 A 
ATOM     13  C   UNL     1      -0.155  14.792  22.025  0.00  0.00    +0.000 A 
ATOM     14  C   UNL     1      -0.227  15.223  20.712  0.00  0.00    +0.000 A 
ATOM     15  C   UNL     1      -0.484  14.284  19.711  0.00  0.00    +0.000 A 
ATOM     16  C   UNL     1      -0.422  12.907  19.994  0.00  0.00    +0.000 A 
ATOM     17  C   UNL     1      -0.311  12.467  21.332  0.00  0.00    +0.000 A 
ATOM     18  H   UNL     1      -3.353  11.158  22.610  0.00  0.00    +0.000 HD
ENDROOT
BRANCH   1  19
ATOM     19  N   UNL     1       0.407  10.074  21.735  0.00  0.00    +0.000 N 
ATOM     20  H   UNL     1      -0.182   9.402  22.251  0.00  0.00    +0.000 HD
BRANCH  19  28
ATOM     21  N   UNL     1       2.563   5.989  19.576  0.00  0.00    +0.000 N 
ATOM     22  C   UNL     1       3.009   5.929  18.260  0.00  0.00    +0.000 A 
ATOM     23  C   UNL     1       3.689   4.776  17.612  0.00  0.00    +0.000 C 
ATOM     24  N   UNL     1       2.759   7.065  17.640  0.00  0.00    +0.000 NA
ATOM     25  C   UNL     1       2.158   7.874  18.566  0.00  0.00    +0.000 A 
ATOM     26  C   UNL     1       1.737   9.185  18.408  0.00  0.00    +0.000 A 
ATOM     27  C   UNL     1       1.175   9.835  19.496  0.00  0.00    +0.000 A 
ATOM     28  C   UNL     1       1.006   9.224  20.766  0.00  0.00    +0.000 A 
ATOM     29  C   UNL     1       1.403   7.885  20.924  0.00  0.00    +0.000 A 
ATOM     30  C   UNL     1       2.005   7.238  19.803  0.00  0.00    +0.000 A 
BRANCH  21  31
ATOM     31  C   UNL     1       2.683   4.900  20.536  0.00  0.00    +0.000 C 
BRANCH  31  33
ATOM     32  C   UNL     1       1.276   2.887  21.076  0.00  0.00    +0.000 C 
ATOM     33  C   UNL     1       1.397   4.139  20.677  0.00  0.00    +0.000 C 
ENDBRANCH  31  33
ENDBRANCH  21  31
ENDBRANCH  19  28
ENDBRANCH   1  19
TORSDOF 4
ENDMDL
