MODEL 1
REMARK VINA RESULT:      -7.3      0.000      0.000
REMARK  Name = 
REMARK  5 active torsions:
REMARK  status: ('A' for Active; 'I' for Inactive)
REMARK    1  A    between atoms: C_1  and  C_2
REMARK    2  A    between atoms: N_6  and  C_7
REMARK    3  A    between atoms: C_7  and  C_8
REMARK    4  A    between atoms: N_14  and  C_15
REMARK    5  A    between atoms: C_15  and  C_16
REMARK                            x       y       z     vdW  Elec       q    Type
REMARK                         _______ _______ _______ _____ _____    ______ ____
ROOT
ATOM      1  C   UNL     1       5.080   4.554  17.565  0.00  0.00    +0.000 A 
ATOM      2  N   UNL     1       5.763   4.107  18.698  0.00  0.00    +0.000 NA
ATOM      3  C   UNL     1       4.810   3.412  19.305  0.00  0.00    +0.000 A 
ATOM      4  N   UNL     1       3.628   3.684  18.670  0.00  0.00    +0.000 N 
ATOM      5  C   UNL     1       3.831   4.939  18.114  0.00  0.00    +0.000 A 
ATOM      6  C   UNL     1       3.357   6.145  18.971  0.00  0.00    +0.000 C 
ATOM      7  N   UNL     1       2.344   5.900  20.042  0.00  0.00    +0.000 NA
ATOM      8  C   UNL     1       1.222   5.002  19.768  0.00  0.00    +0.000 C 
ATOM      9  C   UNL     1       1.593   3.533  19.959  0.00  0.00    +0.000 C 
ATOM     10  C   UNL     1       2.347   3.038  18.760  0.00  0.00    +0.000 C 
ENDROOT
BRANCH   1  11
ATOM     11  C   UNL     1       5.462   3.666  16.340  0.00  0.00    +0.000 C 
BRANCH  11  17
ATOM     12  C   UNL     1       5.199   3.437  13.196  0.00  0.00    +0.000 C 
ATOM     13  C   UNL     1       6.241   4.161  13.957  0.00  0.00    +0.000 A 
ATOM     14  C   UNL     1       7.211   5.030  13.506  0.00  0.00    +0.000 A 
ATOM     15  N   UNL     1       7.904   5.535  14.559  0.00  0.00    +0.000 NA
ATOM     16  N   UNL     1       7.393   5.021  15.670  0.00  0.00    +0.000 NA
ATOM     17  N   UNL     1       6.421   4.140  15.337  0.00  0.00    +0.000 N 
ENDBRANCH  11  17
ENDBRANCH   1  11
BRANCH   7  18
ATOM     18  C   UNL     1       1.862   7.122  20.730  0.00  0.00    +0.000 C 
BRANCH  18  19
ATOM     19  C   UNL     1       1.500   8.300  19.844  0.00  0.00    +0.000 A 
ATOM     20  C   UNL     1       1.913   8.557  18.551  0.00  0.00    +0.000 A 
ATOM     21  C   UNL     1       1.393   9.782  18.036  0.00  0.00    +0.000 A 
ATOM     22  C   UNL     1       0.630  10.456  18.960  0.00  0.00    +0.000 A 
ATOM     23  S   UNL     1       0.552   9.611  20.445  0.00  0.00    +0.000 S 
ENDBRANCH  18  19
ENDBRANCH   7  18
TORSDOF 4
ENDMDL
MODEL 2
REMARK VINA RESULT:      -7.3      2.166      3.440
REMARK  Name = 
REMARK  5 active torsions:
REMARK  status: ('A' for Active; 'I' for Inactive)
REMARK    1  A    between atoms: C_1  and  C_2
REMARK    2  A    between atoms: N_6  and  C_7
REMARK    3  A    between atoms: C_7  and  C_8
REMARK    4  A    between atoms: N_14  and  C_15
REMARK    5  A    between atoms: C_15  and  C_16
REMARK                            x       y       z     vdW  Elec       q    Type
REMARK                         _______ _______ _______ _____ _____    ______ ____
ROOT
ATOM      1  C   UNL     1       3.170   4.674  19.687  0.00  0.00    +0.000 A 
ATOM      2  N   UNL     1       2.043   4.237  18.988  0.00  0.00    +0.000 NA
ATOM      3  C   UNL     1       1.975   5.152  18.030  0.00  0.00    +0.000 A 
ATOM      4  N   UNL     1       2.851   6.155  18.348  0.00  0.00    +0.000 N 
ATOM      5  C   UNL     1       2.959   6.075  19.729  0.00  0.00    +0.000 A 
ATOM      6  C   UNL     1       2.004   6.995  20.538  0.00  0.00    +0.000 C 
ATOM      7  N   UNL     1       1.411   8.182  19.851  0.00  0.00    +0.000 NA
ATOM      8  C   UNL     1       2.252   8.982  18.961  0.00  0.00    +0.000 C 
ATOM      9  C   UNL     1       2.354   8.381  17.561  0.00  0.00    +0.000 C 
ATOM     10  C   UNL     1       3.343   7.252  17.562  0.00  0.00    +0.000 C 
ENDROOT
BRANCH   1  11
ATOM     11  C   UNL     1       4.404   3.808  19.283  0.00  0.00    +0.000 C 
BRANCH  11  17
ATOM     12  C   UNL     1       5.365   4.231  16.298  0.00  0.00    +0.000 C 
ATOM     13  C   UNL     1       6.009   4.745  17.527  0.00  0.00    +0.000 A 
ATOM     14  C   UNL     1       7.040   5.650  17.665  0.00  0.00    +0.000 A 
ATOM     15  N   UNL     1       7.258   5.904  18.980  0.00  0.00    +0.000 NA
ATOM     16  N   UNL     1       6.386   5.196  19.685  0.00  0.00    +0.000 NA
ATOM     17  N   UNL     1       5.652   4.438  18.838  0.00  0.00    +0.000 N 
ENDBRANCH  11  17
ENDBRANCH   1  11
BRANCH   7  18
ATOM     18  C   UNL     1       0.608   9.069  20.727  0.00  0.00    +0.000 C 
BRANCH  18  19
ATOM     19  C   UNL     1      -0.096  10.231  20.052  0.00  0.00    +0.000 A 
ATOM     20  C   UNL     1      -1.023  10.192  19.029  0.00  0.00    +0.000 A 
ATOM     21  C   UNL     1      -1.454  11.490  18.620  0.00  0.00    +0.000 A 
ATOM     22  C   UNL     1      -0.816  12.494  19.310  0.00  0.00    +0.000 A 
ATOM     23  S   UNL     1       0.304  11.865  20.440  0.00  0.00    +0.000 S 
ENDBRANCH  18  19
ENDBRANCH   7  18
TORSDOF 4
ENDMDL
MODEL 3
REMARK VINA RESULT:      -7.0      2.515      4.446
REMARK  Name = 
REMARK  5 active torsions:
REMARK  status: ('A' for Active; 'I' for Inactive)
REMARK    1  A    between atoms: C_1  and  C_2
REMARK    2  A    between atoms: N_6  and  C_7
REMARK    3  A    between atoms: C_7  and  C_8
REMARK    4  A    between atoms: N_14  and  C_15
REMARK    5  A    between atoms: C_15  and  C_16
REMARK                            x       y       z     vdW  Elec       q    Type
REMARK                         _______ _______ _______ _____ _____    ______ ____
ROOT
ATOM      1  C   UNL     1       3.641   5.407  17.460  0.00  0.00    +0.000 A 
ATOM      2  N   UNL     1       4.813   5.798  18.111  0.00  0.00    +0.000 NA
ATOM      3  C   UNL     1       4.356   6.010  19.339  0.00  0.00    +0.000 A 
ATOM      4  N   UNL     1       2.988   5.984  19.285  0.00  0.00    +0.000 N 
ATOM      5  C   UNL     1       2.701   6.336  17.974  0.00  0.00    +0.000 A 
ATOM      6  C   UNL     1       2.430   7.844  17.721  0.00  0.00    +0.000 C 
ATOM      7  N   UNL     1       2.037   8.700  18.882  0.00  0.00    +0.000 NA
ATOM      8  C   UNL     1       1.090   8.173  19.864  0.00  0.00    +0.000 C 
ATOM      9  C   UNL     1       1.768   7.287  20.908  0.00  0.00    +0.000 C 
ATOM     10  C   UNL     1       2.011   5.921  20.337  0.00  0.00    +0.000 C 
ENDROOT
BRANCH   1  11
ATOM     11  C   UNL     1       3.615   3.853  17.320  0.00  0.00    +0.000 C 
BRANCH  11  17
ATOM     12  C   UNL     1       4.235   2.327  20.021  0.00  0.00    +0.000 C 
ATOM     13  C   UNL     1       2.919   2.486  19.364  0.00  0.00    +0.000 A 
ATOM     14  C   UNL     1       1.661   2.179  19.836  0.00  0.00    +0.000 A 
ATOM     15  N   UNL     1       0.722   2.569  18.936  0.00  0.00    +0.000 NA
ATOM     16  N   UNL     1       1.347   3.128  17.909  0.00  0.00    +0.000 NA
ATOM     17  N   UNL     1       2.683   3.042  18.110  0.00  0.00    +0.000 N 
ENDBRANCH  11  17
ENDBRANCH   1  11
BRANCH   7  18
ATOM     18  C   UNL     1       1.684  10.097  18.531  0.00  0.00    +0.000 C 
BRANCH  18  19
ATOM     19  C   UNL     1       0.210  10.453  18.571  0.00  0.00    +0.000 A 
ATOM     20  C   UNL     1      -0.802  10.006  17.743  0.00  0.00    +0.000 A 
ATOM     21  C   UNL     1      -2.071  10.578  18.057  0.00  0.00    +0.000 A 
ATOM     22  C   UNL     1      -1.995  11.482  19.090  0.00  0.00    +0.000 A 
ATOM     23  S   UNL     1      -0.393  11.641  19.669  0.00  0.00    +0.000 S 
ENDBRANCH  18  19
ENDBRANCH   7  18
TORSDOF 4
ENDMDL
MODEL 4
REMARK VINA RESULT:      -7.0      1.575      2.034
REMARK  Name = 
REMARK  5 active torsions:
REMARK  status: ('A' for Active; 'I' for Inactive)
REMARK    1  A    between atoms: C_1  and  C_2
REMARK    2  A    between atoms: N_6  and  C_7
REMARK    3  A    between atoms: C_7  and  C_8
REMARK    4  A    between atoms: N_14  and  C_15
REMARK    5  A    between atoms: C_15  and  C_16
REMARK                            x       y       z     vdW  Elec       q    Type
REMARK                         _______ _______ _______ _____ _____    ______ ____
ROOT
ATOM      1  C   UNL     1       6.384   6.005  17.433  0.00  0.00    +0.000 A 
ATOM      2  N   UNL     1       6.672   6.112  18.795  0.00  0.00    +0.000 NA
ATOM      3  C   UNL     1       5.693   5.383  19.314  0.00  0.00    +0.000 A 
ATOM      4  N   UNL     1       4.795   5.119  18.315  0.00  0.00    +0.000 N 
ATOM      5  C   UNL     1       4.976   6.165  17.422  0.00  0.00    +0.000 A 
ATOM      6  C   UNL     1       4.030   7.384  17.606  0.00  0.00    +0.000 C 
ATOM      7  N   UNL     1       2.752   7.185  18.354  0.00  0.00    +0.000 NA
ATOM      8  C   UNL     1       1.973   5.969  18.118  0.00  0.00    +0.000 C 
ATOM      9  C   UNL     1       2.486   4.782  18.930  0.00  0.00    +0.000 C 
ATOM     10  C   UNL     1       3.696   4.195  18.265  0.00  0.00    +0.000 C 
ENDROOT
BRANCH   1  11
ATOM     11  C   UNL     1       7.327   4.946  16.781  0.00  0.00    +0.000 C 
BRANCH  11  17
ATOM     12  C   UNL     1       5.277   3.024  15.326  0.00  0.00    +0.000 C 
ATOM     13  C   UNL     1       6.269   3.920  14.692  0.00  0.00    +0.000 A 
ATOM     14  C   UNL     1       6.418   4.264  13.366  0.00  0.00    +0.000 A 
ATOM     15  N   UNL     1       7.407   5.186  13.236  0.00  0.00    +0.000 NA
ATOM     16  N   UNL     1       7.882   5.450  14.445  0.00  0.00    +0.000 NA
ATOM     17  N   UNL     1       7.254   4.657  15.345  0.00  0.00    +0.000 N 
ENDBRANCH  11  17
ENDBRANCH   1  11
BRANCH   7  18
ATOM     18  C   UNL     1       1.858   8.367  18.380  0.00  0.00    +0.000 C 
BRANCH  18  19
ATOM     19  C   UNL     1       1.394   8.836  19.747  0.00  0.00    +0.000 A 
ATOM     20  C   UNL     1       1.467   8.164  20.952  0.00  0.00    +0.000 A 
ATOM     21  C   UNL     1       0.903   8.903  22.035  0.00  0.00    +0.000 A 
ATOM     22  C   UNL     1       0.374  10.105  21.628  0.00  0.00    +0.000 A 
ATOM     23  S   UNL     1       0.552  10.330  19.941  0.00  0.00    +0.000 S 
ENDBRANCH  18  19
ENDBRANCH   7  18
TORSDOF 4
ENDMDL
MODEL 5
REMARK VINA RESULT:      -6.9      1.126      1.264
REMARK  Name = 
REMARK  5 active torsions:
REMARK  status: ('A' for Active; 'I' for Inactive)
REMARK    1  A    between atoms: C_1  and  C_2
REMARK    2  A    between atoms: N_6  and  C_7
REMARK    3  A    between atoms: C_7  and  C_8
REMARK    4  A    between atoms: N_14  and  C_15
REMARK    5  A    between atoms: C_15  and  C_16
REMARK                            x       y       z     vdW  Elec       q    Type
REMARK                         _______ _______ _______ _____ _____    ______ ____
ROOT
ATOM      1  C   UNL     1       5.116   4.921  16.561  0.00  0.00    +0.000 A 
ATOM      2  N   UNL     1       5.809   4.247  17.569  0.00  0.00    +0.000 NA
ATOM      3  C   UNL     1       4.818   3.584  18.152  0.00  0.00    +0.000 A 
ATOM      4  N   UNL     1       3.641   4.072  17.652  0.00  0.00    +0.000 N 
ATOM      5  C   UNL     1       3.959   5.362  17.251  0.00  0.00    +0.000 A 
ATOM      6  C   UNL     1       3.688   6.481  18.294  0.00  0.00    +0.000 C 
ATOM      7  N   UNL     1       2.721   6.204  19.399  0.00  0.00    +0.000 NA
ATOM      8  C   UNL     1       1.484   5.484  19.097  0.00  0.00    +0.000 C 
ATOM      9  C   UNL     1       1.686   3.970  19.064  0.00  0.00    +0.000 C 
ATOM     10  C   UNL     1       2.299   3.566  17.755  0.00  0.00    +0.000 C 
ENDROOT
BRANCH   1  11
ATOM     11  C   UNL     1       5.311   4.176  15.204  0.00  0.00    +0.000 C 
BRANCH  11  17
ATOM     12  C   UNL     1       5.764   3.253  12.212  0.00  0.00    +0.000 C 
ATOM     13  C   UNL     1       6.636   4.135  13.019  0.00  0.00    +0.000 A 
ATOM     14  C   UNL     1       7.722   4.889  12.629  0.00  0.00    +0.000 A 
ATOM     15  N   UNL     1       8.178   5.619  13.679  0.00  0.00    +0.000 NA
ATOM     16  N   UNL     1       7.404   5.361  14.725  0.00  0.00    +0.000 NA
ATOM     17  N   UNL     1       6.495   4.422  14.374  0.00  0.00    +0.000 N 
ENDBRANCH  11  17
ENDBRANCH   1  11
BRANCH   7  18
ATOM     18  C   UNL     1       2.434   7.364  20.277  0.00  0.00    +0.000 C 
BRANCH  18  19
ATOM     19  C   UNL     1       1.545   8.449  19.697  0.00  0.00    +0.000 A 
ATOM     20  C   UNL     1       0.450   9.059  20.278  0.00  0.00    +0.000 A 
ATOM     21  C   UNL     1      -0.167  10.022  19.424  0.00  0.00    +0.000 A 
ATOM     22  C   UNL     1       0.442  10.095  18.194  0.00  0.00    +0.000 A 
ATOM     23  S   UNL     1       1.749   8.998  18.074  0.00  0.00    +0.000 S 
ENDBRANCH  18  19
ENDBRANCH   7  18
TORSDOF 4
ENDMDL
MODEL 6
REMARK VINA RESULT:      -6.8      1.618      2.085
REMARK  Name = 
REMARK  5 active torsions:
REMARK  status: ('A' for Active; 'I' for Inactive)
REMARK    1  A    between atoms: C_1  and  C_2
REMARK    2  A    between atoms: N_6  and  C_7
REMARK    3  A    between atoms: C_7  and  C_8
REMARK    4  A    between atoms: N_14  and  C_15
REMARK    5  A    between atoms: C_15  and  C_16
REMARK                            x       y       z     vdW  Elec       q    Type
REMARK                         _______ _______ _______ _____ _____    ______ ____
ROOT
ATOM      1  C   UNL     1       6.057   5.638  16.479  0.00  0.00    +0.000 A 
ATOM      2  N   UNL     1       6.563   5.650  17.780  0.00  0.00    +0.000 NA
ATOM      3  C   UNL     1       5.556   5.097  18.444  0.00  0.00    +0.000 A 
ATOM      4  N   UNL     1       4.484   5.031  17.595  0.00  0.00    +0.000 N 
ATOM      5  C   UNL     1       4.717   6.053  16.686  0.00  0.00    +0.000 A 
ATOM      6  C   UNL     1       4.052   7.418  17.015  0.00  0.00    +0.000 C 
ATOM      7  N   UNL     1       2.888   7.433  17.952  0.00  0.00    +0.000 NA
ATOM      8  C   UNL     1       1.871   6.388  17.838  0.00  0.00    +0.000 C 
ATOM      9  C   UNL     1       2.273   5.104  18.560  0.00  0.00    +0.000 C 
ATOM     10  C   UNL     1       3.238   4.325  17.714  0.00  0.00    +0.000 C 
ENDROOT
BRANCH   1  11
ATOM     11  C   UNL     1       6.677   4.444  15.688  0.00  0.00    +0.000 C 
BRANCH  11  17
ATOM     12  C   UNL     1       5.516   3.382  12.942  0.00  0.00    +0.000 C 
ATOM     13  C   UNL     1       6.666   4.293  13.136  0.00  0.00    +0.000 A 
ATOM     14  C   UNL     1       7.376   5.020  12.204  0.00  0.00    +0.000 A 
ATOM     15  N   UNL     1       8.300   5.794  12.829  0.00  0.00    +0.000 NA
ATOM     16  N   UNL     1       8.190   5.591  14.135  0.00  0.00    +0.000 NA
ATOM     17  N   UNL     1       7.248   4.643  14.351  0.00  0.00    +0.000 N 
ENDBRANCH  11  17
ENDBRANCH   1  11
BRANCH   7  18
ATOM     18  C   UNL     1       2.243   8.758  18.117  0.00  0.00    +0.000 C 
BRANCH  18  19
ATOM     19  C   UNL     1       1.368   8.937  19.344  0.00  0.00    +0.000 A 
ATOM     20  C   UNL     1       0.364   9.863  19.551  0.00  0.00    +0.000 A 
ATOM     21  C   UNL     1      -0.231   9.757  20.844  0.00  0.00    +0.000 A 
ATOM     22  C   UNL     1       0.360   8.782  21.613  0.00  0.00    +0.000 A 
ATOM     23  S   UNL     1       1.633   8.007  20.773  0.00  0.00    +0.000 S 
ENDBRANCH  18  19
ENDBRANCH   7  18
TORSDOF 4
ENDMDL
MODEL 7
REMARK VINA RESULT:      -6.8      3.596      7.231
REMARK  Name = 
REMARK  5 active torsions:
REMARK  status: ('A' for Active; 'I' for Inactive)
REMARK    1  A    between atoms: C_1  and  C_2
REMARK    2  A    between atoms: N_6  and  C_7
REMARK    3  A    between atoms: C_7  and  C_8
REMARK    4  A    between atoms: N_14  and  C_15
REMARK    5  A    between atoms: C_15  and  C_16
REMARK                            x       y       z     vdW  Elec       q    Type
REMARK                         _______ _______ _______ _____ _____    ______ ____
ROOT
ATOM      1  C   UNL     1       5.096   3.577  18.705  0.00  0.00    +0.000 A 
ATOM      2  N   UNL     1       6.192   4.234  19.270  0.00  0.00    +0.000 NA
ATOM      3  C   UNL     1       6.001   5.467  18.818  0.00  0.00    +0.000 A 
ATOM      4  N   UNL     1       5.017   5.416  17.869  0.00  0.00    +0.000 N 
ATOM      5  C   UNL     1       5.081   4.114  17.393  0.00  0.00    +0.000 A 
ATOM      6  C   UNL     1       5.961   3.896  16.132  0.00  0.00    +0.000 C 
ATOM      7  N   UNL     1       6.272   5.077  15.270  0.00  0.00    +0.000 NA
ATOM      8  C   UNL     1       5.216   6.049  14.990  0.00  0.00    +0.000 C 
ATOM      9  C   UNL     1       5.054   7.071  16.113  0.00  0.00    +0.000 C 
ATOM     10  C   UNL     1       4.267   6.469  17.240  0.00  0.00    +0.000 C 
ENDROOT
BRANCH   1  11
ATOM     11  C   UNL     1       3.981   3.402  19.782  0.00  0.00    +0.000 C 
BRANCH  11  17
ATOM     12  C   UNL     1       1.604   2.685  21.745  0.00  0.00    +0.000 C 
ATOM     13  C   UNL     1       1.566   2.716  20.266  0.00  0.00    +0.000 A 
ATOM     14  C   UNL     1       0.486   2.622  19.415  0.00  0.00    +0.000 A 
ATOM     15  N   UNL     1       0.895   2.784  18.130  0.00  0.00    +0.000 NA
ATOM     16  N   UNL     1       2.205   2.993  18.140  0.00  0.00    +0.000 NA
ATOM     17  N   UNL     1       2.652   2.900  19.414  0.00  0.00    +0.000 N 
ENDBRANCH  11  17
ENDBRANCH   1  11
BRANCH   7  18
ATOM     18  C   UNL     1       7.016   4.759  14.027  0.00  0.00    +0.000 C 
BRANCH  18  19
ATOM     19  C   UNL     1       6.281   3.927  12.992  0.00  0.00    +0.000 A 
ATOM     20  C   UNL     1       4.923   3.879  12.740  0.00  0.00    +0.000 A 
ATOM     21  C   UNL     1       4.583   2.956  11.707  0.00  0.00    +0.000 A 
ATOM     22  C   UNL     1       5.681   2.286  11.222  0.00  0.00    +0.000 A 
ATOM     23  S   UNL     1       7.114   2.769  12.021  0.00  0.00    +0.000 S 
ENDBRANCH  18  19
ENDBRANCH   7  18
TORSDOF 4
ENDMDL
MODEL 8
REMARK VINA RESULT:      -6.8      2.009      3.548
REMARK  Name = 
REMARK  5 active torsions:
REMARK  status: ('A' for Active; 'I' for Inactive)
REMARK    1  A    between atoms: C_1  and  C_2
REMARK    2  A    between atoms: N_6  and  C_7
REMARK    3  A    between atoms: C_7  and  C_8
REMARK    4  A    between atoms: N_14  and  C_15
REMARK    5  A    between atoms: C_15  and  C_16
REMARK                            x       y       z     vdW  Elec       q    Type
REMARK                         _______ _______ _______ _____ _____    ______ ____
ROOT
ATOM      1  C   UNL     1       3.228   4.822  19.684  0.00  0.00    +0.000 A 
ATOM      2  N   UNL     1       2.120   4.341  18.984  0.00  0.00    +0.000 NA
ATOM      3  C   UNL     1       2.018   5.252  18.024  0.00  0.00    +0.000 A 
ATOM      4  N   UNL     1       2.854   6.288  18.343  0.00  0.00    +0.000 N 
ATOM      5  C   UNL     1       2.963   6.214  19.724  0.00  0.00    +0.000 A 
ATOM      6  C   UNL     1       1.972   7.098  20.530  0.00  0.00    +0.000 C 
ATOM      7  N   UNL     1       1.335   8.261  19.839  0.00  0.00    +0.000 NA
ATOM      8  C   UNL     1       2.146   9.091  18.950  0.00  0.00    +0.000 C 
ATOM      9  C   UNL     1       2.274   8.492  17.551  0.00  0.00    +0.000 C 
ATOM     10  C   UNL     1       3.305   7.402  17.555  0.00  0.00    +0.000 C 
ENDROOT
BRANCH   1  11
ATOM     11  C   UNL     1       4.495   4.004  19.284  0.00  0.00    +0.000 C 
BRANCH  11  17
ATOM     12  C   UNL     1       7.223   5.606  19.319  0.00  0.00    +0.000 C 
ATOM     13  C   UNL     1       6.570   4.976  18.151  0.00  0.00    +0.000 A 
ATOM     14  C   UNL     1       7.055   4.780  16.876  0.00  0.00    +0.000 A 
ATOM     15  N   UNL     1       6.152   4.081  16.141  0.00  0.00    +0.000 NA
ATOM     16  N   UNL     1       5.110   3.814  16.917  0.00  0.00    +0.000 NA
ATOM     17  N   UNL     1       5.306   4.393  18.125  0.00  0.00    +0.000 N 
ENDBRANCH  11  17
ENDBRANCH   1  11
BRANCH   7  18
ATOM     18  C   UNL     1       0.497   9.118  20.713  0.00  0.00    +0.000 C 
BRANCH  18  19
ATOM     19  C   UNL     1      -0.201  10.288  20.045  0.00  0.00    +0.000 A 
ATOM     20  C   UNL     1      -1.134  10.260  19.027  0.00  0.00    +0.000 A 
ATOM     21  C   UNL     1      -1.557  11.563  18.625  0.00  0.00    +0.000 A 
ATOM     22  C   UNL     1      -0.907  12.559  19.315  0.00  0.00    +0.000 A 
ATOM     23  S   UNL     1       0.214  11.917  20.436  0.00  0.00    +0.000 S 
ENDBRANCH  18  19
ENDBRANCH   7  18
TORSDOF 4
ENDMDL
MODEL 9
REMARK VINA RESULT:      -6.8      3.060      7.013
REMARK  Name = 
REMARK  5 active torsions:
REMARK  status: ('A' for Active; 'I' for Inactive)
REMARK    1  A    between atoms: C_1  and  C_2
REMARK    2  A    between atoms: N_6  and  C_7
REMARK    3  A    between atoms: C_7  and  C_8
REMARK    4  A    between atoms: N_14  and  C_15
REMARK    5  A    between atoms: C_15  and  C_16
REMARK                            x       y       z     vdW  Elec       q    Type
REMARK                         _______ _______ _______ _____ _____    ______ ____
ROOT
ATOM      1  C   UNL     1       3.002   4.939  17.753  0.00  0.00    +0.000 A 
ATOM      2  N   UNL     1       3.311   3.578  17.761  0.00  0.00    +0.000 NA
ATOM      3  C   UNL     1       4.440   3.583  18.460  0.00  0.00    +0.000 A 
ATOM      4  N   UNL     1       4.840   4.885  18.594  0.00  0.00    +0.000 N 
ATOM      5  C   UNL     1       4.270   5.522  17.501  0.00  0.00    +0.000 A 
ATOM      6  C   UNL     1       5.169   5.639  16.239  0.00  0.00    +0.000 C 
ATOM      7  N   UNL     1       6.649   5.513  16.408  0.00  0.00    +0.000 NA
ATOM      8  C   UNL     1       7.292   6.162  17.550  0.00  0.00    +0.000 C 
ATOM      9  C   UNL     1       7.203   5.322  18.822  0.00  0.00    +0.000 C 
ATOM     10  C   UNL     1       5.843   5.473  19.439  0.00  0.00    +0.000 C 
ENDROOT
BRANCH   1  11
ATOM     11  C   UNL     1       1.905   5.233  18.823  0.00  0.00    +0.000 C 
BRANCH  11  17
ATOM     12  C   UNL     1       0.514   2.390  18.828  0.00  0.00    +0.000 C 
ATOM     13  C   UNL     1       1.230   3.039  19.948  0.00  0.00    +0.000 A 
ATOM     14  C   UNL     1       1.613   2.515  21.165  0.00  0.00    +0.000 A 
ATOM     15  N   UNL     1       2.326   3.437  21.861  0.00  0.00    +0.000 NA
ATOM     16  N   UNL     1       2.421   4.530  21.116  0.00  0.00    +0.000 NA
ATOM     17  N   UNL     1       1.718   4.343  19.974  0.00  0.00    +0.000 N 
ENDBRANCH  11  17
ENDBRANCH   1  11
BRANCH   7  18
ATOM     18  C   UNL     1       7.435   5.754  15.174  0.00  0.00    +0.000 C 
BRANCH  18  19
ATOM     19  C   UNL     1       7.092   4.892  13.973  0.00  0.00    +0.000 A 
ATOM     20  C   UNL     1       7.607   4.965  12.693  0.00  0.00    +0.000 A 
ATOM     21  C   UNL     1       7.027   4.008  11.806  0.00  0.00    +0.000 A 
ATOM     22  C   UNL     1       6.052   3.255  12.416  0.00  0.00    +0.000 A 
ATOM     23  S   UNL     1       5.836   3.711  14.050  0.00  0.00    +0.000 S 
ENDBRANCH  18  19
ENDBRANCH   7  18
TORSDOF 4
ENDMDL
