MODEL 1
REMARK VINA RESULT:      -7.7      0.000      0.000
REMARK  Name = 
REMARK  9 active torsions:
REMARK  status: ('A' for Active; 'I' for Inactive)
REMARK    1  A    between atoms: C_1  and  O_2
REMARK    2  A    between atoms: O_2  and  C_3
REMARK    3  A    between atoms: C_5  and  C_6
REMARK    4  A    between atoms: C_8  and  C_9
REMARK    5  A    between atoms: C_12  and  N_13
REMARK    6  A    between atoms: C_23  and  O_24
REMARK    7  A    between atoms: O_24  and  C_25
REMARK    8  A    between atoms: C_26  and  O_27
REMARK    9  A    between atoms: O_27  and  C_28
REMARK                            x       y       z     vdW  Elec       q    Type
REMARK                         _______ _______ _______ _____ _____    ______ ____
ROOT
ATOM      1  C   UNL     1       1.175   9.457  18.059  0.00  0.00    +0.000 C 
ATOM      2  C   UNL     1       0.105   9.711  19.091  0.00  0.00    +0.000 C 
ATOM      3  C   UNL     1       0.248  11.047  19.770  0.00  0.00    +0.000 C 
ATOM      4  N   UNL     1       1.136  11.933  19.450  0.00  0.00    +0.000 NA
ATOM      5  C   UNL     1       2.021  11.746  18.431  0.00  0.00    +0.000 C 
ATOM      6  O   UNL     1       2.875  12.571  18.140  0.00  0.00    +0.000 OA
ATOM      7  N   UNL     1       1.917  10.619  17.679  0.00  0.00    +0.000 N 
ATOM      8  H   UNL     1       2.667  10.531  17.007  0.00  0.00    +0.000 HD
ENDROOT
BRANCH   1  11
ATOM      9  C   UNL     1       2.493   6.362  19.798  0.00  0.00    +0.000 A 
ATOM     10  C   UNL     1       1.877   7.602  19.585  0.00  0.00    +0.000 A 
ATOM     11  C   UNL     1       2.125   8.340  18.431  0.00  0.00    +0.000 A 
ATOM     12  C   UNL     1       3.163   7.931  17.595  0.00  0.00    +0.000 A 
ATOM     13  C   UNL     1       3.880   6.750  17.849  0.00  0.00    +0.000 A 
ATOM     14  C   UNL     1       3.529   5.928  18.945  0.00  0.00    +0.000 A 
BRANCH   9  16
ATOM     15  C   UNL     1       1.142   4.544  20.481  0.00  0.00    +0.000 C 
ATOM     16  O   UNL     1       2.064   5.580  20.842  0.00  0.00    +0.000 OA
ENDBRANCH   9  16
BRANCH  13  17
ATOM     17  O   UNL     1       4.840   6.543  16.889  0.00  0.00    +0.000 OA
ATOM     18  C   UNL     1       6.179   6.943  17.135  0.00  0.00    +0.000 C 
ENDBRANCH  13  17
BRANCH  14  19
ATOM     19  O   UNL     1       4.240   4.767  19.072  0.00  0.00    +0.000 OA
ATOM     20  C   UNL     1       3.922   3.626  18.298  0.00  0.00    +0.000 C 
ENDBRANCH  14  19
ENDBRANCH   1  11
BRANCH   3  21
ATOM     21  C   UNL     1      -0.757  11.381  20.831  0.00  0.00    +0.000 A 
ATOM     22  C   UNL     1      -1.821  12.257  20.562  0.00  0.00    +0.000 A 
ATOM     23  C   UNL     1      -2.692  12.650  21.578  0.00  0.00    +0.000 A 
ATOM     24  C   UNL     1      -2.506  12.160  22.873  0.00  0.00    +0.000 A 
ATOM     25  C   UNL     1      -1.465  11.264  23.153  0.00  0.00    +0.000 A 
ATOM     26  C   UNL     1      -0.595  10.876  22.129  0.00  0.00    +0.000 A 
BRANCH  24  27
ATOM     27  N   UNL     1      -3.401  12.611  23.943  0.00  0.00    +0.000 N 
ATOM     28  O   UNL     1      -3.211  13.739  24.418  0.00  0.00    +0.000 OA
ATOM     29  O   UNL     1      -4.291  11.832  24.313  0.00  0.00    +0.000 OA
ENDBRANCH  24  27
ENDBRANCH   3  21
TORSDOF 6
ENDMDL
MODEL 2
REMARK VINA RESULT:      -7.4      5.616      8.510
REMARK  Name = 
REMARK  9 active torsions:
REMARK  status: ('A' for Active; 'I' for Inactive)
REMARK    1  A    between atoms: C_1  and  O_2
REMARK    2  A    between atoms: O_2  and  C_3
REMARK    3  A    between atoms: C_5  and  C_6
REMARK    4  A    between atoms: C_8  and  C_9
REMARK    5  A    between atoms: C_12  and  N_13
REMARK    6  A    between atoms: C_23  and  O_24
REMARK    7  A    between atoms: O_24  and  C_25
REMARK    8  A    between atoms: C_26  and  O_27
REMARK    9  A    between atoms: O_27  and  C_28
REMARK                            x       y       z     vdW  Elec       q    Type
REMARK                         _______ _______ _______ _____ _____    ______ ____
ROOT
ATOM      1  C   UNL     1       6.768   6.063  16.970  0.00  0.00    +0.000 C 
ATOM      2  C   UNL     1       7.124   7.529  16.965  0.00  0.00    +0.000 C 
ATOM      3  C   UNL     1       7.952   7.937  18.155  0.00  0.00    +0.000 C 
ATOM      4  N   UNL     1       8.398   7.112  19.047  0.00  0.00    +0.000 NA
ATOM      5  C   UNL     1       8.176   5.769  18.975  0.00  0.00    +0.000 C 
ATOM      6  O   UNL     1       8.576   4.989  19.828  0.00  0.00    +0.000 OA
ATOM      7  N   UNL     1       7.529   5.274  17.888  0.00  0.00    +0.000 N 
ATOM      8  H   UNL     1       7.337   4.284  17.968  0.00  0.00    +0.000 HD
ENDROOT
BRANCH   1  11
ATOM      9  C   UNL     1       3.547   4.115  17.379  0.00  0.00    +0.000 A 
ATOM     10  C   UNL     1       4.799   4.521  16.900  0.00  0.00    +0.000 A 
ATOM     11  C   UNL     1       5.292   5.796  17.162  0.00  0.00    +0.000 A 
ATOM     12  C   UNL     1       4.428   6.738  17.720  0.00  0.00    +0.000 A 
ATOM     13  C   UNL     1       3.122   6.390  18.103  0.00  0.00    +0.000 A 
ATOM     14  C   UNL     1       2.673   5.056  17.965  0.00  0.00    +0.000 A 
BRANCH   9  16
ATOM     15  C   UNL     1       3.691   1.951  18.323  0.00  0.00    +0.000 C 
ATOM     16  O   UNL     1       3.194   2.793  17.275  0.00  0.00    +0.000 OA
ENDBRANCH   9  16
BRANCH  13  17
ATOM     17  O   UNL     1       2.464   7.469  18.638  0.00  0.00    +0.000 OA
ATOM     18  C   UNL     1       2.232   8.620  17.840  0.00  0.00    +0.000 C 
ENDBRANCH  13  17
BRANCH  14  19
ATOM     19  O   UNL     1       1.412   4.800  18.427  0.00  0.00    +0.000 OA
ATOM     20  C   UNL     1       1.200   4.268  19.721  0.00  0.00    +0.000 C 
ENDBRANCH  14  19
ENDBRANCH   1  11
BRANCH   3  21
ATOM     21  C   UNL     1       8.336   9.383  18.252  0.00  0.00    +0.000 A 
ATOM     22  C   UNL     1       7.733  10.342  17.423  0.00  0.00    +0.000 A 
ATOM     23  C   UNL     1       8.167  11.668  17.439  0.00  0.00    +0.000 A 
ATOM     24  C   UNL     1       9.206  12.043  18.294  0.00  0.00    +0.000 A 
ATOM     25  C   UNL     1       9.801  11.103  19.147  0.00  0.00    +0.000 A 
ATOM     26  C   UNL     1       9.361   9.775  19.124  0.00  0.00    +0.000 A 
BRANCH  24  27
ATOM     27  N   UNL     1       9.683  13.429  18.274  0.00  0.00    +0.000 N 
ATOM     28  O   UNL     1       8.880  14.311  17.942  0.00  0.00    +0.000 OA
ATOM     29  O   UNL     1      10.865  13.633  18.584  0.00  0.00    +0.000 OA
ENDBRANCH  24  27
ENDBRANCH   3  21
TORSDOF 6
ENDMDL
MODEL 3
REMARK VINA RESULT:      -7.3      0.476      1.173
REMARK  Name = 
REMARK  9 active torsions:
REMARK  status: ('A' for Active; 'I' for Inactive)
REMARK    1  A    between atoms: C_1  and  O_2
REMARK    2  A    between atoms: O_2  and  C_3
REMARK    3  A    between atoms: C_5  and  C_6
REMARK    4  A    between atoms: C_8  and  C_9
REMARK    5  A    between atoms: C_12  and  N_13
REMARK    6  A    between atoms: C_23  and  O_24
REMARK    7  A    between atoms: O_24  and  C_25
REMARK    8  A    between atoms: C_26  and  O_27
REMARK    9  A    between atoms: O_27  and  C_28
REMARK                            x       y       z     vdW  Elec       q    Type
REMARK                         _______ _______ _______ _____ _____    ______ ____
ROOT
ATOM      1  C   UNL     1       1.255   9.248  18.224  0.00  0.00    +0.000 C 
ATOM      2  C   UNL     1       0.277   9.631  19.306  0.00  0.00    +0.000 C 
ATOM      3  C   UNL     1       0.497  11.025  19.832  0.00  0.00    +0.000 C 
ATOM      4  N   UNL     1       1.369  11.853  19.353  0.00  0.00    +0.000 NA
ATOM      5  C   UNL     1       2.165  11.542  18.291  0.00  0.00    +0.000 C 
ATOM      6  O   UNL     1       3.006  12.312  17.850  0.00  0.00    +0.000 OA
ATOM      7  N   UNL     1       1.981  10.348  17.669  0.00  0.00    +0.000 N 
ATOM      8  H   UNL     1       2.673  10.174  16.952  0.00  0.00    +0.000 HD
ENDROOT
BRANCH   1  11
ATOM      9  C   UNL     1       2.539   6.123  19.935  0.00  0.00    +0.000 A 
ATOM     10  C   UNL     1       1.893   7.347  19.722  0.00  0.00    +0.000 A 
ATOM     11  C   UNL     1       2.214   8.152  18.632  0.00  0.00    +0.000 A 
ATOM     12  C   UNL     1       3.341   7.825  17.879  0.00  0.00    +0.000 A 
ATOM     13  C   UNL     1       4.082   6.662  18.145  0.00  0.00    +0.000 A 
ATOM     14  C   UNL     1       3.668   5.773  19.164  0.00  0.00    +0.000 A 
BRANCH   9  16
ATOM     15  C   UNL     1       1.076   4.332  20.430  0.00  0.00    +0.000 C 
ATOM     16  O   UNL     1       2.050   5.274  20.896  0.00  0.00    +0.000 OA
ENDBRANCH   9  16
BRANCH  13  17
ATOM     17  O   UNL     1       5.135   6.541  17.272  0.00  0.00    +0.000 OA
ATOM     18  C   UNL     1       4.905   6.635  15.874  0.00  0.00    +0.000 C 
ENDBRANCH  13  17
BRANCH  14  19
ATOM     19  O   UNL     1       4.413   4.636  19.304  0.00  0.00    +0.000 OA
ATOM     20  C   UNL     1       4.136   3.480  18.535  0.00  0.00    +0.000 C 
ENDBRANCH  14  19
ENDBRANCH   1  11
BRANCH   3  21
ATOM     21  C   UNL     1      -0.413  11.489  20.930  0.00  0.00    +0.000 A 
ATOM     22  C   UNL     1      -0.506  10.774  22.135  0.00  0.00    +0.000 A 
ATOM     23  C   UNL     1      -1.431  11.145  23.110  0.00  0.00    +0.000 A 
ATOM     24  C   UNL     1      -2.266  12.242  22.887  0.00  0.00    +0.000 A 
ATOM     25  C   UNL     1      -2.167  12.983  21.701  0.00  0.00    +0.000 A 
ATOM     26  C   UNL     1      -1.239  12.604  20.726  0.00  0.00    +0.000 A 
BRANCH  24  27
ATOM     27  N   UNL     1      -3.263  12.600  23.901  0.00  0.00    +0.000 N 
ATOM     28  O   UNL     1      -4.088  11.736  24.229  0.00  0.00    +0.000 OA
ATOM     29  O   UNL     1      -3.224  13.749  24.364  0.00  0.00    +0.000 OA
ENDBRANCH  24  27
ENDBRANCH   3  21
TORSDOF 6
ENDMDL
MODEL 4
REMARK VINA RESULT:      -7.3      5.586      8.443
REMARK  Name = 
REMARK  9 active torsions:
REMARK  status: ('A' for Active; 'I' for Inactive)
REMARK    1  A    between atoms: C_1  and  O_2
REMARK    2  A    between atoms: O_2  and  C_3
REMARK    3  A    between atoms: C_5  and  C_6
REMARK    4  A    between atoms: C_8  and  C_9
REMARK    5  A    between atoms: C_12  and  N_13
REMARK    6  A    between atoms: C_23  and  O_24
REMARK    7  A    between atoms: O_24  and  C_25
REMARK    8  A    between atoms: C_26  and  O_27
REMARK    9  A    between atoms: O_27  and  C_28
REMARK                            x       y       z     vdW  Elec       q    Type
REMARK                         _______ _______ _______ _____ _____    ______ ____
ROOT
ATOM      1  C   UNL     1       6.820   5.982  17.053  0.00  0.00    +0.000 C 
ATOM      2  C   UNL     1       7.197   7.441  16.985  0.00  0.00    +0.000 C 
ATOM      3  C   UNL     1       8.003   7.896  18.172  0.00  0.00    +0.000 C 
ATOM      4  N   UNL     1       8.416   7.111  19.115  0.00  0.00    +0.000 NA
ATOM      5  C   UNL     1       8.176   5.769  19.104  0.00  0.00    +0.000 C 
ATOM      6  O   UNL     1       8.545   5.027  20.003  0.00  0.00    +0.000 OA
ATOM      7  N   UNL     1       7.547   5.229  18.027  0.00  0.00    +0.000 N 
ATOM      8  H   UNL     1       7.340   4.248  18.151  0.00  0.00    +0.000 HD
ENDROOT
BRANCH   1  11
ATOM      9  C   UNL     1       3.551   4.100  17.381  0.00  0.00    +0.000 A 
ATOM     10  C   UNL     1       4.817   4.488  16.925  0.00  0.00    +0.000 A 
ATOM     11  C   UNL     1       5.336   5.745  17.222  0.00  0.00    +0.000 A 
ATOM     12  C   UNL     1       4.487   6.693  17.792  0.00  0.00    +0.000 A 
ATOM     13  C   UNL     1       3.169   6.366  18.152  0.00  0.00    +0.000 A 
ATOM     14  C   UNL     1       2.692   5.046  17.979  0.00  0.00    +0.000 A 
BRANCH   9  16
ATOM     15  C   UNL     1       3.623   1.914  18.283  0.00  0.00    +0.000 C 
ATOM     16  O   UNL     1       3.169   2.789  17.242  0.00  0.00    +0.000 OA
ENDBRANCH   9  16
BRANCH  13  17
ATOM     17  O   UNL     1       2.529   7.448  18.706  0.00  0.00    +0.000 OA
ATOM     18  C   UNL     1       2.248   8.585  17.905  0.00  0.00    +0.000 C 
ENDBRANCH  13  17
BRANCH  14  19
ATOM     19  O   UNL     1       1.420   4.809  18.421  0.00  0.00    +0.000 OA
ATOM     20  C   UNL     1       1.180   4.267  19.706  0.00  0.00    +0.000 C 
ENDBRANCH  14  19
ENDBRANCH   1  11
BRANCH   3  21
ATOM     21  C   UNL     1       8.405   9.340  18.207  0.00  0.00    +0.000 A 
ATOM     22  C   UNL     1       9.370   9.795  19.121  0.00  0.00    +0.000 A 
ATOM     23  C   UNL     1       9.664  11.154  19.225  0.00  0.00    +0.000 A 
ATOM     24  C   UNL     1       8.997  12.069  18.407  0.00  0.00    +0.000 A 
ATOM     25  C   UNL     1       8.050  11.629  17.470  0.00  0.00    +0.000 A 
ATOM     26  C   UNL     1       7.760  10.264  17.373  0.00  0.00    +0.000 A 
BRANCH  24  27
ATOM     27  N   UNL     1       9.282  13.500  18.552  0.00  0.00    +0.000 N 
ATOM     28  O   UNL     1      10.320  13.824  19.146  0.00  0.00    +0.000 OA
ATOM     29  O   UNL     1       8.463  14.299  18.079  0.00  0.00    +0.000 OA
ENDBRANCH  24  27
ENDBRANCH   3  21
TORSDOF 6
ENDMDL
MODEL 5
REMARK VINA RESULT:      -7.2      3.024      8.279
REMARK  Name = 
REMARK  9 active torsions:
REMARK  status: ('A' for Active; 'I' for Inactive)
REMARK    1  A    between atoms: C_1  and  O_2
REMARK    2  A    between atoms: O_2  and  C_3
REMARK    3  A    between atoms: C_5  and  C_6
REMARK    4  A    between atoms: C_8  and  C_9
REMARK    5  A    between atoms: C_12  and  N_13
REMARK    6  A    between atoms: C_23  and  O_24
REMARK    7  A    between atoms: O_24  and  C_25
REMARK    8  A    between atoms: C_26  and  O_27
REMARK    9  A    between atoms: O_27  and  C_28
REMARK                            x       y       z     vdW  Elec       q    Type
REMARK                         _______ _______ _______ _____ _____    ______ ____
ROOT
ATOM      1  C   UNL     1       0.322  10.713  19.912  0.00  0.00    +0.000 C 
ATOM      2  C   UNL     1       0.832   9.294  19.892  0.00  0.00    +0.000 C 
ATOM      3  C   UNL     1       1.914   9.071  18.869  0.00  0.00    +0.000 C 
ATOM      4  N   UNL     1       2.426  10.009  18.138  0.00  0.00    +0.000 NA
ATOM      5  C   UNL     1       2.046  11.313  18.251  0.00  0.00    +0.000 C 
ATOM      6  O   UNL     1       2.512  12.198  17.547  0.00  0.00    +0.000 OA
ATOM      7  N   UNL     1       1.151  11.648  19.216  0.00  0.00    +0.000 N 
ATOM      8  H   UNL     1       0.868  12.617  19.164  0.00  0.00    +0.000 HD
ENDROOT
BRANCH   1  11
ATOM      9  C   UNL     1      -3.155  12.165  19.538  0.00  0.00    +0.000 A 
ATOM     10  C   UNL     1      -1.954  11.734  20.114  0.00  0.00    +0.000 A 
ATOM     11  C   UNL     1      -1.111  10.850  19.446  0.00  0.00    +0.000 A 
ATOM     12  C   UNL     1      -1.585  10.228  18.292  0.00  0.00    +0.000 A 
ATOM     13  C   UNL     1      -2.841  10.554  17.754  0.00  0.00    +0.000 A 
ATOM     14  C   UNL     1      -3.634  11.558  18.358  0.00  0.00    +0.000 A 
BRANCH   9  16
ATOM     15  C   UNL     1      -4.700  12.789  21.216  0.00  0.00    +0.000 C 
ATOM     16  O   UNL     1      -3.848  13.188  20.136  0.00  0.00    +0.000 OA
ENDBRANCH   9  16
BRANCH  13  17
ATOM     17  O   UNL     1      -3.089   9.830  16.614  0.00  0.00    +0.000 OA
ATOM     18  C   UNL     1      -2.774  10.383  15.346  0.00  0.00    +0.000 C 
ENDBRANCH  13  17
BRANCH  14  19
ATOM     19  O   UNL     1      -4.809  11.852  17.724  0.00  0.00    +0.000 OA
ATOM     20  C   UNL     1      -6.014  11.194  18.073  0.00  0.00    +0.000 C 
ENDBRANCH  14  19
ENDBRANCH   1  11
BRANCH   3  21
ATOM     21  C   UNL     1       2.469   7.683  18.757  0.00  0.00    +0.000 A 
ATOM     22  C   UNL     1       2.211   6.725  19.752  0.00  0.00    +0.000 A 
ATOM     23  C   UNL     1       2.815   5.469  19.701  0.00  0.00    +0.000 A 
ATOM     24  C   UNL     1       3.678   5.162  18.646  0.00  0.00    +0.000 A 
ATOM     25  C   UNL     1       3.925   6.097  17.631  0.00  0.00    +0.000 A 
ATOM     26  C   UNL     1       3.316   7.355  17.690  0.00  0.00    +0.000 A 
BRANCH  24  27
ATOM     27  N   UNL     1       4.341   3.854  18.623  0.00  0.00    +0.000 N 
ATOM     28  O   UNL     1       5.353   3.707  19.321  0.00  0.00    +0.000 OA
ATOM     29  O   UNL     1       3.852   2.975  17.899  0.00  0.00    +0.000 OA
ENDBRANCH  24  27
ENDBRANCH   3  21
TORSDOF 6
ENDMDL
MODEL 6
REMARK VINA RESULT:      -7.1      5.361      8.391
REMARK  Name = 
REMARK  9 active torsions:
REMARK  status: ('A' for Active; 'I' for Inactive)
REMARK    1  A    between atoms: C_1  and  O_2
REMARK    2  A    between atoms: O_2  and  C_3
REMARK    3  A    between atoms: C_5  and  C_6
REMARK    4  A    between atoms: C_8  and  C_9
REMARK    5  A    between atoms: C_12  and  N_13
REMARK    6  A    between atoms: C_23  and  O_24
REMARK    7  A    between atoms: O_24  and  C_25
REMARK    8  A    between atoms: C_26  and  O_27
REMARK    9  A    between atoms: O_27  and  C_28
REMARK                            x       y       z     vdW  Elec       q    Type
REMARK                         _______ _______ _______ _____ _____    ______ ____
ROOT
ATOM      1  C   UNL     1       5.328   6.036  16.539  0.00  0.00    +0.000 C 
ATOM      2  C   UNL     1       5.858   7.401  16.899  0.00  0.00    +0.000 C 
ATOM      3  C   UNL     1       7.220   7.355  17.538  0.00  0.00    +0.000 C 
ATOM      4  N   UNL     1       7.916   6.273  17.686  0.00  0.00    +0.000 NA
ATOM      5  C   UNL     1       7.483   5.059  17.245  0.00  0.00    +0.000 C 
ATOM      6  O   UNL     1       8.127   4.032  17.403  0.00  0.00    +0.000 OA
ATOM      7  N   UNL     1       6.312   4.997  16.558  0.00  0.00    +0.000 N 
ATOM      8  H   UNL     1       6.034   4.048  16.350  0.00  0.00    +0.000 HD
ENDROOT
BRANCH   1  11
ATOM      9  C   UNL     1       2.796   3.765  18.205  0.00  0.00    +0.000 A 
ATOM     10  C   UNL     1       3.662   4.308  17.247  0.00  0.00    +0.000 A 
ATOM     11  C   UNL     1       4.123   5.618  17.352  0.00  0.00    +0.000 A 
ATOM     12  C   UNL     1       3.537   6.450  18.304  0.00  0.00    +0.000 A 
ATOM     13  C   UNL     1       2.575   5.963  19.204  0.00  0.00    +0.000 A 
ATOM     14  C   UNL     1       2.214   4.595  19.186  0.00  0.00    +0.000 A 
BRANCH   9  16
ATOM     15  C   UNL     1       3.640   1.580  18.534  0.00  0.00    +0.000 C 
ATOM     16  O   UNL     1       2.534   2.418  18.174  0.00  0.00    +0.000 OA
ENDBRANCH   9  16
BRANCH  13  17
ATOM     17  O   UNL     1       2.152   6.955  20.054  0.00  0.00    +0.000 OA
ATOM     18  C   UNL     1       1.861   8.245  19.541  0.00  0.00    +0.000 C 
ENDBRANCH  13  17
BRANCH  14  19
ATOM     19  O   UNL     1       1.321   4.201  20.143  0.00  0.00    +0.000 OA
ATOM     20  C   UNL     1       1.749   3.521  21.309  0.00  0.00    +0.000 C 
ENDBRANCH  14  19
ENDBRANCH   1  11
BRANCH   3  21
ATOM     21  C   UNL     1       7.821   8.664  17.954  0.00  0.00    +0.000 A 
ATOM     22  C   UNL     1       7.475   9.854  17.293  0.00  0.00    +0.000 A 
ATOM     23  C   UNL     1       8.114  11.052  17.609  0.00  0.00    +0.000 A 
ATOM     24  C   UNL     1       9.101  11.068  18.597  0.00  0.00    +0.000 A 
ATOM     25  C   UNL     1       9.439   9.894  19.285  0.00  0.00    +0.000 A 
ATOM     26  C   UNL     1       8.795   8.695  18.961  0.00  0.00    +0.000 A 
BRANCH  24  27
ATOM     27  N   UNL     1       9.797  12.324  18.894  0.00  0.00    +0.000 N 
ATOM     28  O   UNL     1       9.475  13.329  18.247  0.00  0.00    +0.000 OA
ATOM     29  O   UNL     1      10.672  12.302  19.771  0.00  0.00    +0.000 OA
ENDBRANCH  24  27
ENDBRANCH   3  21
TORSDOF 6
ENDMDL
MODEL 7
REMARK VINA RESULT:      -7.1      5.376      8.334
REMARK  Name = 
REMARK  9 active torsions:
REMARK  status: ('A' for Active; 'I' for Inactive)
REMARK    1  A    between atoms: C_1  and  O_2
REMARK    2  A    between atoms: O_2  and  C_3
REMARK    3  A    between atoms: C_5  and  C_6
REMARK    4  A    between atoms: C_8  and  C_9
REMARK    5  A    between atoms: C_12  and  N_13
REMARK    6  A    between atoms: C_23  and  O_24
REMARK    7  A    between atoms: O_24  and  C_25
REMARK    8  A    between atoms: C_26  and  O_27
REMARK    9  A    between atoms: O_27  and  C_28
REMARK                            x       y       z     vdW  Elec       q    Type
REMARK                         _______ _______ _______ _____ _____    ______ ____
ROOT
ATOM      1  C   UNL     1       4.793   6.446  16.621  0.00  0.00    +0.000 C 
ATOM      2  C   UNL     1       5.459   7.663  17.210  0.00  0.00    +0.000 C 
ATOM      3  C   UNL     1       6.962   7.570  17.210  0.00  0.00    +0.000 C 
ATOM      4  N   UNL     1       7.629   6.595  16.680  0.00  0.00    +0.000 NA
ATOM      5  C   UNL     1       7.021   5.558  16.038  0.00  0.00    +0.000 C 
ATOM      6  O   UNL     1       7.646   4.625  15.556  0.00  0.00    +0.000 OA
ATOM      7  N   UNL     1       5.671   5.590  15.885  0.00  0.00    +0.000 N 
ATOM      8  H   UNL     1       5.307   4.740  15.475  0.00  0.00    +0.000 HD
ENDROOT
BRANCH   1  11
ATOM      9  C   UNL     1       2.441   5.679  19.488  0.00  0.00    +0.000 A 
ATOM     10  C   UNL     1       3.448   6.283  18.725  0.00  0.00    +0.000 A 
ATOM     11  C   UNL     1       4.008   5.634  17.628  0.00  0.00    +0.000 A 
ATOM     12  C   UNL     1       3.708   4.287  17.433  0.00  0.00    +0.000 A 
ATOM     13  C   UNL     1       2.788   3.619  18.258  0.00  0.00    +0.000 A 
ATOM     14  C   UNL     1       2.115   4.321  19.284  0.00  0.00    +0.000 A 
BRANCH   9  16
ATOM     15  C   UNL     1       1.805   7.845  20.195  0.00  0.00    +0.000 C 
ATOM     16  O   UNL     1       1.778   6.431  20.426  0.00  0.00    +0.000 OA
ENDBRANCH   9  16
BRANCH  13  17
ATOM     17  O   UNL     1       2.642   2.310  17.870  0.00  0.00    +0.000 OA
ATOM     18  C   UNL     1       3.511   1.319  18.396  0.00  0.00    +0.000 C 
ENDBRANCH  13  17
BRANCH  14  19
ATOM     19  O   UNL     1       1.190   3.604  19.990  0.00  0.00    +0.000 OA
ATOM     20  C   UNL     1       1.500   3.057  21.259  0.00  0.00    +0.000 C 
ENDBRANCH  14  19
ENDBRANCH   1  11
BRANCH   3  21
ATOM     21  C   UNL     1       7.715   8.725  17.799  0.00  0.00    +0.000 A 
ATOM     22  C   UNL     1       7.561  10.021  17.282  0.00  0.00    +0.000 A 
ATOM     23  C   UNL     1       8.341  11.073  17.760  0.00  0.00    +0.000 A 
ATOM     24  C   UNL     1       9.278  10.834  18.768  0.00  0.00    +0.000 A 
ATOM     25  C   UNL     1       9.425   9.551  19.315  0.00  0.00    +0.000 A 
ATOM     26  C   UNL     1       8.640   8.501  18.828  0.00  0.00    +0.000 A 
BRANCH  24  27
ATOM     27  N   UNL     1      10.123  11.938  19.236  0.00  0.00    +0.000 N 
ATOM     28  O   UNL     1       9.783  13.091  18.938  0.00  0.00    +0.000 OA
ATOM     29  O   UNL     1      11.132  11.649  19.894  0.00  0.00    +0.000 OA
ENDBRANCH  24  27
ENDBRANCH   3  21
TORSDOF 6
ENDMDL
MODEL 8
REMARK VINA RESULT:      -7.1      5.304      8.332
REMARK  Name = 
REMARK  9 active torsions:
REMARK  status: ('A' for Active; 'I' for Inactive)
REMARK    1  A    between atoms: C_1  and  O_2
REMARK    2  A    between atoms: O_2  and  C_3
REMARK    3  A    between atoms: C_5  and  C_6
REMARK    4  A    between atoms: C_8  and  C_9
REMARK    5  A    between atoms: C_12  and  N_13
REMARK    6  A    between atoms: C_23  and  O_24
REMARK    7  A    between atoms: O_24  and  C_25
REMARK    8  A    between atoms: C_26  and  O_27
REMARK    9  A    between atoms: O_27  and  C_28
REMARK                            x       y       z     vdW  Elec       q    Type
REMARK                         _______ _______ _______ _____ _____    ______ ____
ROOT
ATOM      1  C   UNL     1       4.847   6.442  16.739  0.00  0.00    +0.000 C 
ATOM      2  C   UNL     1       5.549   7.673  17.255  0.00  0.00    +0.000 C 
ATOM      3  C   UNL     1       7.048   7.535  17.268  0.00  0.00    +0.000 C 
ATOM      4  N   UNL     1       7.687   6.509  16.803  0.00  0.00    +0.000 NA
ATOM      5  C   UNL     1       7.049   5.453  16.223  0.00  0.00    +0.000 C 
ATOM      6  O   UNL     1       7.647   4.473  15.802  0.00  0.00    +0.000 OA
ATOM      7  N   UNL     1       5.702   5.516  16.062  0.00  0.00    +0.000 N 
ATOM      8  H   UNL     1       5.313   4.654  15.703  0.00  0.00    +0.000 HD
ENDROOT
BRANCH   1  11
ATOM      9  C   UNL     1       3.816   3.724  19.164  0.00  0.00    +0.000 A 
ATOM     10  C   UNL     1       4.264   4.362  18.001  0.00  0.00    +0.000 A 
ATOM     11  C   UNL     1       4.036   5.719  17.790  0.00  0.00    +0.000 A 
ATOM     12  C   UNL     1       3.163   6.384  18.650  0.00  0.00    +0.000 A 
ATOM     13  C   UNL     1       2.602   5.735  19.762  0.00  0.00    +0.000 A 
ATOM     14  C   UNL     1       2.949   4.395  20.053  0.00  0.00    +0.000 A 
BRANCH   9  16
ATOM     15  C   UNL     1       3.643   1.433  18.604  0.00  0.00    +0.000 C 
ATOM     16  O   UNL     1       4.240   2.444  19.424  0.00  0.00    +0.000 OA
ENDBRANCH   9  16
BRANCH  13  17
ATOM     17  O   UNL     1       1.789   6.587  20.469  0.00  0.00    +0.000 OA
ATOM     18  C   UNL     1       1.821   7.979  20.195  0.00  0.00    +0.000 C 
ENDBRANCH  13  17
BRANCH  14  19
ATOM     19  O   UNL     1       2.405   3.871  21.192  0.00  0.00    +0.000 OA
ATOM     20  C   UNL     1       1.273   3.023  21.140  0.00  0.00    +0.000 C 
ENDBRANCH  14  19
ENDBRANCH   1  11
BRANCH   3  21
ATOM     21  C   UNL     1       7.834   8.700  17.789  0.00  0.00    +0.000 A 
ATOM     22  C   UNL     1       8.735   8.540  18.854  0.00  0.00    +0.000 A 
ATOM     23  C   UNL     1       9.383   9.644  19.407  0.00  0.00    +0.000 A 
ATOM     24  C   UNL     1       9.139  10.918  18.890  0.00  0.00    +0.000 A 
ATOM     25  C   UNL     1       8.264  11.092  17.808  0.00  0.00    +0.000 A 
ATOM     26  C   UNL     1       7.615   9.980  17.261  0.00  0.00    +0.000 A 
BRANCH  24  27
ATOM     27  N   UNL     1       9.794  12.077  19.505  0.00  0.00    +0.000 N 
ATOM     28  O   UNL     1       9.810  13.137  18.865  0.00  0.00    +0.000 OA
ATOM     29  O   UNL     1      10.300  11.923  20.625  0.00  0.00    +0.000 OA
ENDBRANCH  24  27
ENDBRANCH   3  21
TORSDOF 6
ENDMDL
MODEL 9
REMARK VINA RESULT:      -7.0      3.059      8.359
REMARK  Name = 
REMARK  9 active torsions:
REMARK  status: ('A' for Active; 'I' for Inactive)
REMARK    1  A    between atoms: C_1  and  O_2
REMARK    2  A    between atoms: O_2  and  C_3
REMARK    3  A    between atoms: C_5  and  C_6
REMARK    4  A    between atoms: C_8  and  C_9
REMARK    5  A    between atoms: C_12  and  N_13
REMARK    6  A    between atoms: C_23  and  O_24
REMARK    7  A    between atoms: O_24  and  C_25
REMARK    8  A    between atoms: C_26  and  O_27
REMARK    9  A    between atoms: O_27  and  C_28
REMARK                            x       y       z     vdW  Elec       q    Type
REMARK                         _______ _______ _______ _____ _____    ______ ____
ROOT
ATOM      1  C   UNL     1      -0.219  11.417  19.905  0.00  0.00    +0.000 C 
ATOM      2  C   UNL     1       0.266   9.989  19.896  0.00  0.00    +0.000 C 
ATOM      3  C   UNL     1       1.473   9.783  19.021  0.00  0.00    +0.000 C 
ATOM      4  N   UNL     1       2.096  10.736  18.406  0.00  0.00    +0.000 NA
ATOM      5  C   UNL     1       1.726  12.043  18.519  0.00  0.00    +0.000 C 
ATOM      6  O   UNL     1       2.298  12.944  17.923  0.00  0.00    +0.000 OA
ATOM      7  N   UNL     1       0.713  12.360  19.368  0.00  0.00    +0.000 N 
ATOM      8  H   UNL     1       0.457  13.337  19.318  0.00  0.00    +0.000 HD
ENDROOT
BRANCH   1  11
ATOM      9  C   UNL     1      -3.177  10.759  17.635  0.00  0.00    +0.000 A 
ATOM     10  C   UNL     1      -1.859  10.906  18.086  0.00  0.00    +0.000 A 
ATOM     11  C   UNL     1      -1.572  11.604  19.256  0.00  0.00    +0.000 A 
ATOM     12  C   UNL     1      -2.593  12.342  19.853  0.00  0.00    +0.000 A 
ATOM     13  C   UNL     1      -3.904  12.308  19.351  0.00  0.00    +0.000 A 
ATOM     14  C   UNL     1      -4.221  11.485  18.246  0.00  0.00    +0.000 A 
BRANCH   9  16
ATOM     15  C   UNL     1      -3.119  10.406  15.297  0.00  0.00    +0.000 C 
ATOM     16  O   UNL     1      -3.431   9.895  16.599  0.00  0.00    +0.000 OA
ENDBRANCH   9  16
BRANCH  13  17
ATOM     17  O   UNL     1      -4.738  13.097  20.105  0.00  0.00    +0.000 OA
ATOM     18  C   UNL     1      -5.207  12.629  21.360  0.00  0.00    +0.000 C 
ENDBRANCH  13  17
BRANCH  14  19
ATOM     19  O   UNL     1      -5.536  11.468  17.872  0.00  0.00    +0.000 OA
ATOM     20  C   UNL     1      -6.462  10.595  18.492  0.00  0.00    +0.000 C 
ENDBRANCH  14  19
ENDBRANCH   1  11
BRANCH   3  21
ATOM     21  C   UNL     1       2.015   8.387  18.928  0.00  0.00    +0.000 A 
ATOM     22  C   UNL     1       1.830   7.475  19.979  0.00  0.00    +0.000 A 
ATOM     23  C   UNL     1       2.425   6.214  19.937  0.00  0.00    +0.000 A 
ATOM     24  C   UNL     1       3.206   5.857  18.836  0.00  0.00    +0.000 A 
ATOM     25  C   UNL     1       3.379   6.746  17.765  0.00  0.00    +0.000 A 
ATOM     26  C   UNL     1       2.779   8.009  17.816  0.00  0.00    +0.000 A 
BRANCH  24  27
ATOM     27  N   UNL     1       3.862   4.545  18.820  0.00  0.00    +0.000 N 
ATOM     28  O   UNL     1       5.091   4.512  18.968  0.00  0.00    +0.000 OA
ATOM     29  O   UNL     1       3.146   3.548  18.650  0.00  0.00    +0.000 OA
ENDBRANCH  24  27
ENDBRANCH   3  21
TORSDOF 6
ENDMDL
