MODEL 1
REMARK VINA RESULT:      -8.9      0.000      0.000
REMARK  Name = 
REMARK  5 active torsions:
REMARK  status: ('A' for Active; 'I' for Inactive)
REMARK    1  A    between atoms: N_4  and  C_5
REMARK    2  A    between atoms: C_5  and  C_6
REMARK    3  A    between atoms: C_6  and  C_7
REMARK    4  A    between atoms: C_7  and  C_8
REMARK    5  A    between atoms: C_14  and  C_15
REMARK                            x       y       z     vdW  Elec       q    Type
REMARK                         _______ _______ _______ _____ _____    ______ ____
ROOT
ATOM      1  O   UNL     1       4.479   2.763  18.438  0.00  0.00    +0.000 OA
ATOM      2  C   UNL     1       4.831   3.861  17.972  0.00  0.00    +0.000 C 
ATOM      3  C   UNL     1       3.860   4.605  17.063  0.00  0.00    +0.000 C 
ATOM      4  N   UNL     1       4.100   6.030  16.783  0.00  0.00    +0.000 NA
ATOM      5  C   UNL     1       5.420   6.266  16.157  0.00  0.00    +0.000 C 
ATOM      6  C   UNL     1       6.504   6.436  17.209  0.00  0.00    +0.000 A 
ATOM      7  C   UNL     1       7.198   7.668  17.259  0.00  0.00    +0.000 A 
ATOM      8  C   UNL     1       8.117   7.925  18.270  0.00  0.00    +0.000 A 
ATOM      9 BR   UNL     1       8.771   9.677  18.520  0.00  0.00    +0.000 Br
ATOM     10  C   UNL     1       8.488   6.909  19.135  0.00  0.00    +0.000 A 
ATOM     11  C   UNL     1       7.853   5.671  19.055  0.00  0.00    +0.000 A 
ATOM     12  C   UNL     1       6.794   5.460  18.159  0.00  0.00    +0.000 A 
ATOM     13  N   UNL     1       6.068   4.277  18.350  0.00  0.00    +0.000 N 
ATOM     14  H   UNL     1       6.456   3.612  19.011  0.00  0.00    +0.000 HD
ENDROOT
BRANCH   5  15
ATOM     15  C   UNL     1       5.786   5.298  15.002  0.00  0.00    +0.000 A 
ATOM     16  C   UNL     1       7.110   5.237  14.524  0.00  0.00    +0.000 A 
ATOM     17  C   UNL     1       7.457   4.406  13.450  0.00  0.00    +0.000 A 
ATOM     18  C   UNL     1       6.491   3.611  12.835  0.00  0.00    +0.000 A 
ATOM     19  C   UNL     1       5.184   3.636  13.300  0.00  0.00    +0.000 A 
ATOM     20  C   UNL     1       4.840   4.460  14.376  0.00  0.00    +0.000 A 
ENDBRANCH   5  15
BRANCH   4  21
ATOM     21  C   UNL     1       3.762   6.855  17.966  0.00  0.00    +0.000 C 
BRANCH  21  22
ATOM     22  C   UNL     1       2.314   6.835  18.478  0.00  0.00    +0.000 C 
BRANCH  22  23
ATOM     23  C   UNL     1       2.177   6.556  19.971  0.00  0.00    +0.000 C 
BRANCH  23  24
ATOM     24  C   UNL     1       1.955   5.080  20.204  0.00  0.00    +0.000 A 
ATOM     25  C   UNL     1       1.220   4.317  19.285  0.00  0.00    +0.000 A 
ATOM     26  C   UNL     1       0.973   2.964  19.525  0.00  0.00    +0.000 A 
ATOM     27  C   UNL     1       1.454   2.362  20.687  0.00  0.00    +0.000 A 
ATOM     28  C   UNL     1       2.178   3.113  21.610  0.00  0.00    +0.000 A 
ATOM     29  C   UNL     1       2.425   4.466  21.373  0.00  0.00    +0.000 A 
ENDBRANCH  23  24
ENDBRANCH  22  23
ENDBRANCH  21  22
ENDBRANCH   4  21
TORSDOF 5
ENDMDL
MODEL 2
REMARK VINA RESULT:      -8.5      0.112      1.291
REMARK  Name = 
REMARK  5 active torsions:
REMARK  status: ('A' for Active; 'I' for Inactive)
REMARK    1  A    between atoms: N_4  and  C_5
REMARK    2  A    between atoms: C_5  and  C_6
REMARK    3  A    between atoms: C_6  and  C_7
REMARK    4  A    between atoms: C_7  and  C_8
REMARK    5  A    between atoms: C_14  and  C_15
REMARK                            x       y       z     vdW  Elec       q    Type
REMARK                         _______ _______ _______ _____ _____    ______ ____
ROOT
ATOM      1  O   UNL     1       4.658   2.769  18.486  0.00  0.00    +0.000 OA
ATOM      2  C   UNL     1       4.960   3.880  18.017  0.00  0.00    +0.000 C 
ATOM      3  C   UNL     1       3.940   4.595  17.139  0.00  0.00    +0.000 C 
ATOM      4  N   UNL     1       4.125   6.029  16.861  0.00  0.00    +0.000 NA
ATOM      5  C   UNL     1       5.418   6.313  16.200  0.00  0.00    +0.000 C 
ATOM      6  C   UNL     1       6.524   6.514  17.223  0.00  0.00    +0.000 A 
ATOM      7  C   UNL     1       7.178   7.768  17.261  0.00  0.00    +0.000 A 
ATOM      8  C   UNL     1       8.115   8.052  18.248  0.00  0.00    +0.000 A 
ATOM      9 BR   UNL     1       8.716   9.823  18.490  0.00  0.00    +0.000 Br
ATOM     10  C   UNL     1       8.544   7.045  19.097  0.00  0.00    +0.000 A 
ATOM     11  C   UNL     1       7.948   5.786  19.028  0.00  0.00    +0.000 A 
ATOM     12  C   UNL     1       6.873   5.543  18.160  0.00  0.00    +0.000 A 
ATOM     13  N   UNL     1       6.193   4.336  18.364  0.00  0.00    +0.000 N 
ATOM     14  H   UNL     1       6.621   3.681  19.010  0.00  0.00    +0.000 HD
ENDROOT
BRANCH   5  15
ATOM     15  C   UNL     1       5.785   5.362  15.030  0.00  0.00    +0.000 A 
ATOM     16  C   UNL     1       4.789   4.573  14.423  0.00  0.00    +0.000 A 
ATOM     17  C   UNL     1       5.103   3.671  13.396  0.00  0.00    +0.000 A 
ATOM     18  C   UNL     1       6.417   3.544  12.948  0.00  0.00    +0.000 A 
ATOM     19  C   UNL     1       7.413   4.326  13.515  0.00  0.00    +0.000 A 
ATOM     20  C   UNL     1       7.098   5.230  14.534  0.00  0.00    +0.000 A 
ENDBRANCH   5  15
BRANCH   4  21
ATOM     21  C   UNL     1       3.792   6.837  18.057  0.00  0.00    +0.000 C 
BRANCH  21  22
ATOM     22  C   UNL     1       2.335   6.852  18.542  0.00  0.00    +0.000 C 
BRANCH  22  23
ATOM     23  C   UNL     1       2.163   6.565  20.030  0.00  0.00    +0.000 C 
BRANCH  23  24
ATOM     24  C   UNL     1       1.885   5.095  20.245  0.00  0.00    +0.000 A 
ATOM     25  C   UNL     1       2.323   4.451  21.411  0.00  0.00    +0.000 A 
ATOM     26  C   UNL     1       2.109   3.083  21.586  0.00  0.00    +0.000 A 
ATOM     27  C   UNL     1       1.460   2.345  20.597  0.00  0.00    +0.000 A 
ATOM     28  C   UNL     1       1.028   2.974  19.431  0.00  0.00    +0.000 A 
ATOM     29  C   UNL     1       1.243   4.342  19.253  0.00  0.00    +0.000 A 
ENDBRANCH  23  24
ENDBRANCH  22  23
ENDBRANCH  21  22
ENDBRANCH   4  21
TORSDOF 5
ENDMDL
MODEL 3
REMARK VINA RESULT:      -7.9      1.863      2.913
REMARK  Name = 
REMARK  5 active torsions:
REMARK  status: ('A' for Active; 'I' for Inactive)
REMARK    1  A    between atoms: N_4  and  C_5
REMARK    2  A    between atoms: C_5  and  C_6
REMARK    3  A    between atoms: C_6  and  C_7
REMARK    4  A    between atoms: C_7  and  C_8
REMARK    5  A    between atoms: C_14  and  C_15
REMARK                            x       y       z     vdW  Elec       q    Type
REMARK                         _______ _______ _______ _____ _____    ______ ____
ROOT
ATOM      1  O   UNL     1       4.582   2.711  18.487  0.00  0.00    +0.000 OA
ATOM      2  C   UNL     1       4.893   3.816  18.010  0.00  0.00    +0.000 C 
ATOM      3  C   UNL     1       3.880   4.531  17.123  0.00  0.00    +0.000 C 
ATOM      4  N   UNL     1       4.075   5.962  16.834  0.00  0.00    +0.000 NA
ATOM      5  C   UNL     1       5.372   6.231  16.175  0.00  0.00    +0.000 C 
ATOM      6  C   UNL     1       6.477   6.433  17.199  0.00  0.00    +0.000 A 
ATOM      7  C   UNL     1       7.139   7.683  17.228  0.00  0.00    +0.000 A 
ATOM      8  C   UNL     1       8.075   7.968  18.215  0.00  0.00    +0.000 A 
ATOM      9 BR   UNL     1       8.688   9.738  18.445  0.00  0.00    +0.000 Br
ATOM     10  C   UNL     1       8.495   6.965  19.073  0.00  0.00    +0.000 A 
ATOM     11  C   UNL     1       7.892   5.710  19.013  0.00  0.00    +0.000 A 
ATOM     12  C   UNL     1       6.817   5.467  18.144  0.00  0.00    +0.000 A 
ATOM     13  N   UNL     1       6.128   4.267  18.356  0.00  0.00    +0.000 N 
ATOM     14  H   UNL     1       6.550   3.614  19.008  0.00  0.00    +0.000 HD
ENDROOT
BRANCH   5  15
ATOM     15  C   UNL     1       5.735   5.269  15.013  0.00  0.00    +0.000 A 
ATOM     16  C   UNL     1       7.064   5.189  14.551  0.00  0.00    +0.000 A 
ATOM     17  C   UNL     1       7.409   4.364  13.472  0.00  0.00    +0.000 A 
ATOM     18  C   UNL     1       6.437   3.594  12.836  0.00  0.00    +0.000 A 
ATOM     19  C   UNL     1       5.125   3.638  13.285  0.00  0.00    +0.000 A 
ATOM     20  C   UNL     1       4.782   4.456  14.365  0.00  0.00    +0.000 A 
ENDBRANCH   5  15
BRANCH   4  21
ATOM     21  C   UNL     1       3.744   6.781  18.023  0.00  0.00    +0.000 C 
BRANCH  21  22
ATOM     22  C   UNL     1       2.273   7.143  18.271  0.00  0.00    +0.000 C 
BRANCH  22  23
ATOM     23  C   UNL     1       1.967   8.635  18.177  0.00  0.00    +0.000 C 
BRANCH  23  24
ATOM     24  C   UNL     1       1.276   9.102  19.438  0.00  0.00    +0.000 A 
ATOM     25  C   UNL     1       0.560  10.307  19.452  0.00  0.00    +0.000 A 
ATOM     26  C   UNL     1      -0.036  10.762  20.630  0.00  0.00    +0.000 A 
ATOM     27  C   UNL     1       0.082  10.020  21.803  0.00  0.00    +0.000 A 
ATOM     28  C   UNL     1       0.799   8.825  21.802  0.00  0.00    +0.000 A 
ATOM     29  C   UNL     1       1.396   8.369  20.626  0.00  0.00    +0.000 A 
ENDBRANCH  23  24
ENDBRANCH  22  23
ENDBRANCH  21  22
ENDBRANCH   4  21
TORSDOF 5
ENDMDL
MODEL 4
REMARK VINA RESULT:      -7.8      2.025      3.399
REMARK  Name = 
REMARK  5 active torsions:
REMARK  status: ('A' for Active; 'I' for Inactive)
REMARK    1  A    between atoms: N_4  and  C_5
REMARK    2  A    between atoms: C_5  and  C_6
REMARK    3  A    between atoms: C_6  and  C_7
REMARK    4  A    between atoms: C_7  and  C_8
REMARK    5  A    between atoms: C_14  and  C_15
REMARK                            x       y       z     vdW  Elec       q    Type
REMARK                         _______ _______ _______ _____ _____    ______ ____
ROOT
ATOM      1  O   UNL     1       4.569   2.785  18.579  0.00  0.00    +0.000 OA
ATOM      2  C   UNL     1       4.888   3.885  18.093  0.00  0.00    +0.000 C 
ATOM      3  C   UNL     1       3.877   4.603  17.207  0.00  0.00    +0.000 C 
ATOM      4  N   UNL     1       4.082   6.030  16.910  0.00  0.00    +0.000 NA
ATOM      5  C   UNL     1       5.379   6.284  16.242  0.00  0.00    +0.000 C 
ATOM      6  C   UNL     1       6.490   6.483  17.260  0.00  0.00    +0.000 A 
ATOM      7  C   UNL     1       7.163   7.727  17.279  0.00  0.00    +0.000 A 
ATOM      8  C   UNL     1       8.107   8.009  18.259  0.00  0.00    +0.000 A 
ATOM      9 BR   UNL     1       8.736   9.775  18.476  0.00  0.00    +0.000 Br
ATOM     10  C   UNL     1       8.522   7.008  19.121  0.00  0.00    +0.000 A 
ATOM     11  C   UNL     1       7.907   5.757  19.071  0.00  0.00    +0.000 A 
ATOM     12  C   UNL     1       6.826   5.520  18.209  0.00  0.00    +0.000 A 
ATOM     13  N   UNL     1       6.128   4.326  18.431  0.00  0.00    +0.000 N 
ATOM     14  H   UNL     1       6.547   3.674  19.085  0.00  0.00    +0.000 HD
ENDROOT
BRANCH   5  15
ATOM     15  C   UNL     1       5.728   5.313  15.084  0.00  0.00    +0.000 A 
ATOM     16  C   UNL     1       7.059   5.195  14.638  0.00  0.00    +0.000 A 
ATOM     17  C   UNL     1       7.393   4.360  13.563  0.00  0.00    +0.000 A 
ATOM     18  C   UNL     1       6.407   3.618  12.915  0.00  0.00    +0.000 A 
ATOM     19  C   UNL     1       5.091   3.699  13.349  0.00  0.00    +0.000 A 
ATOM     20  C   UNL     1       4.760   4.527  14.426  0.00  0.00    +0.000 A 
ENDBRANCH   5  15
BRANCH   4  21
ATOM     21  C   UNL     1       3.765   6.859  18.095  0.00  0.00    +0.000 C 
BRANCH  21  22
ATOM     22  C   UNL     1       2.341   7.416  18.233  0.00  0.00    +0.000 C 
BRANCH  22  23
ATOM     23  C   UNL     1       2.161   8.830  17.689  0.00  0.00    +0.000 C 
BRANCH  23  24
ATOM     24  C   UNL     1       1.023   9.519  18.404  0.00  0.00    +0.000 A 
ATOM     25  C   UNL     1       1.125   9.837  19.766  0.00  0.00    +0.000 A 
ATOM     26  C   UNL     1       0.054  10.429  20.438  0.00  0.00    +0.000 A 
ATOM     27  C   UNL     1      -1.130  10.706  19.756  0.00  0.00    +0.000 A 
ATOM     28  C   UNL     1      -1.245  10.387  18.405  0.00  0.00    +0.000 A 
ATOM     29  C   UNL     1      -0.176   9.793  17.732  0.00  0.00    +0.000 A 
ENDBRANCH  23  24
ENDBRANCH  22  23
ENDBRANCH  21  22
ENDBRANCH   4  21
TORSDOF 5
ENDMDL
MODEL 5
REMARK VINA RESULT:      -7.6      1.665      2.979
REMARK  Name = 
REMARK  5 active torsions:
REMARK  status: ('A' for Active; 'I' for Inactive)
REMARK    1  A    between atoms: N_4  and  C_5
REMARK    2  A    between atoms: C_5  and  C_6
REMARK    3  A    between atoms: C_6  and  C_7
REMARK    4  A    between atoms: C_7  and  C_8
REMARK    5  A    between atoms: C_14  and  C_15
REMARK                            x       y       z     vdW  Elec       q    Type
REMARK                         _______ _______ _______ _____ _____    ______ ____
ROOT
ATOM      1  O   UNL     1       4.449   2.721  18.398  0.00  0.00    +0.000 OA
ATOM      2  C   UNL     1       4.813   3.826  17.958  0.00  0.00    +0.000 C 
ATOM      3  C   UNL     1       3.850   4.602  17.068  0.00  0.00    +0.000 C 
ATOM      4  N   UNL     1       4.105   6.031  16.823  0.00  0.00    +0.000 NA
ATOM      5  C   UNL     1       5.428   6.268  16.201  0.00  0.00    +0.000 C 
ATOM      6  C   UNL     1       6.514   6.401  17.257  0.00  0.00    +0.000 A 
ATOM      7  C   UNL     1       7.221   7.623  17.336  0.00  0.00    +0.000 A 
ATOM      8  C   UNL     1       8.143   7.846  18.352  0.00  0.00    +0.000 A 
ATOM      9 BR   UNL     1       8.816   9.584  18.644  0.00  0.00    +0.000 Br
ATOM     10  C   UNL     1       8.504   6.806  19.192  0.00  0.00    +0.000 A 
ATOM     11  C   UNL     1       7.855   5.576  19.083  0.00  0.00    +0.000 A 
ATOM     12  C   UNL     1       6.793   5.398  18.183  0.00  0.00    +0.000 A 
ATOM     13  N   UNL     1       6.055   4.220  18.346  0.00  0.00    +0.000 N 
ATOM     14  H   UNL     1       6.436   3.535  18.991  0.00  0.00    +0.000 HD
ENDROOT
BRANCH   5  15
ATOM     15  C   UNL     1       5.783   5.323  15.023  0.00  0.00    +0.000 A 
ATOM     16  C   UNL     1       7.103   5.271  14.534  0.00  0.00    +0.000 A 
ATOM     17  C   UNL     1       7.440   4.461  13.440  0.00  0.00    +0.000 A 
ATOM     18  C   UNL     1       6.468   3.681  12.816  0.00  0.00    +0.000 A 
ATOM     19  C   UNL     1       5.165   3.699  13.292  0.00  0.00    +0.000 A 
ATOM     20  C   UNL     1       4.831   4.501  14.387  0.00  0.00    +0.000 A 
ENDBRANCH   5  15
BRANCH   4  21
ATOM     21  C   UNL     1       3.777   6.831  18.025  0.00  0.00    +0.000 C 
BRANCH  21  22
ATOM     22  C   UNL     1       2.307   6.921  18.460  0.00  0.00    +0.000 C 
BRANCH  22  23
ATOM     23  C   UNL     1       2.098   6.985  19.969  0.00  0.00    +0.000 C 
BRANCH  23  24
ATOM     24  C   UNL     1       1.492   8.315  20.353  0.00  0.00    +0.000 A 
ATOM     25  C   UNL     1       1.089   8.559  21.673  0.00  0.00    +0.000 A 
ATOM     26  C   UNL     1       0.483   9.770  22.016  0.00  0.00    +0.000 A 
ATOM     27  C   UNL     1       0.272  10.745  21.042  0.00  0.00    +0.000 A 
ATOM     28  C   UNL     1       0.661  10.508  19.725  0.00  0.00    +0.000 A 
ATOM     29  C   UNL     1       1.265   9.298  19.381  0.00  0.00    +0.000 A 
ENDBRANCH  23  24
ENDBRANCH  22  23
ENDBRANCH  21  22
ENDBRANCH   4  21
TORSDOF 5
ENDMDL
MODEL 6
REMARK VINA RESULT:      -7.6      1.870      3.128
REMARK  Name = 
REMARK  5 active torsions:
REMARK  status: ('A' for Active; 'I' for Inactive)
REMARK    1  A    between atoms: N_4  and  C_5
REMARK    2  A    between atoms: C_5  and  C_6
REMARK    3  A    between atoms: C_6  and  C_7
REMARK    4  A    between atoms: C_7  and  C_8
REMARK    5  A    between atoms: C_14  and  C_15
REMARK                            x       y       z     vdW  Elec       q    Type
REMARK                         _______ _______ _______ _____ _____    ______ ____
ROOT
ATOM      1  O   UNL     1       4.616   2.751  18.496  0.00  0.00    +0.000 OA
ATOM      2  C   UNL     1       4.928   3.859  18.025  0.00  0.00    +0.000 C 
ATOM      3  C   UNL     1       3.914   4.580  17.144  0.00  0.00    +0.000 C 
ATOM      4  N   UNL     1       4.111   6.012  16.863  0.00  0.00    +0.000 NA
ATOM      5  C   UNL     1       5.407   6.284  16.203  0.00  0.00    +0.000 C 
ATOM      6  C   UNL     1       6.514   6.479  17.228  0.00  0.00    +0.000 A 
ATOM      7  C   UNL     1       7.177   7.727  17.264  0.00  0.00    +0.000 A 
ATOM      8  C   UNL     1       8.116   8.005  18.251  0.00  0.00    +0.000 A 
ATOM      9 BR   UNL     1       8.731   9.772  18.491  0.00  0.00    +0.000 Br
ATOM     10  C   UNL     1       8.535   6.996  19.103  0.00  0.00    +0.000 A 
ATOM     11  C   UNL     1       7.930   5.742  19.035  0.00  0.00    +0.000 A 
ATOM     12  C   UNL     1       6.853   5.507  18.166  0.00  0.00    +0.000 A 
ATOM     13  N   UNL     1       6.163   4.305  18.372  0.00  0.00    +0.000 N 
ATOM     14  H   UNL     1       6.585   3.649  19.020  0.00  0.00    +0.000 HD
ENDROOT
BRANCH   5  15
ATOM     15  C   UNL     1       5.768   5.329  15.036  0.00  0.00    +0.000 A 
ATOM     16  C   UNL     1       4.762   4.566  14.410  0.00  0.00    +0.000 A 
ATOM     17  C   UNL     1       5.068   3.661  13.385  0.00  0.00    +0.000 A 
ATOM     18  C   UNL     1       6.385   3.502  12.957  0.00  0.00    +0.000 A 
ATOM     19  C   UNL     1       7.392   4.257  13.541  0.00  0.00    +0.000 A 
ATOM     20  C   UNL     1       7.085   5.165  14.559  0.00  0.00    +0.000 A 
ENDBRANCH   5  15
BRANCH   4  21
ATOM     21  C   UNL     1       3.783   6.825  18.058  0.00  0.00    +0.000 C 
BRANCH  21  22
ATOM     22  C   UNL     1       2.311   7.175  18.318  0.00  0.00    +0.000 C 
BRANCH  22  23
ATOM     23  C   UNL     1       1.985   8.660  18.193  0.00  0.00    +0.000 C 
BRANCH  23  24
ATOM     24  C   UNL     1       1.241   9.131  19.421  0.00  0.00    +0.000 A 
ATOM     25  C   UNL     1       1.300   8.398  20.615  0.00  0.00    +0.000 A 
ATOM     26  C   UNL     1       0.573   8.807  21.734  0.00  0.00    +0.000 A 
ATOM     27  C   UNL     1      -0.222   9.949  21.670  0.00  0.00    +0.000 A 
ATOM     28  C   UNL     1      -0.295  10.681  20.487  0.00  0.00    +0.000 A 
ATOM     29  C   UNL     1       0.430  10.273  19.366  0.00  0.00    +0.000 A 
ENDBRANCH  23  24
ENDBRANCH  22  23
ENDBRANCH  21  22
ENDBRANCH   4  21
TORSDOF 5
ENDMDL
MODEL 7
REMARK VINA RESULT:      -7.4      1.691      3.018
REMARK  Name = 
REMARK  5 active torsions:
REMARK  status: ('A' for Active; 'I' for Inactive)
REMARK    1  A    between atoms: N_4  and  C_5
REMARK    2  A    between atoms: C_5  and  C_6
REMARK    3  A    between atoms: C_6  and  C_7
REMARK    4  A    between atoms: C_7  and  C_8
REMARK    5  A    between atoms: C_14  and  C_15
REMARK                            x       y       z     vdW  Elec       q    Type
REMARK                         _______ _______ _______ _____ _____    ______ ____
ROOT
ATOM      1  O   UNL     1       4.520   2.840  18.461  0.00  0.00    +0.000 OA
ATOM      2  C   UNL     1       4.867   3.941  17.998  0.00  0.00    +0.000 C 
ATOM      3  C   UNL     1       3.888   4.690  17.102  0.00  0.00    +0.000 C 
ATOM      4  N   UNL     1       4.125   6.117  16.829  0.00  0.00    +0.000 NA
ATOM      5  C   UNL     1       5.439   6.357  16.191  0.00  0.00    +0.000 C 
ATOM      6  C   UNL     1       6.532   6.521  17.234  0.00  0.00    +0.000 A 
ATOM      7  C   UNL     1       7.227   7.753  17.284  0.00  0.00    +0.000 A 
ATOM      8  C   UNL     1       8.155   8.005  18.288  0.00  0.00    +0.000 A 
ATOM      9 BR   UNL     1       8.811   9.755  18.542  0.00  0.00    +0.000 Br
ATOM     10  C   UNL     1       8.535   6.984  19.144  0.00  0.00    +0.000 A 
ATOM     11  C   UNL     1       7.899   5.746  19.063  0.00  0.00    +0.000 A 
ATOM     12  C   UNL     1       6.832   5.539  18.176  0.00  0.00    +0.000 A 
ATOM     13  N   UNL     1       6.108   4.356  18.368  0.00  0.00    +0.000 N 
ATOM     14  H   UNL     1       6.502   3.687  19.021  0.00  0.00    +0.000 HD
ENDROOT
BRANCH   5  15
ATOM     15  C   UNL     1       5.794   5.395  15.028  0.00  0.00    +0.000 A 
ATOM     16  C   UNL     1       4.794   4.594  14.443  0.00  0.00    +0.000 A 
ATOM     17  C   UNL     1       5.098   3.682  13.422  0.00  0.00    +0.000 A 
ATOM     18  C   UNL     1       6.407   3.557  12.958  0.00  0.00    +0.000 A 
ATOM     19  C   UNL     1       7.407   4.350  13.502  0.00  0.00    +0.000 A 
ATOM     20  C   UNL     1       7.101   5.264  14.515  0.00  0.00    +0.000 A 
ENDBRANCH   5  15
BRANCH   4  21
ATOM     21  C   UNL     1       3.798   6.935  18.020  0.00  0.00    +0.000 C 
BRANCH  21  22
ATOM     22  C   UNL     1       2.332   7.010  18.471  0.00  0.00    +0.000 C 
BRANCH  22  23
ATOM     23  C   UNL     1       2.140   7.065  19.983  0.00  0.00    +0.000 C 
BRANCH  23  24
ATOM     24  C   UNL     1       1.416   8.334  20.367  0.00  0.00    +0.000 A 
ATOM     25  C   UNL     1       1.158   9.325  19.409  0.00  0.00    +0.000 A 
ATOM     26  C   UNL     1       0.533  10.518  19.775  0.00  0.00    +0.000 A 
ATOM     27  C   UNL     1       0.163  10.734  21.101  0.00  0.00    +0.000 A 
ATOM     28  C   UNL     1       0.422   9.760  22.063  0.00  0.00    +0.000 A 
ATOM     29  C   UNL     1       1.049   8.567  21.699  0.00  0.00    +0.000 A 
ENDBRANCH  23  24
ENDBRANCH  22  23
ENDBRANCH  21  22
ENDBRANCH   4  21
TORSDOF 5
ENDMDL
MODEL 8
REMARK VINA RESULT:      -7.4      6.084      9.248
REMARK  Name = 
REMARK  5 active torsions:
REMARK  status: ('A' for Active; 'I' for Inactive)
REMARK    1  A    between atoms: N_4  and  C_5
REMARK    2  A    between atoms: C_5  and  C_6
REMARK    3  A    between atoms: C_6  and  C_7
REMARK    4  A    between atoms: C_7  and  C_8
REMARK    5  A    between atoms: C_14  and  C_15
REMARK                            x       y       z     vdW  Elec       q    Type
REMARK                         _______ _______ _______ _____ _____    ______ ____
ROOT
ATOM      1  O   UNL     1      -2.234  11.894  17.594  0.00  0.00    +0.000 OA
ATOM      2  C   UNL     1      -1.189  11.962  18.264  0.00  0.00    +0.000 C 
ATOM      3  C   UNL     1      -0.630  10.677  18.864  0.00  0.00    +0.000 C 
ATOM      4  N   UNL     1       0.757  10.668  19.355  0.00  0.00    +0.000 NA
ATOM      5  C   UNL     1       0.986  11.678  20.413  0.00  0.00    +0.000 C 
ATOM      6  C   UNL     1       1.358  13.024  19.814  0.00  0.00    +0.000 A 
ATOM      7  C   UNL     1       2.624  13.569  20.132  0.00  0.00    +0.000 A 
ATOM      8  C   UNL     1       3.067  14.739  19.525  0.00  0.00    +0.000 A 
ATOM      9 BR   UNL     1       4.872  15.260  19.695  0.00  0.00    +0.000 Br
ATOM     10  C   UNL     1       2.198  15.474  18.735  0.00  0.00    +0.000 A 
ATOM     11  C   UNL     1       0.924  14.975  18.464  0.00  0.00    +0.000 A 
ATOM     12  C   UNL     1       0.534  13.707  18.921  0.00  0.00    +0.000 A 
ATOM     13  N   UNL     1      -0.653  13.207  18.373  0.00  0.00    +0.000 N 
ATOM     14  H   UNL     1      -1.201  13.855  17.817  0.00  0.00    +0.000 HD
ENDROOT
BRANCH   5  15
ATOM     15  C   UNL     1      -0.103  11.739  21.515  0.00  0.00    +0.000 A 
ATOM     16  C   UNL     1      -0.392  10.596  22.288  0.00  0.00    +0.000 A 
ATOM     17  C   UNL     1      -1.404  10.612  23.258  0.00  0.00    +0.000 A 
ATOM     18  C   UNL     1      -2.145  11.770  23.483  0.00  0.00    +0.000 A 
ATOM     19  C   UNL     1      -1.866  12.916  22.751  0.00  0.00    +0.000 A 
ATOM     20  C   UNL     1      -0.852  12.902  21.789  0.00  0.00    +0.000 A 
ENDBRANCH   5  15
BRANCH   4  21
ATOM     21  C   UNL     1       1.710  10.657  18.221  0.00  0.00    +0.000 C 
BRANCH  21  22
ATOM     22  C   UNL     1       2.190   9.299  17.687  0.00  0.00    +0.000 C 
BRANCH  22  23
ATOM     23  C   UNL     1       2.082   8.154  18.689  0.00  0.00    +0.000 C 
BRANCH  23  24
ATOM     24  C   UNL     1       2.815   6.940  18.167  0.00  0.00    +0.000 A 
ATOM     25  C   UNL     1       4.002   7.085  17.435  0.00  0.00    +0.000 A 
ATOM     26  C   UNL     1       4.652   5.966  16.911  0.00  0.00    +0.000 A 
ATOM     27  C   UNL     1       4.120   4.693  17.111  0.00  0.00    +0.000 A 
ATOM     28  C   UNL     1       2.936   4.538  17.829  0.00  0.00    +0.000 A 
ATOM     29  C   UNL     1       2.284   5.656  18.352  0.00  0.00    +0.000 A 
ENDBRANCH  23  24
ENDBRANCH  22  23
ENDBRANCH  21  22
ENDBRANCH   4  21
TORSDOF 5
ENDMDL
MODEL 9
REMARK VINA RESULT:      -7.3      6.677      9.532
REMARK  Name = 
REMARK  5 active torsions:
REMARK  status: ('A' for Active; 'I' for Inactive)
REMARK    1  A    between atoms: N_4  and  C_5
REMARK    2  A    between atoms: C_5  and  C_6
REMARK    3  A    between atoms: C_6  and  C_7
REMARK    4  A    between atoms: C_7  and  C_8
REMARK    5  A    between atoms: C_14  and  C_15
REMARK                            x       y       z     vdW  Elec       q    Type
REMARK                         _______ _______ _______ _____ _____    ______ ____
ROOT
ATOM      1  O   UNL     1      -0.349  11.796  22.736  0.00  0.00    +0.000 OA
ATOM      2  C   UNL     1      -0.308  11.784  21.493  0.00  0.00    +0.000 C 
ATOM      3  C   UNL     1       1.043  11.582  20.817  0.00  0.00    +0.000 C 
ATOM      4  N   UNL     1       1.075  11.223  19.389  0.00  0.00    +0.000 NA
ATOM      5  C   UNL     1       0.404  12.232  18.540  0.00  0.00    +0.000 C 
ATOM      6  C   UNL     1      -1.087  11.952  18.430  0.00  0.00    +0.000 A 
ATOM      7  C   UNL     1      -1.623  11.682  17.150  0.00  0.00    +0.000 A 
ATOM      8  C   UNL     1      -2.952  11.306  17.000  0.00  0.00    +0.000 A 
ATOM      9 BR   UNL     1      -3.555  10.623  15.348  0.00  0.00    +0.000 Br
ATOM     10  C   UNL     1      -3.808  11.363  18.088  0.00  0.00    +0.000 A 
ATOM     11  C   UNL     1      -3.302  11.687  19.346  0.00  0.00    +0.000 A 
ATOM     12  C   UNL     1      -1.927  11.888  19.540  0.00  0.00    +0.000 A 
ATOM     13  N   UNL     1      -1.508  11.946  20.875  0.00  0.00    +0.000 N 
ATOM     14  H   UNL     1      -2.240  11.990  21.576  0.00  0.00    +0.000 HD
ENDROOT
BRANCH   5  15
ATOM     15  C   UNL     1       0.763  13.707  18.856  0.00  0.00    +0.000 A 
ATOM     16  C   UNL     1       2.112  14.097  18.971  0.00  0.00    +0.000 A 
ATOM     17  C   UNL     1       2.462  15.413  19.303  0.00  0.00    +0.000 A 
ATOM     18  C   UNL     1       1.473  16.371  19.520  0.00  0.00    +0.000 A 
ATOM     19  C   UNL     1       0.137  16.019  19.392  0.00  0.00    +0.000 A 
ATOM     20  C   UNL     1      -0.211  14.707  19.054  0.00  0.00    +0.000 A 
ENDBRANCH   5  15
BRANCH   4  21
ATOM     21  C   UNL     1       0.671   9.811  19.200  0.00  0.00    +0.000 C 
BRANCH  21  22
ATOM     22  C   UNL     1       1.246   9.044  18.000  0.00  0.00    +0.000 C 
BRANCH  22  23
ATOM     23  C   UNL     1       2.579   8.355  18.273  0.00  0.00    +0.000 C 
BRANCH  23  24
ATOM     24  C   UNL     1       2.342   6.949  18.773  0.00  0.00    +0.000 A 
ATOM     25  C   UNL     1       2.316   5.869  17.878  0.00  0.00    +0.000 A 
ATOM     26  C   UNL     1       2.048   4.578  18.335  0.00  0.00    +0.000 A 
ATOM     27  C   UNL     1       1.800   4.353  19.688  0.00  0.00    +0.000 A 
ATOM     28  C   UNL     1       1.815   5.420  20.584  0.00  0.00    +0.000 A 
ATOM     29  C   UNL     1       2.081   6.712  20.129  0.00  0.00    +0.000 A 
ENDBRANCH  23  24
ENDBRANCH  22  23
ENDBRANCH  21  22
ENDBRANCH   4  21
TORSDOF 5
ENDMDL
