MODEL 1
REMARK VINA RESULT:      -8.5      0.000      0.000
REMARK  Name = 
REMARK  5 active torsions:
REMARK  status: ('A' for Active; 'I' for Inactive)
REMARK    1  A    between atoms: C_1  and  C_2
REMARK    2  A    between atoms: C_4  and  C_5
REMARK    3  A    between atoms: C_5  and  C_7
REMARK    4  A    between atoms: C_7  and  N_8
REMARK    5  A    between atoms: C_17  and  C_18
REMARK                            x       y       z     vdW  Elec       q    Type
REMARK                         _______ _______ _______ _____ _____    ______ ____
ROOT
ATOM      1  C   UNL     1       1.184   5.078  20.750  0.00  0.00    +0.000 C 
ATOM      2  C   UNL     1       2.431   5.279  19.956  0.00  0.00    +0.000 A 
ATOM      3  C   UNL     1       3.360   4.309  19.627  0.00  0.00    +0.000 A 
ATOM      4  C   UNL     1       4.265   4.845  18.678  0.00  0.00    +0.000 A 
ATOM      5  C   UNL     1       3.923   6.188  18.529  0.00  0.00    +0.000 A 
ATOM      6  C   UNL     1       4.606   7.252  17.726  0.00  0.00    +0.000 C 
ATOM      7  N   UNL     1       2.782   6.458  19.296  0.00  0.00    +0.000 N 
ATOM      8  C   UNL     1       2.063   7.710  19.312  0.00  0.00    +0.000 A 
ATOM      9  C   UNL     1       1.407   8.137  20.461  0.00  0.00    +0.000 A 
ATOM     10  C   UNL     1       0.661   9.318  20.419  0.00  0.00    +0.000 A 
ATOM     11  C   UNL     1       0.601  10.041  19.238  0.00  0.00    +0.000 A 
ATOM     12  C   UNL     1       1.306   9.568  18.150  0.00  0.00    +0.000 A 
ATOM     13  N   UNL     1       2.039   8.433  18.162  0.00  0.00    +0.000 NA
ENDROOT
BRANCH   4  14
ATOM     14  C   UNL     1       5.350   4.140  17.979  0.00  0.00    +0.000 C 
ATOM     15  O   UNL     1       6.441   3.935  18.517  0.00  0.00    +0.000 OA
BRANCH  14  16
ATOM     16  C   UNL     1       5.123   3.694  16.543  0.00  0.00    +0.000 C 
BRANCH  16  17
ATOM     17  N   UNL     1       5.989   4.377  15.605  0.00  0.00    +0.000 N 
ATOM     18  C   UNL     1       6.949   5.286  15.957  0.00  0.00    +0.000 A 
ATOM     19  N   UNL     1       7.704   5.613  14.933  0.00  0.00    +0.000 NA
ATOM     20  C   UNL     1       7.195   4.908  13.873  0.00  0.00    +0.000 A 
ATOM     21  C   UNL     1       7.671   4.819  12.557  0.00  0.00    +0.000 A 
ATOM     22  C   UNL     1       6.981   4.017  11.643  0.00  0.00    +0.000 A 
ATOM     23  C   UNL     1       5.796   3.377  12.012  0.00  0.00    +0.000 A 
ATOM     24  C   UNL     1       5.296   3.462  13.319  0.00  0.00    +0.000 A 
ATOM     25  C   UNL     1       6.056   4.193  14.243  0.00  0.00    +0.000 A 
ENDBRANCH  16  17
ENDBRANCH  14  16
ENDBRANCH   4  14
TORSDOF 3
ENDMDL
MODEL 2
REMARK VINA RESULT:      -8.4      1.672      2.925
REMARK  Name = 
REMARK  5 active torsions:
REMARK  status: ('A' for Active; 'I' for Inactive)
REMARK    1  A    between atoms: C_1  and  C_2
REMARK    2  A    between atoms: C_4  and  C_5
REMARK    3  A    between atoms: C_5  and  C_7
REMARK    4  A    between atoms: C_7  and  N_8
REMARK    5  A    between atoms: C_17  and  C_18
REMARK                            x       y       z     vdW  Elec       q    Type
REMARK                         _______ _______ _______ _____ _____    ______ ____
ROOT
ATOM      1  C   UNL     1       2.249   9.749  17.800  0.00  0.00    +0.000 C 
ATOM      2  C   UNL     1       2.304   8.364  18.356  0.00  0.00    +0.000 A 
ATOM      3  C   UNL     1       2.995   7.292  17.822  0.00  0.00    +0.000 A 
ATOM      4  C   UNL     1       2.987   6.230  18.759  0.00  0.00    +0.000 A 
ATOM      5  C   UNL     1       2.186   6.651  19.818  0.00  0.00    +0.000 A 
ATOM      6  C   UNL     1       1.753   5.891  21.035  0.00  0.00    +0.000 C 
ATOM      7  N   UNL     1       1.777   7.972  19.587  0.00  0.00    +0.000 N 
ATOM      8  C   UNL     1       1.028   8.788  20.513  0.00  0.00    +0.000 A 
ATOM      9  C   UNL     1       0.144   9.756  20.050  0.00  0.00    +0.000 A 
ATOM     10  C   UNL     1      -0.510  10.577  20.973  0.00  0.00    +0.000 A 
ATOM     11  C   UNL     1      -0.270  10.401  22.327  0.00  0.00    +0.000 A 
ATOM     12  C   UNL     1       0.597   9.398  22.708  0.00  0.00    +0.000 A 
ATOM     13  N   UNL     1       1.240   8.586  21.840  0.00  0.00    +0.000 NA
ENDROOT
BRANCH   4  14
ATOM     14  C   UNL     1       3.683   4.939  18.653  0.00  0.00    +0.000 C 
ATOM     15  O   UNL     1       3.074   3.893  18.419  0.00  0.00    +0.000 OA
BRANCH  14  16
ATOM     16  C   UNL     1       5.186   4.900  18.882  0.00  0.00    +0.000 C 
BRANCH  16  17
ATOM     17  N   UNL     1       5.935   5.388  17.743  0.00  0.00    +0.000 N 
ATOM     18  C   UNL     1       6.891   6.365  17.807  0.00  0.00    +0.000 A 
ATOM     19  N   UNL     1       7.536   6.487  16.670  0.00  0.00    +0.000 NA
ATOM     20  C   UNL     1       6.955   5.572  15.829  0.00  0.00    +0.000 A 
ATOM     21  C   UNL     1       7.309   5.222  14.519  0.00  0.00    +0.000 A 
ATOM     22  C   UNL     1       6.565   4.239  13.859  0.00  0.00    +0.000 A 
ATOM     23  C   UNL     1       5.443   3.670  14.465  0.00  0.00    +0.000 A 
ATOM     24  C   UNL     1       5.065   4.014  15.770  0.00  0.00    +0.000 A 
ATOM     25  C   UNL     1       5.882   4.930  16.448  0.00  0.00    +0.000 A 
ENDBRANCH  16  17
ENDBRANCH  14  16
ENDBRANCH   4  14
TORSDOF 3
ENDMDL
MODEL 3
REMARK VINA RESULT:      -8.3      3.467      5.571
REMARK  Name = 
REMARK  5 active torsions:
REMARK  status: ('A' for Active; 'I' for Inactive)
REMARK    1  A    between atoms: C_1  and  C_2
REMARK    2  A    between atoms: C_4  and  C_5
REMARK    3  A    between atoms: C_5  and  C_7
REMARK    4  A    between atoms: C_7  and  N_8
REMARK    5  A    between atoms: C_17  and  C_18
REMARK                            x       y       z     vdW  Elec       q    Type
REMARK                         _______ _______ _______ _____ _____    ______ ____
ROOT
ATOM      1  C   UNL     1       0.926  10.714  18.095  0.00  0.00    +0.000 C 
ATOM      2  C   UNL     1       1.501   9.366  18.380  0.00  0.00    +0.000 A 
ATOM      3  C   UNL     1       2.297   8.617  17.533  0.00  0.00    +0.000 A 
ATOM      4  C   UNL     1       2.824   7.518  18.253  0.00  0.00    +0.000 A 
ATOM      5  C   UNL     1       2.240   7.564  19.518  0.00  0.00    +0.000 A 
ATOM      6  C   UNL     1       2.363   6.591  20.650  0.00  0.00    +0.000 C 
ATOM      7  N   UNL     1       1.440   8.710  19.611  0.00  0.00    +0.000 N 
ATOM      8  C   UNL     1       0.761   9.161  20.803  0.00  0.00    +0.000 A 
ATOM      9  C   UNL     1      -0.443   9.849  20.716  0.00  0.00    +0.000 A 
ATOM     10  C   UNL     1      -1.036  10.334  21.885  0.00  0.00    +0.000 A 
ATOM     11  C   UNL     1      -0.415  10.107  23.105  0.00  0.00    +0.000 A 
ATOM     12  C   UNL     1       0.762   9.387  23.111  0.00  0.00    +0.000 A 
ATOM     13  N   UNL     1       1.356   8.903  21.997  0.00  0.00    +0.000 NA
ENDROOT
BRANCH   4  14
ATOM     14  C   UNL     1       3.795   6.521  17.779  0.00  0.00    +0.000 C 
ATOM     15  O   UNL     1       4.990   6.795  17.642  0.00  0.00    +0.000 OA
BRANCH  14  16
ATOM     16  C   UNL     1       3.296   5.132  17.413  0.00  0.00    +0.000 C 
BRANCH  16  17
ATOM     17  N   UNL     1       3.563   4.153  18.446  0.00  0.00    +0.000 N 
ATOM     18  C   UNL     1       4.806   3.668  18.749  0.00  0.00    +0.000 A 
ATOM     19  N   UNL     1       4.786   2.934  19.838  0.00  0.00    +0.000 NA
ATOM     20  C   UNL     1       3.474   2.921  20.238  0.00  0.00    +0.000 A 
ATOM     21  C   UNL     1       2.903   2.356  21.387  0.00  0.00    +0.000 A 
ATOM     22  C   UNL     1       1.525   2.484  21.587  0.00  0.00    +0.000 A 
ATOM     23  C   UNL     1       0.721   3.095  20.623  0.00  0.00    +0.000 A 
ATOM     24  C   UNL     1       1.269   3.656  19.462  0.00  0.00    +0.000 A 
ATOM     25  C   UNL     1       2.664   3.602  19.329  0.00  0.00    +0.000 A 
ENDBRANCH  16  17
ENDBRANCH  14  16
ENDBRANCH   4  14
TORSDOF 3
ENDMDL
MODEL 4
REMARK VINA RESULT:      -8.2      3.182      8.342
REMARK  Name = 
REMARK  5 active torsions:
REMARK  status: ('A' for Active; 'I' for Inactive)
REMARK    1  A    between atoms: C_1  and  C_2
REMARK    2  A    between atoms: C_4  and  C_5
REMARK    3  A    between atoms: C_5  and  C_7
REMARK    4  A    between atoms: C_7  and  N_8
REMARK    5  A    between atoms: C_17  and  C_18
REMARK                            x       y       z     vdW  Elec       q    Type
REMARK                         _______ _______ _______ _____ _____    ______ ____
ROOT
ATOM      1  C   UNL     1       2.156   4.773  20.909  0.00  0.00    +0.000 C 
ATOM      2  C   UNL     1       1.919   6.138  20.352  0.00  0.00    +0.000 A 
ATOM      3  C   UNL     1       1.317   7.198  21.005  0.00  0.00    +0.000 A 
ATOM      4  C   UNL     1       1.491   8.370  20.231  0.00  0.00    +0.000 A 
ATOM      5  C   UNL     1       2.115   7.969  19.051  0.00  0.00    +0.000 A 
ATOM      6  C   UNL     1       2.449   8.781  17.837  0.00  0.00    +0.000 C 
ATOM      7  N   UNL     1       2.400   6.600  19.126  0.00  0.00    +0.000 N 
ATOM      8  C   UNL     1       3.142   5.845  18.143  0.00  0.00    +0.000 A 
ATOM      9  C   UNL     1       2.864   4.502  17.923  0.00  0.00    +0.000 A 
ATOM     10  C   UNL     1       3.649   3.784  17.017  0.00  0.00    +0.000 A 
ATOM     11  C   UNL     1       4.679   4.431  16.351  0.00  0.00    +0.000 A 
ATOM     12  C   UNL     1       4.871   5.775  16.600  0.00  0.00    +0.000 A 
ATOM     13  N   UNL     1       4.126   6.495  17.467  0.00  0.00    +0.000 NA
ENDROOT
BRANCH   4  14
ATOM     14  C   UNL     1       1.103   9.743  20.587  0.00  0.00    +0.000 C 
ATOM     15  O   UNL     1       0.991  10.100  21.762  0.00  0.00    +0.000 OA
BRANCH  14  16
ATOM     16  C   UNL     1       0.793  10.727  19.469  0.00  0.00    +0.000 C 
BRANCH  16  17
ATOM     17  N   UNL     1      -0.612  11.066  19.398  0.00  0.00    +0.000 N 
ATOM     18  C   UNL     1      -1.257  11.884  20.286  0.00  0.00    +0.000 A 
ATOM     19  N   UNL     1      -2.476  12.165  19.887  0.00  0.00    +0.000 NA
ATOM     20  C   UNL     1      -2.636  11.479  18.710  0.00  0.00    +0.000 A 
ATOM     21  C   UNL     1      -3.717  11.487  17.819  0.00  0.00    +0.000 A 
ATOM     22  C   UNL     1      -3.644  10.704  16.662  0.00  0.00    +0.000 A 
ATOM     23  C   UNL     1      -2.548   9.870  16.437  0.00  0.00    +0.000 A 
ATOM     24  C   UNL     1      -1.461   9.837  17.321  0.00  0.00    +0.000 A 
ATOM     25  C   UNL     1      -1.513  10.702  18.424  0.00  0.00    +0.000 A 
ENDBRANCH  16  17
ENDBRANCH  14  16
ENDBRANCH   4  14
TORSDOF 3
ENDMDL
MODEL 5
REMARK VINA RESULT:      -8.2      2.466      6.541
REMARK  Name = 
REMARK  5 active torsions:
REMARK  status: ('A' for Active; 'I' for Inactive)
REMARK    1  A    between atoms: C_1  and  C_2
REMARK    2  A    between atoms: C_4  and  C_5
REMARK    3  A    between atoms: C_5  and  C_7
REMARK    4  A    between atoms: C_7  and  N_8
REMARK    5  A    between atoms: C_17  and  C_18
REMARK                            x       y       z     vdW  Elec       q    Type
REMARK                         _______ _______ _______ _____ _____    ______ ____
ROOT
ATOM      1  C   UNL     1       6.179   5.150  14.820  0.00  0.00    +0.000 C 
ATOM      2  C   UNL     1       5.489   4.598  16.023  0.00  0.00    +0.000 A 
ATOM      3  C   UNL     1       4.590   3.548  16.045  0.00  0.00    +0.000 A 
ATOM      4  C   UNL     1       4.346   3.182  17.391  0.00  0.00    +0.000 A 
ATOM      5  C   UNL     1       5.034   4.104  18.177  0.00  0.00    +0.000 A 
ATOM      6  C   UNL     1       5.048   4.249  19.668  0.00  0.00    +0.000 C 
ATOM      7  N   UNL     1       5.757   4.967  17.342  0.00  0.00    +0.000 N 
ATOM      8  C   UNL     1       6.679   5.984  17.791  0.00  0.00    +0.000 A 
ATOM      9  C   UNL     1       6.854   7.154  17.060  0.00  0.00    +0.000 A 
ATOM     10  C   UNL     1       7.807   8.084  17.484  0.00  0.00    +0.000 A 
ATOM     11  C   UNL     1       8.546   7.825  18.628  0.00  0.00    +0.000 A 
ATOM     12  C   UNL     1       8.291   6.656  19.315  0.00  0.00    +0.000 A 
ATOM     13  N   UNL     1       7.374   5.741  18.932  0.00  0.00    +0.000 NA
ENDROOT
BRANCH   4  14
ATOM     14  C   UNL     1       3.536   2.056  17.879  0.00  0.00    +0.000 C 
ATOM     15  O   UNL     1       4.040   0.962  18.144  0.00  0.00    +0.000 OA
BRANCH  14  16
ATOM     16  C   UNL     1       2.033   2.244  18.017  0.00  0.00    +0.000 C 
BRANCH  16  17
ATOM     17  N   UNL     1       1.682   3.157  19.084  0.00  0.00    +0.000 N 
ATOM     18  C   UNL     1       1.288   2.771  20.336  0.00  0.00    +0.000 A 
ATOM     19  N   UNL     1       1.205   3.794  21.155  0.00  0.00    +0.000 NA
ATOM     20  C   UNL     1       1.530   4.888  20.395  0.00  0.00    +0.000 A 
ATOM     21  C   UNL     1       1.680   6.226  20.786  0.00  0.00    +0.000 A 
ATOM     22  C   UNL     1       2.032   7.175  19.821  0.00  0.00    +0.000 A 
ATOM     23  C   UNL     1       2.158   6.811  18.479  0.00  0.00    +0.000 A 
ATOM     24  C   UNL     1       2.002   5.481  18.065  0.00  0.00    +0.000 A 
ATOM     25  C   UNL     1       1.744   4.531  19.063  0.00  0.00    +0.000 A 
ENDBRANCH  16  17
ENDBRANCH  14  16
ENDBRANCH   4  14
TORSDOF 3
ENDMDL
MODEL 6
REMARK VINA RESULT:      -8.0      1.394      2.517
REMARK  Name = 
REMARK  5 active torsions:
REMARK  status: ('A' for Active; 'I' for Inactive)
REMARK    1  A    between atoms: C_1  and  C_2
REMARK    2  A    between atoms: C_4  and  C_5
REMARK    3  A    between atoms: C_5  and  C_7
REMARK    4  A    between atoms: C_7  and  N_8
REMARK    5  A    between atoms: C_17  and  C_18
REMARK                            x       y       z     vdW  Elec       q    Type
REMARK                         _______ _______ _______ _____ _____    ______ ____
ROOT
ATOM      1  C   UNL     1       2.368   9.904  17.703  0.00  0.00    +0.000 C 
ATOM      2  C   UNL     1       2.491   8.497  18.187  0.00  0.00    +0.000 A 
ATOM      3  C   UNL     1       3.237   7.490  17.603  0.00  0.00    +0.000 A 
ATOM      4  C   UNL     1       3.280   6.382  18.484  0.00  0.00    +0.000 A 
ATOM      5  C   UNL     1       2.455   6.707  19.559  0.00  0.00    +0.000 A 
ATOM      6  C   UNL     1       2.058   5.864  20.733  0.00  0.00    +0.000 C 
ATOM      7  N   UNL     1       1.982   8.016  19.394  0.00  0.00    +0.000 N 
ATOM      8  C   UNL     1       1.190   8.745  20.357  0.00  0.00    +0.000 A 
ATOM      9  C   UNL     1       0.260   9.690  19.939  0.00  0.00    +0.000 A 
ATOM     10  C   UNL     1      -0.436  10.429  20.899  0.00  0.00    +0.000 A 
ATOM     11  C   UNL     1      -0.192  10.195  22.244  0.00  0.00    +0.000 A 
ATOM     12  C   UNL     1       0.724   9.219  22.578  0.00  0.00    +0.000 A 
ATOM     13  N   UNL     1       1.409   8.486  21.672  0.00  0.00    +0.000 NA
ENDROOT
BRANCH   4  14
ATOM     14  C   UNL     1       4.039   5.134  18.316  0.00  0.00    +0.000 C 
ATOM     15  O   UNL     1       4.642   4.611  19.256  0.00  0.00    +0.000 OA
BRANCH  14  16
ATOM     16  C   UNL     1       4.111   4.504  16.933  0.00  0.00    +0.000 C 
BRANCH  16  17
ATOM     17  N   UNL     1       5.256   4.959  16.173  0.00  0.00    +0.000 N 
ATOM     18  C   UNL     1       6.244   5.765  16.668  0.00  0.00    +0.000 A 
ATOM     19  N   UNL     1       7.246   5.875  15.827  0.00  0.00    +0.000 NA
ATOM     20  C   UNL     1       6.879   5.134  14.733  0.00  0.00    +0.000 A 
ATOM     21  C   UNL     1       7.612   4.840  13.575  0.00  0.00    +0.000 A 
ATOM     22  C   UNL     1       7.023   4.042  12.588  0.00  0.00    +0.000 A 
ATOM     23  C   UNL     1       5.701   3.610  12.720  0.00  0.00    +0.000 A 
ATOM     24  C   UNL     1       4.947   3.903  13.864  0.00  0.00    +0.000 A 
ATOM     25  C   UNL     1       5.590   4.621  14.882  0.00  0.00    +0.000 A 
ENDBRANCH  16  17
ENDBRANCH  14  16
ENDBRANCH   4  14
TORSDOF 3
ENDMDL
MODEL 7
REMARK VINA RESULT:      -7.9      2.724      4.718
REMARK  Name = 
REMARK  5 active torsions:
REMARK  status: ('A' for Active; 'I' for Inactive)
REMARK    1  A    between atoms: C_1  and  C_2
REMARK    2  A    between atoms: C_4  and  C_5
REMARK    3  A    between atoms: C_5  and  C_7
REMARK    4  A    between atoms: C_7  and  N_8
REMARK    5  A    between atoms: C_17  and  C_18
REMARK                            x       y       z     vdW  Elec       q    Type
REMARK                         _______ _______ _______ _____ _____    ______ ____
ROOT
ATOM      1  C   UNL     1      -0.201   9.203  22.919  0.00  0.00    +0.000 C 
ATOM      2  C   UNL     1       0.506   9.082  21.610  0.00  0.00    +0.000 A 
ATOM      3  C   UNL     1       1.457   8.137  21.275  0.00  0.00    +0.000 A 
ATOM      4  C   UNL     1       1.708   8.214  19.883  0.00  0.00    +0.000 A 
ATOM      5  C   UNL     1       0.968   9.296  19.413  0.00  0.00    +0.000 A 
ATOM      6  C   UNL     1       0.935   9.891  18.038  0.00  0.00    +0.000 C 
ATOM      7  N   UNL     1       0.209   9.824  20.466  0.00  0.00    +0.000 N 
ATOM      8  C   UNL     1      -0.767  10.882  20.344  0.00  0.00    +0.000 A 
ATOM      9  C   UNL     1      -0.995  11.761  21.396  0.00  0.00    +0.000 A 
ATOM     10  C   UNL     1      -1.997  12.727  21.271  0.00  0.00    +0.000 A 
ATOM     11  C   UNL     1      -2.732  12.793  20.097  0.00  0.00    +0.000 A 
ATOM     12  C   UNL     1      -2.424  11.906  19.086  0.00  0.00    +0.000 A 
ATOM     13  N   UNL     1      -1.458  10.965  19.177  0.00  0.00    +0.000 NA
ENDROOT
BRANCH   4  14
ATOM     14  C   UNL     1       2.570   7.334  19.080  0.00  0.00    +0.000 C 
ATOM     15  O   UNL     1       3.012   7.686  17.984  0.00  0.00    +0.000 OA
BRANCH  14  16
ATOM     16  C   UNL     1       2.883   5.941  19.606  0.00  0.00    +0.000 C 
BRANCH  16  17
ATOM     17  N   UNL     1       3.557   5.115  18.627  0.00  0.00    +0.000 N 
ATOM     18  C   UNL     1       2.920   4.353  17.686  0.00  0.00    +0.000 A 
ATOM     19  N   UNL     1       3.766   3.849  16.817  0.00  0.00    +0.000 NA
ATOM     20  C   UNL     1       5.001   4.278  17.230  0.00  0.00    +0.000 A 
ATOM     21  C   UNL     1       6.251   4.101  16.620  0.00  0.00    +0.000 A 
ATOM     22  C   UNL     1       7.384   4.648  17.231  0.00  0.00    +0.000 A 
ATOM     23  C   UNL     1       7.283   5.293  18.465  0.00  0.00    +0.000 A 
ATOM     24  C   UNL     1       6.046   5.471  19.098  0.00  0.00    +0.000 A 
ATOM     25  C   UNL     1       4.912   4.999  18.421  0.00  0.00    +0.000 A 
ENDBRANCH  16  17
ENDBRANCH  14  16
ENDBRANCH   4  14
TORSDOF 3
ENDMDL
MODEL 8
REMARK VINA RESULT:      -7.8      3.555      5.322
REMARK  Name = 
REMARK  5 active torsions:
REMARK  status: ('A' for Active; 'I' for Inactive)
REMARK    1  A    between atoms: C_1  and  C_2
REMARK    2  A    between atoms: C_4  and  C_5
REMARK    3  A    between atoms: C_5  and  C_7
REMARK    4  A    between atoms: C_7  and  N_8
REMARK    5  A    between atoms: C_17  and  C_18
REMARK                            x       y       z     vdW  Elec       q    Type
REMARK                         _______ _______ _______ _____ _____    ______ ____
ROOT
ATOM      1  C   UNL     1       0.537   7.817  21.880  0.00  0.00    +0.000 C 
ATOM      2  C   UNL     1       1.350   7.954  20.636  0.00  0.00    +0.000 A 
ATOM      3  C   UNL     1       2.276   7.046  20.156  0.00  0.00    +0.000 A 
ATOM      4  C   UNL     1       2.654   7.428  18.846  0.00  0.00    +0.000 A 
ATOM      5  C   UNL     1       2.018   8.641  18.594  0.00  0.00    +0.000 A 
ATOM      6  C   UNL     1       2.139   9.542  17.403  0.00  0.00    +0.000 C 
ATOM      7  N   UNL     1       1.197   8.962  19.683  0.00  0.00    +0.000 N 
ATOM      8  C   UNL     1       0.294  10.088  19.746  0.00  0.00    +0.000 A 
ATOM      9  C   UNL     1       0.020  10.710  20.958  0.00  0.00    +0.000 A 
ATOM     10  C   UNL     1      -0.914  11.749  20.993  0.00  0.00    +0.000 A 
ATOM     11  C   UNL     1      -1.536  12.142  19.818  0.00  0.00    +0.000 A 
ATOM     12  C   UNL     1      -1.187  11.496  18.650  0.00  0.00    +0.000 A 
ATOM     13  N   UNL     1      -0.285  10.492  18.585  0.00  0.00    +0.000 NA
ENDROOT
BRANCH   4  14
ATOM     14  C   UNL     1       3.537   6.700  17.921  0.00  0.00    +0.000 C 
ATOM     15  O   UNL     1       4.571   7.206  17.479  0.00  0.00    +0.000 OA
BRANCH  14  16
ATOM     16  C   UNL     1       3.132   5.303  17.475  0.00  0.00    +0.000 C 
BRANCH  16  17
ATOM     17  N   UNL     1       3.483   4.285  18.442  0.00  0.00    +0.000 N 
ATOM     18  C   UNL     1       4.750   3.803  18.633  0.00  0.00    +0.000 A 
ATOM     19  N   UNL     1       4.817   3.024  19.688  0.00  0.00    +0.000 NA
ATOM     20  C   UNL     1       3.538   2.977  20.181  0.00  0.00    +0.000 A 
ATOM     21  C   UNL     1       3.058   2.357  21.343  0.00  0.00    +0.000 A 
ATOM     22  C   UNL     1       1.697   2.459  21.648  0.00  0.00    +0.000 A 
ATOM     23  C   UNL     1       0.818   3.100  20.773  0.00  0.00    +0.000 A 
ATOM     24  C   UNL     1       1.275   3.717  19.600  0.00  0.00    +0.000 A 
ATOM     25  C   UNL     1       2.657   3.686  19.363  0.00  0.00    +0.000 A 
ENDBRANCH  16  17
ENDBRANCH  14  16
ENDBRANCH   4  14
TORSDOF 3
ENDMDL
MODEL 9
REMARK VINA RESULT:      -7.8      2.239      3.928
REMARK  Name = 
REMARK  5 active torsions:
REMARK  status: ('A' for Active; 'I' for Inactive)
REMARK    1  A    between atoms: C_1  and  C_2
REMARK    2  A    between atoms: C_4  and  C_5
REMARK    3  A    between atoms: C_5  and  C_7
REMARK    4  A    between atoms: C_7  and  N_8
REMARK    5  A    between atoms: C_17  and  C_18
REMARK                            x       y       z     vdW  Elec       q    Type
REMARK                         _______ _______ _______ _____ _____    ______ ____
ROOT
ATOM      1  C   UNL     1       2.273   9.504  17.801  0.00  0.00    +0.000 C 
ATOM      2  C   UNL     1       2.217   8.124  18.367  0.00  0.00    +0.000 A 
ATOM      3  C   UNL     1       2.800   6.991  17.830  0.00  0.00    +0.000 A 
ATOM      4  C   UNL     1       2.718   5.941  18.776  0.00  0.00    +0.000 A 
ATOM      5  C   UNL     1       1.978   6.438  19.847  0.00  0.00    +0.000 A 
ATOM      6  C   UNL     1       1.504   5.727  21.078  0.00  0.00    +0.000 C 
ATOM      7  N   UNL     1       1.683   7.788  19.612  0.00  0.00    +0.000 N 
ATOM      8  C   UNL     1       1.026   8.674  20.545  0.00  0.00    +0.000 A 
ATOM      9  C   UNL     1       0.222   9.712  20.090  0.00  0.00    +0.000 A 
ATOM     10  C   UNL     1      -0.339  10.594  21.018  0.00  0.00    +0.000 A 
ATOM     11  C   UNL     1      -0.089  10.407  22.369  0.00  0.00    +0.000 A 
ATOM     12  C   UNL     1       0.694   9.334  22.743  0.00  0.00    +0.000 A 
ATOM     13  N   UNL     1       1.246   8.463  21.869  0.00  0.00    +0.000 NA
ENDROOT
BRANCH   4  14
ATOM     14  C   UNL     1       3.295   4.593  18.669  0.00  0.00    +0.000 C 
ATOM     15  O   UNL     1       3.335   3.826  19.634  0.00  0.00    +0.000 OA
BRANCH  14  16
ATOM     16  C   UNL     1       3.893   4.159  17.339  0.00  0.00    +0.000 C 
BRANCH  16  17
ATOM     17  N   UNL     1       4.994   5.002  16.922  0.00  0.00    +0.000 N 
ATOM     18  C   UNL     1       5.092   5.595  15.692  0.00  0.00    +0.000 A 
ATOM     19  N   UNL     1       6.093   6.444  15.644  0.00  0.00    +0.000 NA
ATOM     20  C   UNL     1       6.681   6.376  16.880  0.00  0.00    +0.000 A 
ATOM     21  C   UNL     1       7.741   7.131  17.401  0.00  0.00    +0.000 A 
ATOM     22  C   UNL     1       8.165   6.886  18.711  0.00  0.00    +0.000 A 
ATOM     23  C   UNL     1       7.595   5.855  19.460  0.00  0.00    +0.000 A 
ATOM     24  C   UNL     1       6.543   5.080  18.955  0.00  0.00    +0.000 A 
ATOM     25  C   UNL     1       6.070   5.407  17.677  0.00  0.00    +0.000 A 
ENDBRANCH  16  17
ENDBRANCH  14  16
ENDBRANCH   4  14
TORSDOF 3
ENDMDL
