MODEL 1
REMARK VINA RESULT:      -6.3      0.000      0.000
REMARK  Name = 
REMARK  8 active torsions:
REMARK  status: ('A' for Active; 'I' for Inactive)
REMARK    1  A    between atoms: C_1  and  C_2
REMARK    2  A    between atoms: C_2  and  C_3
REMARK    3  A    between atoms: C_3  and  C_4
REMARK    4  A    between atoms: C_4  and  C_5
REMARK    5  A    between atoms: C_5  and  S_6
REMARK    6  A    between atoms: C_5  and  C_13
REMARK    7  A    between atoms: S_6  and  C_7
REMARK    8  A    between atoms: C_13  and  O_15
REMARK                            x       y       z     vdW  Elec       q    Type
REMARK                         _______ _______ _______ _____ _____    ______ ____
ROOT
ATOM      1  C   UNL     1       6.272   4.412  16.406  0.00  0.00    +0.000 C 
ENDROOT
BRANCH   1   2
ATOM      2  C   UNL     1       6.777   4.593  14.973  0.00  0.00    +0.000 C 
ATOM      3  O   UNL     1       7.698   5.332  14.662  0.00  0.00    +0.000 OA
BRANCH   2   4
ATOM      4  O   UNL     1       6.195   3.773  14.064  0.00  0.00    +0.000 OA
ATOM      5  H   UNL     1       5.450   4.222  13.614  0.00  0.00    +0.000 HD
ENDBRANCH   2   4
ENDBRANCH   1   2
BRANCH   1   6
ATOM      6  C   UNL     1       7.410   4.547  17.435  0.00  0.00    +0.000 C 
BRANCH   6   7
ATOM      7  C   UNL     1       7.062   5.453  18.620  0.00  0.00    +0.000 C 
BRANCH   7   9
ATOM      8  C   UNL     1       7.730   7.661  17.638  0.00  0.00    +0.000 C 
ATOM      9  C   UNL     1       8.009   6.646  18.738  0.00  0.00    +0.000 C 
ENDBRANCH   7   9
ENDBRANCH   6   7
ENDBRANCH   1   6
BRANCH   1  10
ATOM     10  S   UNL     1       4.754   5.432  16.746  0.00  0.00    +0.000 S 
BRANCH  10  11
ATOM     11  C   UNL     1       3.611   4.240  17.420  0.00  0.00    +0.000 A 
ATOM     12  C   UNL     1       4.066   2.938  17.667  0.00  0.00    +0.000 A 
ATOM     13  C   UNL     1       3.190   1.961  18.142  0.00  0.00    +0.000 A 
ATOM     14  C   UNL     1       1.858   2.282  18.391  0.00  0.00    +0.000 A 
ATOM     15  C   UNL     1       1.413   3.588  18.205  0.00  0.00    +0.000 A 
ATOM     16  C   UNL     1       2.293   4.568  17.739  0.00  0.00    +0.000 A 
ENDBRANCH  10  11
ENDBRANCH   1  10
TORSDOF 7
ENDMDL
MODEL 2
REMARK VINA RESULT:      -6.0      2.809      5.841
REMARK  Name = 
REMARK  8 active torsions:
REMARK  status: ('A' for Active; 'I' for Inactive)
REMARK    1  A    between atoms: C_1  and  C_2
REMARK    2  A    between atoms: C_2  and  C_3
REMARK    3  A    between atoms: C_3  and  C_4
REMARK    4  A    between atoms: C_4  and  C_5
REMARK    5  A    between atoms: C_5  and  S_6
REMARK    6  A    between atoms: C_5  and  C_13
REMARK    7  A    between atoms: S_6  and  C_7
REMARK    8  A    between atoms: C_13  and  O_15
REMARK                            x       y       z     vdW  Elec       q    Type
REMARK                         _______ _______ _______ _____ _____    ______ ____
ROOT
ATOM      1  C   UNL     1       3.644   3.219  18.483  0.00  0.00    +0.000 C 
ENDROOT
BRANCH   1   2
ATOM      2  C   UNL     1       4.290   2.023  19.186  0.00  0.00    +0.000 C 
ATOM      3  O   UNL     1       4.723   2.054  20.328  0.00  0.00    +0.000 OA
BRANCH   2   4
ATOM      4  O   UNL     1       4.248   0.866  18.480  0.00  0.00    +0.000 OA
ATOM      5  H   UNL     1       5.149   0.511  18.336  0.00  0.00    +0.000 HD
ENDBRANCH   2   4
ENDBRANCH   1   2
BRANCH   1   6
ATOM      6  C   UNL     1       2.213   2.899  18.011  0.00  0.00    +0.000 C 
BRANCH   6   7
ATOM      7  C   UNL     1       1.363   2.188  19.069  0.00  0.00    +0.000 C 
BRANCH   7   9
ATOM      8  C   UNL     1       1.372   2.749  21.513  0.00  0.00    +0.000 C 
ATOM      9  C   UNL     1       0.846   3.147  20.140  0.00  0.00    +0.000 C 
ENDBRANCH   7   9
ENDBRANCH   6   7
ENDBRANCH   1   6
BRANCH   1  10
ATOM     10  S   UNL     1       3.837   4.792  19.457  0.00  0.00    +0.000 S 
BRANCH  10  11
ATOM     11  C   UNL     1       5.254   5.564  18.696  0.00  0.00    +0.000 A 
ATOM     12  C   UNL     1       6.514   5.378  19.277  0.00  0.00    +0.000 A 
ATOM     13  C   UNL     1       7.639   6.009  18.745  0.00  0.00    +0.000 A 
ATOM     14  C   UNL     1       7.516   6.816  17.616  0.00  0.00    +0.000 A 
ATOM     15  C   UNL     1       6.276   6.958  16.998  0.00  0.00    +0.000 A 
ATOM     16  C   UNL     1       5.152   6.317  17.526  0.00  0.00    +0.000 A 
ENDBRANCH  10  11
ENDBRANCH   1  10
TORSDOF 7
ENDMDL
MODEL 3
REMARK VINA RESULT:      -6.0      2.149      3.394
REMARK  Name = 
REMARK  8 active torsions:
REMARK  status: ('A' for Active; 'I' for Inactive)
REMARK    1  A    between atoms: C_1  and  C_2
REMARK    2  A    between atoms: C_2  and  C_3
REMARK    3  A    between atoms: C_3  and  C_4
REMARK    4  A    between atoms: C_4  and  C_5
REMARK    5  A    between atoms: C_5  and  S_6
REMARK    6  A    between atoms: C_5  and  C_13
REMARK    7  A    between atoms: S_6  and  C_7
REMARK    8  A    between atoms: C_13  and  O_15
REMARK                            x       y       z     vdW  Elec       q    Type
REMARK                         _______ _______ _______ _____ _____    ______ ____
ROOT
ATOM      1  C   UNL     1       6.550   6.207  17.533  0.00  0.00    +0.000 C 
ENDROOT
BRANCH   1   2
ATOM      2  C   UNL     1       7.672   7.189  17.882  0.00  0.00    +0.000 C 
ATOM      3  O   UNL     1       7.892   8.221  17.266  0.00  0.00    +0.000 OA
BRANCH   2   4
ATOM      4  O   UNL     1       8.351   6.888  19.016  0.00  0.00    +0.000 OA
ATOM      5  H   UNL     1       7.912   7.276  19.801  0.00  0.00    +0.000 HD
ENDBRANCH   2   4
ENDBRANCH   1   2
BRANCH   1   6
ATOM      6  C   UNL     1       6.913   5.335  16.317  0.00  0.00    +0.000 C 
BRANCH   6   7
ATOM      7  C   UNL     1       5.844   5.340  15.219  0.00  0.00    +0.000 C 
BRANCH   7   9
ATOM      8  C   UNL     1       6.145   3.782  13.277  0.00  0.00    +0.000 C 
ATOM      9  C   UNL     1       5.563   3.939  14.676  0.00  0.00    +0.000 C 
ENDBRANCH   7   9
ENDBRANCH   6   7
ENDBRANCH   1   6
BRANCH   1  10
ATOM     10  S   UNL     1       5.937   5.288  19.030  0.00  0.00    +0.000 S 
BRANCH  10  11
ATOM     11  C   UNL     1       4.358   4.655  18.492  0.00  0.00    +0.000 A 
ATOM     12  C   UNL     1       4.250   3.294  18.180  0.00  0.00    +0.000 A 
ATOM     13  C   UNL     1       3.047   2.771  17.704  0.00  0.00    +0.000 A 
ATOM     14  C   UNL     1       1.938   3.600  17.553  0.00  0.00    +0.000 A 
ATOM     15  C   UNL     1       2.022   4.942  17.917  0.00  0.00    +0.000 A 
ATOM     16  C   UNL     1       3.223   5.462  18.403  0.00  0.00    +0.000 A 
ENDBRANCH  10  11
ENDBRANCH   1  10
TORSDOF 7
ENDMDL
MODEL 4
REMARK VINA RESULT:      -5.9      2.161      3.634
REMARK  Name = 
REMARK  8 active torsions:
REMARK  status: ('A' for Active; 'I' for Inactive)
REMARK    1  A    between atoms: C_1  and  C_2
REMARK    2  A    between atoms: C_2  and  C_3
REMARK    3  A    between atoms: C_3  and  C_4
REMARK    4  A    between atoms: C_4  and  C_5
REMARK    5  A    between atoms: C_5  and  S_6
REMARK    6  A    between atoms: C_5  and  C_13
REMARK    7  A    between atoms: S_6  and  C_7
REMARK    8  A    between atoms: C_13  and  O_15
REMARK                            x       y       z     vdW  Elec       q    Type
REMARK                         _______ _______ _______ _____ _____    ______ ____
ROOT
ATOM      1  C   UNL     1       6.614   6.103  17.280  0.00  0.00    +0.000 C 
ENDROOT
BRANCH   1   2
ATOM      2  C   UNL     1       7.633   7.129  17.783  0.00  0.00    +0.000 C 
ATOM      3  O   UNL     1       7.818   8.219  17.265  0.00  0.00    +0.000 OA
BRANCH   2   4
ATOM      4  O   UNL     1       8.253   6.785  18.939  0.00  0.00    +0.000 OA
ATOM      5  H   UNL     1       7.722   7.058  19.716  0.00  0.00    +0.000 HD
ENDBRANCH   2   4
ENDBRANCH   1   2
BRANCH   1   6
ATOM      6  C   UNL     1       7.070   5.445  15.964  0.00  0.00    +0.000 C 
BRANCH   6   7
ATOM      7  C   UNL     1       5.932   5.225  14.962  0.00  0.00    +0.000 C 
BRANCH   7   9
ATOM      8  C   UNL     1       6.072   3.662  13.007  0.00  0.00    +0.000 C 
ATOM      9  C   UNL     1       5.831   3.770  14.506  0.00  0.00    +0.000 C 
ENDBRANCH   7   9
ENDBRANCH   6   7
ENDBRANCH   1   6
BRANCH   1  10
ATOM     10  S   UNL     1       6.077   4.933  18.623  0.00  0.00    +0.000 S 
BRANCH  10  11
ATOM     11  C   UNL     1       4.380   4.586  18.198  0.00  0.00    +0.000 A 
ATOM     12  C   UNL     1       3.436   5.614  18.310  0.00  0.00    +0.000 A 
ATOM     13  C   UNL     1       2.089   5.370  18.039  0.00  0.00    +0.000 A 
ATOM     14  C   UNL     1       1.678   4.101  17.638  0.00  0.00    +0.000 A 
ATOM     15  C   UNL     1       2.620   3.089  17.468  0.00  0.00    +0.000 A 
ATOM     16  C   UNL     1       3.970   3.338  17.729  0.00  0.00    +0.000 A 
ENDBRANCH  10  11
ENDBRANCH   1  10
TORSDOF 7
ENDMDL
MODEL 5
REMARK VINA RESULT:      -5.9      2.642      3.500
REMARK  Name = 
REMARK  8 active torsions:
REMARK  status: ('A' for Active; 'I' for Inactive)
REMARK    1  A    between atoms: C_1  and  C_2
REMARK    2  A    between atoms: C_2  and  C_3
REMARK    3  A    between atoms: C_3  and  C_4
REMARK    4  A    between atoms: C_4  and  C_5
REMARK    5  A    between atoms: C_5  and  S_6
REMARK    6  A    between atoms: C_5  and  C_13
REMARK    7  A    between atoms: S_6  and  C_7
REMARK    8  A    between atoms: C_13  and  O_15
REMARK                            x       y       z     vdW  Elec       q    Type
REMARK                         _______ _______ _______ _____ _____    ______ ____
ROOT
ATOM      1  C   UNL     1       5.165   5.069  17.629  0.00  0.00    +0.000 C 
ENDROOT
BRANCH   1   2
ATOM      2  C   UNL     1       5.735   4.544  18.950  0.00  0.00    +0.000 C 
ATOM      3  O   UNL     1       6.330   5.238  19.761  0.00  0.00    +0.000 OA
BRANCH   2   4
ATOM      4  O   UNL     1       5.430   3.251  19.219  0.00  0.00    +0.000 OA
ATOM      5  H   UNL     1       6.176   2.802  19.668  0.00  0.00    +0.000 HD
ENDBRANCH   2   4
ENDBRANCH   1   2
BRANCH   1   6
ATOM      6  C   UNL     1       5.057   3.955  16.572  0.00  0.00    +0.000 C 
BRANCH   6   7
ATOM      7  C   UNL     1       5.315   4.440  15.141  0.00  0.00    +0.000 C 
BRANCH   7   9
ATOM      8  C   UNL     1       7.163   4.694  13.466  0.00  0.00    +0.000 C 
ATOM      9  C   UNL     1       6.766   4.869  14.926  0.00  0.00    +0.000 C 
ENDBRANCH   7   9
ENDBRANCH   6   7
ENDBRANCH   1   6
BRANCH   1  10
ATOM     10  S   UNL     1       3.630   6.088  17.886  0.00  0.00    +0.000 S 
BRANCH  10  11
ATOM     11  C   UNL     1       2.509   4.937  18.660  0.00  0.00    +0.000 A 
ATOM     12  C   UNL     1       2.228   5.086  20.024  0.00  0.00    +0.000 A 
ATOM     13  C   UNL     1       1.400   4.174  20.679  0.00  0.00    +0.000 A 
ATOM     14  C   UNL     1       0.831   3.117  19.973  0.00  0.00    +0.000 A 
ATOM     15  C   UNL     1       1.059   2.997  18.604  0.00  0.00    +0.000 A 
ATOM     16  C   UNL     1       1.880   3.916  17.947  0.00  0.00    +0.000 A 
ENDBRANCH  10  11
ENDBRANCH   1  10
TORSDOF 7
ENDMDL
MODEL 6
REMARK VINA RESULT:      -5.9      2.175      3.073
REMARK  Name = 
REMARK  8 active torsions:
REMARK  status: ('A' for Active; 'I' for Inactive)
REMARK    1  A    between atoms: C_1  and  C_2
REMARK    2  A    between atoms: C_2  and  C_3
REMARK    3  A    between atoms: C_3  and  C_4
REMARK    4  A    between atoms: C_4  and  C_5
REMARK    5  A    between atoms: C_5  and  S_6
REMARK    6  A    between atoms: C_5  and  C_13
REMARK    7  A    between atoms: S_6  and  C_7
REMARK    8  A    between atoms: C_13  and  O_15
REMARK                            x       y       z     vdW  Elec       q    Type
REMARK                         _______ _______ _______ _____ _____    ______ ____
ROOT
ATOM      1  C   UNL     1       6.660   6.395  17.695  0.00  0.00    +0.000 C 
ENDROOT
BRANCH   1   2
ATOM      2  C   UNL     1       7.211   5.334  18.650  0.00  0.00    +0.000 C 
ATOM      3  O   UNL     1       7.070   5.367  19.863  0.00  0.00    +0.000 OA
BRANCH   2   4
ATOM      4  O   UNL     1       7.784   4.269  18.037  0.00  0.00    +0.000 OA
ATOM      5  H   UNL     1       7.102   3.665  17.676  0.00  0.00    +0.000 HD
ENDBRANCH   2   4
ENDBRANCH   1   2
BRANCH   1   6
ATOM      6  C   UNL     1       7.738   7.420  17.297  0.00  0.00    +0.000 C 
BRANCH   6   7
ATOM      7  C   UNL     1       8.346   8.165  18.490  0.00  0.00    +0.000 C 
BRANCH   7   9
ATOM      8  C   UNL     1       9.331  10.313  19.328  0.00  0.00    +0.000 C 
ATOM      9  C   UNL     1       8.532   9.656  18.211  0.00  0.00    +0.000 C 
ENDBRANCH   7   9
ENDBRANCH   6   7
ENDBRANCH   1   6
BRANCH   1  10
ATOM     10  S   UNL     1       5.706   5.641  16.287  0.00  0.00    +0.000 S 
BRANCH  10  11
ATOM     11  C   UNL     1       4.189   5.116  17.066  0.00  0.00    +0.000 A 
ATOM     12  C   UNL     1       3.456   6.050  17.808  0.00  0.00    +0.000 A 
ATOM     13  C   UNL     1       2.294   5.667  18.478  0.00  0.00    +0.000 A 
ATOM     14  C   UNL     1       1.845   4.351  18.396  0.00  0.00    +0.000 A 
ATOM     15  C   UNL     1       2.536   3.431  17.612  0.00  0.00    +0.000 A 
ATOM     16  C   UNL     1       3.694   3.818  16.933  0.00  0.00    +0.000 A 
ENDBRANCH  10  11
ENDBRANCH   1  10
TORSDOF 7
ENDMDL
MODEL 7
REMARK VINA RESULT:      -5.9      1.794      3.497
REMARK  Name = 
REMARK  8 active torsions:
REMARK  status: ('A' for Active; 'I' for Inactive)
REMARK    1  A    between atoms: C_1  and  C_2
REMARK    2  A    between atoms: C_2  and  C_3
REMARK    3  A    between atoms: C_3  and  C_4
REMARK    4  A    between atoms: C_4  and  C_5
REMARK    5  A    between atoms: C_5  and  S_6
REMARK    6  A    between atoms: C_5  and  C_13
REMARK    7  A    between atoms: S_6  and  C_7
REMARK    8  A    between atoms: C_13  and  O_15
REMARK                            x       y       z     vdW  Elec       q    Type
REMARK                         _______ _______ _______ _____ _____    ______ ____
ROOT
ATOM      1  C   UNL     1       5.744   5.441  16.131  0.00  0.00    +0.000 C 
ENDROOT
BRANCH   1   2
ATOM      2  C   UNL     1       7.134   5.598  16.751  0.00  0.00    +0.000 C 
ATOM      3  O   UNL     1       7.763   4.682  17.259  0.00  0.00    +0.000 OA
BRANCH   2   4
ATOM      4  O   UNL     1       7.685   6.827  16.594  0.00  0.00    +0.000 OA
ATOM      5  H   UNL     1       8.656   6.794  16.720  0.00  0.00    +0.000 HD
ENDBRANCH   2   4
ENDBRANCH   1   2
BRANCH   1   6
ATOM      6  C   UNL     1       5.585   4.084  15.420  0.00  0.00    +0.000 C 
BRANCH   6   7
ATOM      7  C   UNL     1       6.257   4.031  14.044  0.00  0.00    +0.000 C 
BRANCH   7   9
ATOM      8  C   UNL     1       5.873   2.821  11.881  0.00  0.00    +0.000 C 
ATOM      9  C   UNL     1       5.260   3.751  12.920  0.00  0.00    +0.000 C 
ENDBRANCH   7   9
ENDBRANCH   6   7
ENDBRANCH   1   6
BRANCH   1  10
ATOM     10  S   UNL     1       4.391   5.886  17.327  0.00  0.00    +0.000 S 
BRANCH  10  11
ATOM     11  C   UNL     1       3.830   4.296  17.909  0.00  0.00    +0.000 A 
ATOM     12  C   UNL     1       4.526   3.681  18.957  0.00  0.00    +0.000 A 
ATOM     13  C   UNL     1       4.154   2.413  19.405  0.00  0.00    +0.000 A 
ATOM     14  C   UNL     1       3.073   1.758  18.821  0.00  0.00    +0.000 A 
ATOM     15  C   UNL     1       2.340   2.388  17.819  0.00  0.00    +0.000 A 
ATOM     16  C   UNL     1       2.707   3.662  17.378  0.00  0.00    +0.000 A 
ENDBRANCH  10  11
ENDBRANCH   1  10
TORSDOF 7
ENDMDL
MODEL 8
REMARK VINA RESULT:      -5.9      2.436      2.823
REMARK  Name = 
REMARK  8 active torsions:
REMARK  status: ('A' for Active; 'I' for Inactive)
REMARK    1  A    between atoms: C_1  and  C_2
REMARK    2  A    between atoms: C_2  and  C_3
REMARK    3  A    between atoms: C_3  and  C_4
REMARK    4  A    between atoms: C_4  and  C_5
REMARK    5  A    between atoms: C_5  and  S_6
REMARK    6  A    between atoms: C_5  and  C_13
REMARK    7  A    between atoms: S_6  and  C_7
REMARK    8  A    between atoms: C_13  and  O_15
REMARK                            x       y       z     vdW  Elec       q    Type
REMARK                         _______ _______ _______ _____ _____    ______ ____
ROOT
ATOM      1  C   UNL     1       4.804   5.773  18.170  0.00  0.00    +0.000 C 
ENDROOT
BRANCH   1   2
ATOM      2  C   UNL     1       5.331   4.338  18.262  0.00  0.00    +0.000 C 
ATOM      3  O   UNL     1       5.854   3.865  19.260  0.00  0.00    +0.000 OA
BRANCH   2   4
ATOM      4  O   UNL     1       5.070   3.572  17.174  0.00  0.00    +0.000 OA
ATOM      5  H   UNL     1       5.545   2.717  17.226  0.00  0.00    +0.000 HD
ENDBRANCH   2   4
ENDBRANCH   1   2
BRANCH   1   6
ATOM      6  C   UNL     1       5.666   6.638  17.231  0.00  0.00    +0.000 C 
BRANCH   6   7
ATOM      7  C   UNL     1       7.156   6.285  17.268  0.00  0.00    +0.000 C 
BRANCH   7   9
ATOM      8  C   UNL     1       8.020   8.587  17.757  0.00  0.00    +0.000 C 
ATOM      9  C   UNL     1       7.935   7.152  18.257  0.00  0.00    +0.000 C 
ENDBRANCH   7   9
ENDBRANCH   6   7
ENDBRANCH   1   6
BRANCH   1  10
ATOM     10  S   UNL     1       2.971   5.825  17.858  0.00  0.00    +0.000 S 
BRANCH  10  11
ATOM     11  C   UNL     1       2.324   4.691  19.073  0.00  0.00    +0.000 A 
ATOM     12  C   UNL     1       1.482   3.657  18.646  0.00  0.00    +0.000 A 
ATOM     13  C   UNL     1       0.911   2.782  19.572  0.00  0.00    +0.000 A 
ATOM     14  C   UNL     1       1.192   2.923  20.928  0.00  0.00    +0.000 A 
ATOM     15  C   UNL     1       2.075   3.913  21.354  0.00  0.00    +0.000 A 
ATOM     16  C   UNL     1       2.654   4.781  20.426  0.00  0.00    +0.000 A 
ENDBRANCH  10  11
ENDBRANCH   1  10
TORSDOF 7
ENDMDL
MODEL 9
REMARK VINA RESULT:      -5.8      2.142      2.840
REMARK  Name = 
REMARK  8 active torsions:
REMARK  status: ('A' for Active; 'I' for Inactive)
REMARK    1  A    between atoms: C_1  and  C_2
REMARK    2  A    between atoms: C_2  and  C_3
REMARK    3  A    between atoms: C_3  and  C_4
REMARK    4  A    between atoms: C_4  and  C_5
REMARK    5  A    between atoms: C_5  and  S_6
REMARK    6  A    between atoms: C_5  and  C_13
REMARK    7  A    between atoms: S_6  and  C_7
REMARK    8  A    between atoms: C_13  and  O_15
REMARK                            x       y       z     vdW  Elec       q    Type
REMARK                         _______ _______ _______ _____ _____    ______ ____
ROOT
ATOM      1  C   UNL     1       5.665   5.076  17.033  0.00  0.00    +0.000 C 
ENDROOT
BRANCH   1   2
ATOM      2  C   UNL     1       7.066   4.991  16.421  0.00  0.00    +0.000 C 
ATOM      3  O   UNL     1       7.441   5.667  15.476  0.00  0.00    +0.000 OA
BRANCH   2   4
ATOM      4  O   UNL     1       7.922   4.176  17.086  0.00  0.00    +0.000 OA
ATOM      5  H   UNL     1       8.795   4.605  17.201  0.00  0.00    +0.000 HD
ENDBRANCH   2   4
ENDBRANCH   1   2
BRANCH   1   6
ATOM      6  C   UNL     1       4.902   6.319  16.539  0.00  0.00    +0.000 C 
BRANCH   6   7
ATOM      7  C   UNL     1       4.424   7.235  17.670  0.00  0.00    +0.000 C 
BRANCH   7   9
ATOM      8  C   UNL     1       2.304   8.571  17.759  0.00  0.00    +0.000 C 
ATOM      9  C   UNL     1       2.909   7.178  17.865  0.00  0.00    +0.000 C 
ENDBRANCH   7   9
ENDBRANCH   6   7
ENDBRANCH   1   6
BRANCH   1  10
ATOM     10  S   UNL     1       4.748   3.463  16.905  0.00  0.00    +0.000 S 
BRANCH  10  11
ATOM     11  C   UNL     1       3.430   3.656  18.092  0.00  0.00    +0.000 A 
ATOM     12  C   UNL     1       3.758   3.992  19.411  0.00  0.00    +0.000 A 
ATOM     13  C   UNL     1       2.761   4.099  20.382  0.00  0.00    +0.000 A 
ATOM     14  C   UNL     1       1.428   3.888  20.038  0.00  0.00    +0.000 A 
ATOM     15  C   UNL     1       1.090   3.611  18.716  0.00  0.00    +0.000 A 
ATOM     16  C   UNL     1       2.087   3.514  17.743  0.00  0.00    +0.000 A 
ENDBRANCH  10  11
ENDBRANCH   1  10
TORSDOF 7
ENDMDL
