MODEL 1
REMARK VINA RESULT:      -7.2      0.000      0.000
REMARK  Name = 
REMARK  14 active torsions:
REMARK  status: ('A' for Active; 'I' for Inactive)
REMARK    1  A    between atoms: C_1  and  C_2
REMARK    2  A    between atoms: C_2  and  O_3
REMARK    3  A    between atoms: O_3  and  C_4
REMARK    4  A    between atoms: C_4  and  C_6
REMARK    5  A    between atoms: C_7  and  C_8
REMARK    6  A    between atoms: C_17  and  S_18
REMARK    7  A    between atoms: S_18  and  C_19
REMARK    8  A    between atoms: C_19  and  C_20
REMARK    9  A    between atoms: C_19  and  C_21
REMARK   10  A    between atoms: N_23  and  C_24
REMARK   11  A    between atoms: C_24  and  C_25
REMARK   12  A    between atoms: C_25  and  C_26
REMARK   13  A    between atoms: C_29  and  O_30
REMARK   14  A    between atoms: O_30  and  C_31
REMARK                            x       y       z     vdW  Elec       q    Type
REMARK                         _______ _______ _______ _____ _____    ______ ____
ROOT
ATOM      1  C   UNL     1       0.903   9.498  20.129  0.00  0.00    +0.000 A 
ATOM      2  C   UNL     1       0.643   9.966  21.473  0.00  0.00    +0.000 A 
ATOM      3  C   UNL     1       1.221   9.054  22.338  0.00  0.00    +0.000 A 
ATOM      4  N   UNL     1       1.784   8.057  21.594  0.00  0.00    +0.000 N 
ATOM      5  C   UNL     1       1.610   8.316  20.259  0.00  0.00    +0.000 A 
ATOM      6  H   UNL     1       2.253   7.241  21.965  0.00  0.00    +0.000 HD
ENDROOT
BRANCH   2   7
ATOM      7  C   UNL     1      -0.148  11.098  21.955  0.00  0.00    +0.000 A 
ATOM      8  C   UNL     1      -1.269  10.898  22.775  0.00  0.00    +0.000 A 
ATOM      9  C   UNL     1      -2.018  11.978  23.249  0.00  0.00    +0.000 A 
ATOM     10  C   UNL     1      -1.625  13.273  22.937  0.00  0.00    +0.000 A 
ATOM     11 CL   UNL     1      -2.509  14.605  23.566  0.00  0.00    +0.000 Cl
ATOM     12  C   UNL     1      -0.510  13.496  22.134  0.00  0.00    +0.000 A 
ATOM     13  C   UNL     1       0.219  12.411  21.635  0.00  0.00    +0.000 A 
ENDBRANCH   2   7
BRANCH   1  14
ATOM     14  C   UNL     1       0.437  10.146  18.904  0.00  0.00    +0.000 C 
ATOM     15  O   UNL     1      -0.736  10.226  18.579  0.00  0.00    +0.000 OA
BRANCH  14  16
ATOM     16  O   UNL     1       1.478  10.494  18.090  0.00  0.00    +0.000 OA
BRANCH  16  18
ATOM     17  C   UNL     1       1.218  12.901  18.263  0.00  0.00    +0.000 C 
ATOM     18  C   UNL     1       2.140  11.715  18.443  0.00  0.00    +0.000 C 
ENDBRANCH  16  18
ENDBRANCH  14  16
ENDBRANCH   1  14
BRANCH   5  19
ATOM     19  S   UNL     1       2.257   7.122  19.183  0.00  0.00    +0.000 S 
BRANCH  19  20
ATOM     20  C   UNL     1       2.295   5.588  20.196  0.00  0.00    +0.000 C 
ATOM     21  C   UNL     1       0.909   4.958  20.318  0.00  0.00    +0.000 C 
BRANCH  20  22
ATOM     22  C   UNL     1       3.254   4.555  19.574  0.00  0.00    +0.000 C 
ATOM     23  O   UNL     1       4.123   3.980  20.232  0.00  0.00    +0.000 OA
ATOM     24  N   UNL     1       3.149   4.374  18.209  0.00  0.00    +0.000 N 
ATOM     25  H   UNL     1       2.382   4.828  17.725  0.00  0.00    +0.000 HD
BRANCH  24  26
ATOM     26  C   UNL     1       4.000   3.425  17.525  0.00  0.00    +0.000 C 
BRANCH  26  27
ATOM     27  C   UNL     1       4.885   4.066  16.456  0.00  0.00    +0.000 C 
BRANCH  27  28
ATOM     28  C   UNL     1       5.828   5.075  17.067  0.00  0.00    +0.000 A 
ATOM     29  C   UNL     1       5.807   6.418  16.670  0.00  0.00    +0.000 A 
ATOM     30  C   UNL     1       6.731   7.325  17.197  0.00  0.00    +0.000 A 
ATOM     31  C   UNL     1       7.677   6.909  18.134  0.00  0.00    +0.000 A 
ATOM     32  C   UNL     1       7.713   5.572  18.526  0.00  0.00    +0.000 A 
ATOM     33  C   UNL     1       6.791   4.661  17.997  0.00  0.00    +0.000 A 
BRANCH  31  34
ATOM     34  O   UNL     1       8.540   7.880  18.564  0.00  0.00    +0.000 OA
ATOM     35  C   UNL     1       8.311   9.181  18.034  0.00  0.00    +0.000 C 
ENDBRANCH  31  34
ENDBRANCH  27  28
ENDBRANCH  26  27
ENDBRANCH  24  26
ENDBRANCH  20  22
ENDBRANCH  19  20
ENDBRANCH   5  19
TORSDOF 11
ENDMDL
MODEL 2
REMARK VINA RESULT:      -7.1      4.706      9.993
REMARK  Name = 
REMARK  14 active torsions:
REMARK  status: ('A' for Active; 'I' for Inactive)
REMARK    1  A    between atoms: C_1  and  C_2
REMARK    2  A    between atoms: C_2  and  O_3
REMARK    3  A    between atoms: O_3  and  C_4
REMARK    4  A    between atoms: C_4  and  C_6
REMARK    5  A    between atoms: C_7  and  C_8
REMARK    6  A    between atoms: C_17  and  S_18
REMARK    7  A    between atoms: S_18  and  C_19
REMARK    8  A    between atoms: C_19  and  C_20
REMARK    9  A    between atoms: C_19  and  C_21
REMARK   10  A    between atoms: N_23  and  C_24
REMARK   11  A    between atoms: C_24  and  C_25
REMARK   12  A    between atoms: C_25  and  C_26
REMARK   13  A    between atoms: C_29  and  O_30
REMARK   14  A    between atoms: O_30  and  C_31
REMARK                            x       y       z     vdW  Elec       q    Type
REMARK                         _______ _______ _______ _____ _____    ______ ____
ROOT
ATOM      1  C   UNL     1       1.099   9.169  19.742  0.00  0.00    +0.000 A 
ATOM      2  C   UNL     1       1.858   8.238  18.935  0.00  0.00    +0.000 A 
ATOM      3  C   UNL     1       2.267   8.922  17.804  0.00  0.00    +0.000 A 
ATOM      4  N   UNL     1       1.776  10.194  17.874  0.00  0.00    +0.000 N 
ATOM      5  C   UNL     1       1.078  10.362  19.041  0.00  0.00    +0.000 A 
ATOM      6  H   UNL     1       1.897  10.909  17.169  0.00  0.00    +0.000 HD
ENDROOT
BRANCH   2   7
ATOM      7  C   UNL     1       2.118   6.810  19.114  0.00  0.00    +0.000 A 
ATOM      8  C   UNL     1       2.343   6.271  20.391  0.00  0.00    +0.000 A 
ATOM      9  C   UNL     1       2.576   4.905  20.566  0.00  0.00    +0.000 A 
ATOM     10  C   UNL     1       2.549   4.059  19.466  0.00  0.00    +0.000 A 
ATOM     11 CL   UNL     1       2.778   2.370  19.684  0.00  0.00    +0.000 Cl
ATOM     12  C   UNL     1       2.317   4.569  18.191  0.00  0.00    +0.000 A 
ATOM     13  C   UNL     1       2.114   5.942  18.015  0.00  0.00    +0.000 A 
ENDBRANCH   2   7
BRANCH   1  14
ATOM     14  C   UNL     1       0.448   8.851  21.011  0.00  0.00    +0.000 C 
ATOM     15  O   UNL     1      -0.441   8.023  21.133  0.00  0.00    +0.000 OA
BRANCH  14  16
ATOM     16  O   UNL     1       0.830   9.709  22.003  0.00  0.00    +0.000 OA
BRANCH  16  18
ATOM     17  C   UNL     1      -1.057  10.698  23.166  0.00  0.00    +0.000 C 
ATOM     18  C   UNL     1       0.034   9.651  23.193  0.00  0.00    +0.000 C 
ENDBRANCH  16  18
ENDBRANCH  14  16
ENDBRANCH   1  14
BRANCH   5  19
ATOM     19  S   UNL     1       0.373  11.930  19.264  0.00  0.00    +0.000 S 
BRANCH  19  20
ATOM     20  C   UNL     1      -1.356  11.567  19.771  0.00  0.00    +0.000 C 
ATOM     21  C   UNL     1      -2.059  12.812  20.310  0.00  0.00    +0.000 C 
BRANCH  20  22
ATOM     22  C   UNL     1      -2.164  11.022  18.577  0.00  0.00    +0.000 C 
ATOM     23  O   UNL     1      -2.006   9.882  18.138  0.00  0.00    +0.000 OA
ATOM     24  N   UNL     1      -3.014  11.918  17.960  0.00  0.00    +0.000 N 
ATOM     25  H   UNL     1      -3.149  12.825  18.395  0.00  0.00    +0.000 HD
BRANCH  24  26
ATOM     26  C   UNL     1      -3.822  11.509  16.832  0.00  0.00    +0.000 C 
BRANCH  26  27
ATOM     27  C   UNL     1      -5.252  12.047  16.884  0.00  0.00    +0.000 C 
BRANCH  27  28
ATOM     28  C   UNL     1      -5.877  11.794  18.236  0.00  0.00    +0.000 A 
ATOM     29  C   UNL     1      -5.747  12.721  19.277  0.00  0.00    +0.000 A 
ATOM     30  C   UNL     1      -6.274  12.442  20.541  0.00  0.00    +0.000 A 
ATOM     31  C   UNL     1      -6.948  11.244  20.779  0.00  0.00    +0.000 A 
ATOM     32  C   UNL     1      -7.071  10.310  19.751  0.00  0.00    +0.000 A 
ATOM     33  C   UNL     1      -6.541  10.586  18.486  0.00  0.00    +0.000 A 
BRANCH  31  34
ATOM     34  O   UNL     1      -7.404  11.074  22.058  0.00  0.00    +0.000 OA
ATOM     35  C   UNL     1      -7.906  12.245  22.690  0.00  0.00    +0.000 C 
ENDBRANCH  31  34
ENDBRANCH  27  28
ENDBRANCH  26  27
ENDBRANCH  24  26
ENDBRANCH  20  22
ENDBRANCH  19  20
ENDBRANCH   5  19
TORSDOF 11
ENDMDL
MODEL 3
REMARK VINA RESULT:      -7.1      4.799     10.250
REMARK  Name = 
REMARK  14 active torsions:
REMARK  status: ('A' for Active; 'I' for Inactive)
REMARK    1  A    between atoms: C_1  and  C_2
REMARK    2  A    between atoms: C_2  and  O_3
REMARK    3  A    between atoms: O_3  and  C_4
REMARK    4  A    between atoms: C_4  and  C_6
REMARK    5  A    between atoms: C_7  and  C_8
REMARK    6  A    between atoms: C_17  and  S_18
REMARK    7  A    between atoms: S_18  and  C_19
REMARK    8  A    between atoms: C_19  and  C_20
REMARK    9  A    between atoms: C_19  and  C_21
REMARK   10  A    between atoms: N_23  and  C_24
REMARK   11  A    between atoms: C_24  and  C_25
REMARK   12  A    between atoms: C_25  and  C_26
REMARK   13  A    between atoms: C_29  and  O_30
REMARK   14  A    between atoms: O_30  and  C_31
REMARK                            x       y       z     vdW  Elec       q    Type
REMARK                         _______ _______ _______ _____ _____    ______ ____
ROOT
ATOM      1  C   UNL     1       1.234   9.459  19.910  0.00  0.00    +0.000 A 
ATOM      2  C   UNL     1       1.774   8.404  19.081  0.00  0.00    +0.000 A 
ATOM      3  C   UNL     1       1.765   8.869  17.777  0.00  0.00    +0.000 A 
ATOM      4  N   UNL     1       1.227  10.124  17.775  0.00  0.00    +0.000 N 
ATOM      5  C   UNL     1       0.911  10.498  19.055  0.00  0.00    +0.000 A 
ATOM      6  H   UNL     1       1.072  10.694  16.954  0.00  0.00    +0.000 HD
ENDROOT
BRANCH   2   7
ATOM      7  C   UNL     1       2.182   7.040  19.414  0.00  0.00    +0.000 A 
ATOM      8  C   UNL     1       3.249   6.421  18.745  0.00  0.00    +0.000 A 
ATOM      9  C   UNL     1       3.650   5.123  19.073  0.00  0.00    +0.000 A 
ATOM     10  C   UNL     1       3.009   4.447  20.102  0.00  0.00    +0.000 A 
ATOM     11 CL   UNL     1       3.537   2.874  20.547  0.00  0.00    +0.000 Cl
ATOM     12  C   UNL     1       1.955   5.046  20.788  0.00  0.00    +0.000 A 
ATOM     13  C   UNL     1       1.535   6.333  20.437  0.00  0.00    +0.000 A 
ENDBRANCH   2   7
BRANCH   1  14
ATOM     14  C   UNL     1       1.029   9.376  21.355  0.00  0.00    +0.000 C 
ATOM     15  O   UNL     1       1.932   9.421  22.175  0.00  0.00    +0.000 OA
BRANCH  14  16
ATOM     16  O   UNL     1      -0.265   9.069  21.665  0.00  0.00    +0.000 OA
BRANCH  16  18
ATOM     17  C   UNL     1      -1.114  10.826  23.109  0.00  0.00    +0.000 C 
ATOM     18  C   UNL     1      -0.658   9.388  23.006  0.00  0.00    +0.000 C 
ENDBRANCH  16  18
ENDBRANCH  14  16
ENDBRANCH   1  14
BRANCH   5  19
ATOM     19  S   UNL     1       0.195  12.069  19.212  0.00  0.00    +0.000 S 
BRANCH  19  20
ATOM     20  C   UNL     1      -1.568  11.714  19.594  0.00  0.00    +0.000 C 
ATOM     21  C   UNL     1      -2.250  12.902  20.269  0.00  0.00    +0.000 C 
BRANCH  20  22
ATOM     22  C   UNL     1      -2.339  11.368  18.305  0.00  0.00    +0.000 C 
ATOM     23  O   UNL     1      -1.827  10.742  17.377  0.00  0.00    +0.000 OA
ATOM     24  N   UNL     1      -3.616  11.884  18.206  0.00  0.00    +0.000 N 
ATOM     25  H   UNL     1      -4.010  12.344  19.021  0.00  0.00    +0.000 HD
BRANCH  24  26
ATOM     26  C   UNL     1      -4.429  11.617  17.039  0.00  0.00    +0.000 C 
BRANCH  26  27
ATOM     27  C   UNL     1      -5.806  12.278  17.097  0.00  0.00    +0.000 C 
BRANCH  27  28
ATOM     28  C   UNL     1      -6.417  12.138  18.471  0.00  0.00    +0.000 A 
ATOM     29  C   UNL     1      -6.596  13.253  19.300  0.00  0.00    +0.000 A 
ATOM     30  C   UNL     1      -7.101  13.096  20.594  0.00  0.00    +0.000 A 
ATOM     31  C   UNL     1      -7.447  11.833  21.072  0.00  0.00    +0.000 A 
ATOM     32  C   UNL     1      -7.261  10.717  20.258  0.00  0.00    +0.000 A 
ATOM     33  C   UNL     1      -6.752  10.870  18.963  0.00  0.00    +0.000 A 
BRANCH  31  34
ATOM     34  O   UNL     1      -7.913  11.801  22.358  0.00  0.00    +0.000 OA
ATOM     35  C   UNL     1      -7.090  12.445  23.324  0.00  0.00    +0.000 C 
ENDBRANCH  31  34
ENDBRANCH  27  28
ENDBRANCH  26  27
ENDBRANCH  24  26
ENDBRANCH  20  22
ENDBRANCH  19  20
ENDBRANCH   5  19
TORSDOF 11
ENDMDL
MODEL 4
REMARK VINA RESULT:      -7.0      1.978      3.126
REMARK  Name = 
REMARK  14 active torsions:
REMARK  status: ('A' for Active; 'I' for Inactive)
REMARK    1  A    between atoms: C_1  and  C_2
REMARK    2  A    between atoms: C_2  and  O_3
REMARK    3  A    between atoms: O_3  and  C_4
REMARK    4  A    between atoms: C_4  and  C_6
REMARK    5  A    between atoms: C_7  and  C_8
REMARK    6  A    between atoms: C_17  and  S_18
REMARK    7  A    between atoms: S_18  and  C_19
REMARK    8  A    between atoms: C_19  and  C_20
REMARK    9  A    between atoms: C_19  and  C_21
REMARK   10  A    between atoms: N_23  and  C_24
REMARK   11  A    between atoms: C_24  and  C_25
REMARK   12  A    between atoms: C_25  and  C_26
REMARK   13  A    between atoms: C_29  and  O_30
REMARK   14  A    between atoms: O_30  and  C_31
REMARK                            x       y       z     vdW  Elec       q    Type
REMARK                         _______ _______ _______ _____ _____    ______ ____
ROOT
ATOM      1  C   UNL     1       1.384   8.909  19.481  0.00  0.00    +0.000 A 
ATOM      2  C   UNL     1       1.041   9.097  20.873  0.00  0.00    +0.000 A 
ATOM      3  C   UNL     1       1.431   7.952  21.545  0.00  0.00    +0.000 A 
ATOM      4  N   UNL     1       1.959   7.083  20.635  0.00  0.00    +0.000 N 
ATOM      5  C   UNL     1       1.949   7.648  19.387  0.00  0.00    +0.000 A 
ATOM      6  H   UNL     1       2.301   6.153  20.842  0.00  0.00    +0.000 HD
ENDROOT
BRANCH   2   7
ATOM      7  C   UNL     1       0.327  10.184  21.543  0.00  0.00    +0.000 A 
ATOM      8  C   UNL     1       0.545  11.523  21.180  0.00  0.00    +0.000 A 
ATOM      9  C   UNL     1      -0.147  12.561  21.808  0.00  0.00    +0.000 A 
ATOM     10  C   UNL     1      -1.094  12.265  22.779  0.00  0.00    +0.000 A 
ATOM     11 CL   UNL     1      -1.988  13.536  23.512  0.00  0.00    +0.000 Cl
ATOM     12  C   UNL     1      -1.335  10.944  23.148  0.00  0.00    +0.000 A 
ATOM     13  C   UNL     1      -0.618   9.908  22.539  0.00  0.00    +0.000 A 
ENDBRANCH   2   7
BRANCH   1  14
ATOM     14  C   UNL     1       1.114   9.864  18.407  0.00  0.00    +0.000 C 
ATOM     15  O   UNL     1       1.769  10.875  18.214  0.00  0.00    +0.000 OA
BRANCH  14  16
ATOM     16  O   UNL     1      -0.056   9.579  17.762  0.00  0.00    +0.000 OA
BRANCH  16  18
ATOM     17  C   UNL     1      -2.157  10.635  17.162  0.00  0.00    +0.000 C 
ATOM     18  C   UNL     1      -1.210  10.254  18.277  0.00  0.00    +0.000 C 
ENDBRANCH  16  18
ENDBRANCH  14  16
ENDBRANCH   1  14
BRANCH   5  19
ATOM     19  S   UNL     1       2.573   6.650  18.115  0.00  0.00    +0.000 S 
BRANCH  19  20
ATOM     20  C   UNL     1       2.715   4.989  18.889  0.00  0.00    +0.000 C 
ATOM     21  C   UNL     1       2.201   3.889  17.962  0.00  0.00    +0.000 C 
BRANCH  20  22
ATOM     22  C   UNL     1       4.183   4.686  19.247  0.00  0.00    +0.000 C 
ATOM     23  O   UNL     1       4.539   3.601  19.713  0.00  0.00    +0.000 OA
ATOM     24  N   UNL     1       5.071   5.734  19.107  0.00  0.00    +0.000 N 
ATOM     25  H   UNL     1       4.738   6.586  18.667  0.00  0.00    +0.000 HD
BRANCH  24  26
ATOM     26  C   UNL     1       6.474   5.556  19.413  0.00  0.00    +0.000 C 
BRANCH  26  27
ATOM     27  C   UNL     1       7.392   5.830  18.222  0.00  0.00    +0.000 C 
BRANCH  27  28
ATOM     28  C   UNL     1       6.751   5.384  16.929  0.00  0.00    +0.000 A 
ATOM     29  C   UNL     1       7.161   4.209  16.287  0.00  0.00    +0.000 A 
ATOM     30  C   UNL     1       6.604   3.845  15.058  0.00  0.00    +0.000 A 
ATOM     31  C   UNL     1       5.624   4.639  14.461  0.00  0.00    +0.000 A 
ATOM     32  C   UNL     1       5.219   5.816  15.088  0.00  0.00    +0.000 A 
ATOM     33  C   UNL     1       5.778   6.184  16.317  0.00  0.00    +0.000 A 
BRANCH  31  34
ATOM     34  O   UNL     1       5.167   4.192  13.251  0.00  0.00    +0.000 OA
ATOM     35  C   UNL     1       6.057   3.344  12.535  0.00  0.00    +0.000 C 
ENDBRANCH  31  34
ENDBRANCH  27  28
ENDBRANCH  26  27
ENDBRANCH  24  26
ENDBRANCH  20  22
ENDBRANCH  19  20
ENDBRANCH   5  19
TORSDOF 11
ENDMDL
MODEL 5
REMARK VINA RESULT:      -6.7      1.296      1.791
REMARK  Name = 
REMARK  14 active torsions:
REMARK  status: ('A' for Active; 'I' for Inactive)
REMARK    1  A    between atoms: C_1  and  C_2
REMARK    2  A    between atoms: C_2  and  O_3
REMARK    3  A    between atoms: O_3  and  C_4
REMARK    4  A    between atoms: C_4  and  C_6
REMARK    5  A    between atoms: C_7  and  C_8
REMARK    6  A    between atoms: C_17  and  S_18
REMARK    7  A    between atoms: S_18  and  C_19
REMARK    8  A    between atoms: C_19  and  C_20
REMARK    9  A    between atoms: C_19  and  C_21
REMARK   10  A    between atoms: N_23  and  C_24
REMARK   11  A    between atoms: C_24  and  C_25
REMARK   12  A    between atoms: C_25  and  C_26
REMARK   13  A    between atoms: C_29  and  O_30
REMARK   14  A    between atoms: O_30  and  C_31
REMARK                            x       y       z     vdW  Elec       q    Type
REMARK                         _______ _______ _______ _____ _____    ______ ____
ROOT
ATOM      1  C   UNL     1       1.308   9.158  19.495  0.00  0.00    +0.000 A 
ATOM      2  C   UNL     1       0.958   9.369  20.882  0.00  0.00    +0.000 A 
ATOM      3  C   UNL     1       1.391   8.258  21.583  0.00  0.00    +0.000 A 
ATOM      4  N   UNL     1       1.952   7.385  20.696  0.00  0.00    +0.000 N 
ATOM      5  C   UNL     1       1.920   7.918  19.433  0.00  0.00    +0.000 A 
ATOM      6  H   UNL     1       2.329   6.476  20.926  0.00  0.00    +0.000 HD
ENDROOT
BRANCH   2   7
ATOM      7  C   UNL     1       0.204  10.445  21.524  0.00  0.00    +0.000 A 
ATOM      8  C   UNL     1      -0.724  10.170  22.540  0.00  0.00    +0.000 A 
ATOM      9  C   UNL     1      -1.435  11.197  23.166  0.00  0.00    +0.000 A 
ATOM     10  C   UNL     1      -1.193  12.516  22.805  0.00  0.00    +0.000 A 
ATOM     11 CL   UNL     1      -2.022  13.785  23.612  0.00  0.00    +0.000 Cl
ATOM     12  C   UNL     1      -0.269  12.814  21.807  0.00  0.00    +0.000 A 
ATOM     13  C   UNL     1       0.419  11.781  21.161  0.00  0.00    +0.000 A 
ENDBRANCH   2   7
BRANCH   1  14
ATOM     14  C   UNL     1       1.002  10.073  18.397  0.00  0.00    +0.000 C 
ATOM     15  O   UNL     1       1.630  11.094  18.165  0.00  0.00    +0.000 OA
BRANCH  14  16
ATOM     16  O   UNL     1      -0.169   9.743  17.777  0.00  0.00    +0.000 OA
BRANCH  16  18
ATOM     17  C   UNL     1      -2.317  10.564  17.000  0.00  0.00    +0.000 C 
ATOM     18  C   UNL     1      -1.285  10.579  18.105  0.00  0.00    +0.000 C 
ENDBRANCH  16  18
ENDBRANCH  14  16
ENDBRANCH   1  14
BRANCH   5  19
ATOM     19  S   UNL     1       2.582   6.911  18.187  0.00  0.00    +0.000 S 
BRANCH  19  20
ATOM     20  C   UNL     1       2.189   5.204  18.744  0.00  0.00    +0.000 C 
ATOM     21  C   UNL     1       1.424   4.424  17.677  0.00  0.00    +0.000 C 
BRANCH  20  22
ATOM     22  C   UNL     1       3.482   4.438  19.085  0.00  0.00    +0.000 C 
ATOM     23  O   UNL     1       3.566   3.683  20.055  0.00  0.00    +0.000 OA
ATOM     24  N   UNL     1       4.578   4.716  18.293  0.00  0.00    +0.000 N 
ATOM     25  H   UNL     1       4.440   5.300  17.475  0.00  0.00    +0.000 HD
BRANCH  24  26
ATOM     26  C   UNL     1       5.841   4.049  18.524  0.00  0.00    +0.000 C 
BRANCH  26  27
ATOM     27  C   UNL     1       6.944   4.492  17.563  0.00  0.00    +0.000 C 
BRANCH  27  28
ATOM     28  C   UNL     1       7.320   5.936  17.798  0.00  0.00    +0.000 A 
ATOM     29  C   UNL     1       6.941   6.937  16.896  0.00  0.00    +0.000 A 
ATOM     30  C   UNL     1       7.354   8.258  17.093  0.00  0.00    +0.000 A 
ATOM     31  C   UNL     1       8.136   8.599  18.196  0.00  0.00    +0.000 A 
ATOM     32  C   UNL     1       8.528   7.606  19.092  0.00  0.00    +0.000 A 
ATOM     33  C   UNL     1       8.119   6.282  18.895  0.00  0.00    +0.000 A 
BRANCH  31  34
ATOM     34  O   UNL     1       8.494   9.918  18.274  0.00  0.00    +0.000 OA
ATOM     35  C   UNL     1       9.376  10.251  19.340  0.00  0.00    +0.000 C 
ENDBRANCH  31  34
ENDBRANCH  27  28
ENDBRANCH  26  27
ENDBRANCH  24  26
ENDBRANCH  20  22
ENDBRANCH  19  20
ENDBRANCH   5  19
TORSDOF 11
ENDMDL
MODEL 6
REMARK VINA RESULT:      -6.7      3.018      6.021
REMARK  Name = 
REMARK  14 active torsions:
REMARK  status: ('A' for Active; 'I' for Inactive)
REMARK    1  A    between atoms: C_1  and  C_2
REMARK    2  A    between atoms: C_2  and  O_3
REMARK    3  A    between atoms: O_3  and  C_4
REMARK    4  A    between atoms: C_4  and  C_6
REMARK    5  A    between atoms: C_7  and  C_8
REMARK    6  A    between atoms: C_17  and  S_18
REMARK    7  A    between atoms: S_18  and  C_19
REMARK    8  A    between atoms: C_19  and  C_20
REMARK    9  A    between atoms: C_19  and  C_21
REMARK   10  A    between atoms: N_23  and  C_24
REMARK   11  A    between atoms: C_24  and  C_25
REMARK   12  A    between atoms: C_25  and  C_26
REMARK   13  A    between atoms: C_29  and  O_30
REMARK   14  A    between atoms: O_30  and  C_31
REMARK                            x       y       z     vdW  Elec       q    Type
REMARK                         _______ _______ _______ _____ _____    ______ ____
ROOT
ATOM      1  C   UNL     1       3.218   5.932  18.716  0.00  0.00    +0.000 A 
ATOM      2  C   UNL     1       2.934   7.275  18.262  0.00  0.00    +0.000 A 
ATOM      3  C   UNL     1       3.926   7.616  17.360  0.00  0.00    +0.000 A 
ATOM      4  N   UNL     1       4.799   6.570  17.270  0.00  0.00    +0.000 N 
ATOM      5  C   UNL     1       4.380   5.542  18.074  0.00  0.00    +0.000 A 
ATOM      6  H   UNL     1       5.637   6.553  16.704  0.00  0.00    +0.000 HD
ENDROOT
BRANCH   2   7
ATOM      7  C   UNL     1       1.902   8.226  18.676  0.00  0.00    +0.000 A 
ATOM      8  C   UNL     1       1.668   8.491  20.034  0.00  0.00    +0.000 A 
ATOM      9  C   UNL     1       0.694   9.411  20.432  0.00  0.00    +0.000 A 
ATOM     10  C   UNL     1      -0.029  10.102  19.469  0.00  0.00    +0.000 A 
ATOM     11 CL   UNL     1      -1.187  11.275  19.953  0.00  0.00    +0.000 Cl
ATOM     12  C   UNL     1       0.194   9.864  18.115  0.00  0.00    +0.000 A 
ATOM     13  C   UNL     1       1.148   8.920  17.721  0.00  0.00    +0.000 A 
ENDBRANCH   2   7
BRANCH   1  14
ATOM     14  C   UNL     1       2.438   5.192  19.707  0.00  0.00    +0.000 C 
ATOM     15  O   UNL     1       1.991   5.686  20.730  0.00  0.00    +0.000 OA
BRANCH  14  16
ATOM     16  O   UNL     1       2.421   3.853  19.438  0.00  0.00    +0.000 OA
BRANCH  16  18
ATOM     17  C   UNL     1       0.584   2.363  18.896  0.00  0.00    +0.000 C 
ATOM     18  C   UNL     1       1.509   3.454  18.408  0.00  0.00    +0.000 C 
ENDBRANCH  16  18
ENDBRANCH  14  16
ENDBRANCH   1  14
BRANCH   5  19
ATOM     19  S   UNL     1       5.404   4.144  18.081  0.00  0.00    +0.000 S 
BRANCH  19  20
ATOM     20  C   UNL     1       7.019   4.776  17.472  0.00  0.00    +0.000 C 
ATOM     21  C   UNL     1       6.914   5.309  16.044  0.00  0.00    +0.000 C 
BRANCH  20  22
ATOM     22  C   UNL     1       7.533   5.907  18.385  0.00  0.00    +0.000 C 
ATOM     23  O   UNL     1       7.555   5.806  19.613  0.00  0.00    +0.000 OA
ATOM     24  N   UNL     1       7.885   7.083  17.754  0.00  0.00    +0.000 N 
ATOM     25  H   UNL     1       7.902   7.094  16.739  0.00  0.00    +0.000 HD
BRANCH  24  26
ATOM     26  C   UNL     1       8.384   8.207  18.517  0.00  0.00    +0.000 C 
BRANCH  26  27
ATOM     27  C   UNL     1       8.229   9.545  17.794  0.00  0.00    +0.000 C 
BRANCH  27  28
ATOM     28  C   UNL     1       8.960  10.644  18.528  0.00  0.00    +0.000 A 
ATOM     29  C   UNL     1       9.341  11.822  17.873  0.00  0.00    +0.000 A 
ATOM     30  C   UNL     1      10.076  12.800  18.549  0.00  0.00    +0.000 A 
ATOM     31  C   UNL     1      10.427  12.625  19.887  0.00  0.00    +0.000 A 
ATOM     32  C   UNL     1      10.062  11.450  20.543  0.00  0.00    +0.000 A 
ATOM     33  C   UNL     1       9.330  10.468  19.868  0.00  0.00    +0.000 A 
BRANCH  31  34
ATOM     34  O   UNL     1      11.160  13.641  20.437  0.00  0.00    +0.000 OA
ATOM     35  C   UNL     1      12.049  14.306  19.547  0.00  0.00    +0.000 C 
ENDBRANCH  31  34
ENDBRANCH  27  28
ENDBRANCH  26  27
ENDBRANCH  24  26
ENDBRANCH  20  22
ENDBRANCH  19  20
ENDBRANCH   5  19
TORSDOF 11
ENDMDL
MODEL 7
REMARK VINA RESULT:      -6.7      2.479      3.427
REMARK  Name = 
REMARK  14 active torsions:
REMARK  status: ('A' for Active; 'I' for Inactive)
REMARK    1  A    between atoms: C_1  and  C_2
REMARK    2  A    between atoms: C_2  and  O_3
REMARK    3  A    between atoms: O_3  and  C_4
REMARK    4  A    between atoms: C_4  and  C_6
REMARK    5  A    between atoms: C_7  and  C_8
REMARK    6  A    between atoms: C_17  and  S_18
REMARK    7  A    between atoms: S_18  and  C_19
REMARK    8  A    between atoms: C_19  and  C_20
REMARK    9  A    between atoms: C_19  and  C_21
REMARK   10  A    between atoms: N_23  and  C_24
REMARK   11  A    between atoms: C_24  and  C_25
REMARK   12  A    between atoms: C_25  and  C_26
REMARK   13  A    between atoms: C_29  and  O_30
REMARK   14  A    between atoms: O_30  and  C_31
REMARK                            x       y       z     vdW  Elec       q    Type
REMARK                         _______ _______ _______ _____ _____    ______ ____
ROOT
ATOM      1  C   UNL     1       1.331   8.895  19.575  0.00  0.00    +0.000 A 
ATOM      2  C   UNL     1       0.722   9.141  20.863  0.00  0.00    +0.000 A 
ATOM      3  C   UNL     1       1.046   8.069  21.677  0.00  0.00    +0.000 A 
ATOM      4  N   UNL     1       1.788   7.187  20.944  0.00  0.00    +0.000 N 
ATOM      5  C   UNL     1       1.977   7.675  19.678  0.00  0.00    +0.000 A 
ATOM      6  H   UNL     1       2.140   6.299  21.277  0.00  0.00    +0.000 HD
ENDROOT
BRANCH   2   7
ATOM      7  C   UNL     1      -0.169  10.211  21.311  0.00  0.00    +0.000 A 
ATOM      8  C   UNL     1      -0.821  11.042  20.386  0.00  0.00    +0.000 A 
ATOM      9  C   UNL     1      -1.685  12.055  20.810  0.00  0.00    +0.000 A 
ATOM     10  C   UNL     1      -1.934  12.220  22.166  0.00  0.00    +0.000 A 
ATOM     11 CL   UNL     1      -3.039  13.426  22.688  0.00  0.00    +0.000 Cl
ATOM     12  C   UNL     1      -1.307  11.400  23.102  0.00  0.00    +0.000 A 
ATOM     13  C   UNL     1      -0.419  10.407  22.675  0.00  0.00    +0.000 A 
ENDBRANCH   2   7
BRANCH   1  14
ATOM     14  C   UNL     1       1.210   9.761  18.404  0.00  0.00    +0.000 C 
ATOM     15  O   UNL     1       0.254   9.753  17.646  0.00  0.00    +0.000 OA
BRANCH  14  16
ATOM     16  O   UNL     1       2.366  10.450  18.165  0.00  0.00    +0.000 OA
BRANCH  16  18
ATOM     17  C   UNL     1       2.184  12.662  19.149  0.00  0.00    +0.000 C 
ATOM     18  C   UNL     1       2.191  11.843  17.878  0.00  0.00    +0.000 C 
ENDBRANCH  16  18
ENDBRANCH  14  16
ENDBRANCH   1  14
BRANCH   5  19
ATOM     19  S   UNL     1       2.888   6.650  18.618  0.00  0.00    +0.000 S 
BRANCH  19  20
ATOM     20  C   UNL     1       3.623   5.395  19.742  0.00  0.00    +0.000 C 
ATOM     21  C   UNL     1       2.625   4.290  20.084  0.00  0.00    +0.000 C 
BRANCH  20  22
ATOM     22  C   UNL     1       4.866   4.754  19.094  0.00  0.00    +0.000 C 
ATOM     23  O   UNL     1       5.236   3.611  19.364  0.00  0.00    +0.000 OA
ATOM     24  N   UNL     1       5.603   5.570  18.258  0.00  0.00    +0.000 N 
ATOM     25  H   UNL     1       5.225   6.482  18.026  0.00  0.00    +0.000 HD
BRANCH  24  26
ATOM     26  C   UNL     1       6.787   5.067  17.595  0.00  0.00    +0.000 C 
BRANCH  26  27
ATOM     27  C   UNL     1       7.155   5.852  16.337  0.00  0.00    +0.000 C 
BRANCH  27  28
ATOM     28  C   UNL     1       6.710   5.120  15.092  0.00  0.00    +0.000 A 
ATOM     29  C   UNL     1       5.517   4.387  15.073  0.00  0.00    +0.000 A 
ATOM     30  C   UNL     1       5.153   3.662  13.935  0.00  0.00    +0.000 A 
ATOM     31  C   UNL     1       5.964   3.668  12.800  0.00  0.00    +0.000 A 
ATOM     32  C   UNL     1       7.159   4.386  12.816  0.00  0.00    +0.000 A 
ATOM     33  C   UNL     1       7.528   5.110  13.955  0.00  0.00    +0.000 A 
BRANCH  31  34
ATOM     34  O   UNL     1       5.514   2.907  11.755  0.00  0.00    +0.000 OA
ATOM     35  C   UNL     1       4.179   3.168  11.338  0.00  0.00    +0.000 C 
ENDBRANCH  31  34
ENDBRANCH  27  28
ENDBRANCH  26  27
ENDBRANCH  24  26
ENDBRANCH  20  22
ENDBRANCH  19  20
ENDBRANCH   5  19
TORSDOF 11
ENDMDL
MODEL 8
REMARK VINA RESULT:      -6.5      2.896      5.714
REMARK  Name = 
REMARK  14 active torsions:
REMARK  status: ('A' for Active; 'I' for Inactive)
REMARK    1  A    between atoms: C_1  and  C_2
REMARK    2  A    between atoms: C_2  and  O_3
REMARK    3  A    between atoms: O_3  and  C_4
REMARK    4  A    between atoms: C_4  and  C_6
REMARK    5  A    between atoms: C_7  and  C_8
REMARK    6  A    between atoms: C_17  and  S_18
REMARK    7  A    between atoms: S_18  and  C_19
REMARK    8  A    between atoms: C_19  and  C_20
REMARK    9  A    between atoms: C_19  and  C_21
REMARK   10  A    between atoms: N_23  and  C_24
REMARK   11  A    between atoms: C_24  and  C_25
REMARK   12  A    between atoms: C_25  and  C_26
REMARK   13  A    between atoms: C_29  and  O_30
REMARK   14  A    between atoms: O_30  and  C_31
REMARK                            x       y       z     vdW  Elec       q    Type
REMARK                         _______ _______ _______ _____ _____    ______ ____
ROOT
ATOM      1  C   UNL     1       2.886   6.006  18.471  0.00  0.00    +0.000 A 
ATOM      2  C   UNL     1       2.574   7.416  18.537  0.00  0.00    +0.000 A 
ATOM      3  C   UNL     1       3.274   8.035  17.516  0.00  0.00    +0.000 A 
ATOM      4  N   UNL     1       4.006   7.085  16.864  0.00  0.00    +0.000 N 
ATOM      5  C   UNL     1       3.775   5.854  17.421  0.00  0.00    +0.000 A 
ATOM      6  H   UNL     1       4.634   7.258  16.091  0.00  0.00    +0.000 HD
ENDROOT
BRANCH   2   7
ATOM      7  C   UNL     1       1.780   8.175  19.503  0.00  0.00    +0.000 A 
ATOM      8  C   UNL     1       1.717   7.785  20.850  0.00  0.00    +0.000 A 
ATOM      9  C   UNL     1       0.973   8.517  21.779  0.00  0.00    +0.000 A 
ATOM     10  C   UNL     1       0.314   9.670  21.373  0.00  0.00    +0.000 A 
ATOM     11 CL   UNL     1      -0.555  10.604  22.523  0.00  0.00    +0.000 Cl
ATOM     12  C   UNL     1       0.371  10.082  20.043  0.00  0.00    +0.000 A 
ATOM     13  C   UNL     1       1.092   9.330  19.110  0.00  0.00    +0.000 A 
ENDBRANCH   2   7
BRANCH   1  14
ATOM     14  C   UNL     1       2.387   4.985  19.391  0.00  0.00    +0.000 C 
ATOM     15  O   UNL     1       2.958   4.656  20.418  0.00  0.00    +0.000 OA
BRANCH  14  16
ATOM     16  O   UNL     1       1.306   4.328  18.876  0.00  0.00    +0.000 OA
BRANCH  16  18
ATOM     17  C   UNL     1       2.043   2.162  18.064  0.00  0.00    +0.000 C 
ATOM     18  C   UNL     1       1.280   2.917  19.129  0.00  0.00    +0.000 C 
ENDBRANCH  16  18
ENDBRANCH  14  16
ENDBRANCH   1  14
BRANCH   5  19
ATOM     19  S   UNL     1       4.656   4.542  16.708  0.00  0.00    +0.000 S 
BRANCH  19  20
ATOM     20  C   UNL     1       6.316   4.650  17.490  0.00  0.00    +0.000 C 
ATOM     21  C   UNL     1       7.428   4.295  16.504  0.00  0.00    +0.000 C 
BRANCH  20  22
ATOM     22  C   UNL     1       6.568   6.073  18.026  0.00  0.00    +0.000 C 
ATOM     23  O   UNL     1       6.226   6.422  19.157  0.00  0.00    +0.000 OA
ATOM     24  N   UNL     1       7.116   6.970  17.132  0.00  0.00    +0.000 N 
ATOM     25  H   UNL     1       7.430   6.618  16.233  0.00  0.00    +0.000 HD
BRANCH  24  26
ATOM     26  C   UNL     1       7.396   8.332  17.533  0.00  0.00    +0.000 C 
BRANCH  26  27
ATOM     27  C   UNL     1       8.598   8.451  18.470  0.00  0.00    +0.000 C 
BRANCH  27  28
ATOM     28  C   UNL     1       8.928   9.899  18.747  0.00  0.00    +0.000 A 
ATOM     29  C   UNL     1       8.725  10.885  17.774  0.00  0.00    +0.000 A 
ATOM     30  C   UNL     1       9.097  12.209  18.022  0.00  0.00    +0.000 A 
ATOM     31  C   UNL     1       9.662  12.569  19.245  0.00  0.00    +0.000 A 
ATOM     32  C   UNL     1       9.878  11.591  20.215  0.00  0.00    +0.000 A 
ATOM     33  C   UNL     1       9.510  10.264  19.967  0.00  0.00    +0.000 A 
BRANCH  31  34
ATOM     34  O   UNL     1      10.002  13.889  19.367  0.00  0.00    +0.000 OA
ATOM     35  C   UNL     1       9.100  14.812  18.768  0.00  0.00    +0.000 C 
ENDBRANCH  31  34
ENDBRANCH  27  28
ENDBRANCH  26  27
ENDBRANCH  24  26
ENDBRANCH  20  22
ENDBRANCH  19  20
ENDBRANCH   5  19
TORSDOF 11
ENDMDL
MODEL 9
REMARK VINA RESULT:      -6.5      2.272      3.329
REMARK  Name = 
REMARK  14 active torsions:
REMARK  status: ('A' for Active; 'I' for Inactive)
REMARK    1  A    between atoms: C_1  and  C_2
REMARK    2  A    between atoms: C_2  and  O_3
REMARK    3  A    between atoms: O_3  and  C_4
REMARK    4  A    between atoms: C_4  and  C_6
REMARK    5  A    between atoms: C_7  and  C_8
REMARK    6  A    between atoms: C_17  and  S_18
REMARK    7  A    between atoms: S_18  and  C_19
REMARK    8  A    between atoms: C_19  and  C_20
REMARK    9  A    between atoms: C_19  and  C_21
REMARK   10  A    between atoms: N_23  and  C_24
REMARK   11  A    between atoms: C_24  and  C_25
REMARK   12  A    between atoms: C_25  and  C_26
REMARK   13  A    between atoms: C_29  and  O_30
REMARK   14  A    between atoms: O_30  and  C_31
REMARK                            x       y       z     vdW  Elec       q    Type
REMARK                         _______ _______ _______ _____ _____    ______ ____
ROOT
ATOM      1  C   UNL     1       1.138   9.374  19.799  0.00  0.00    +0.000 A 
ATOM      2  C   UNL     1       0.868   9.728  21.174  0.00  0.00    +0.000 A 
ATOM      3  C   UNL     1       1.354   8.699  21.961  0.00  0.00    +0.000 A 
ATOM      4  N   UNL     1       1.872   7.741  21.138  0.00  0.00    +0.000 N 
ATOM      5  C   UNL     1       1.759   8.137  19.831  0.00  0.00    +0.000 A 
ATOM      6  H   UNL     1       2.272   6.863  21.439  0.00  0.00    +0.000 HD
ENDROOT
BRANCH   2   7
ATOM      7  C   UNL     1       0.140  10.862  21.744  0.00  0.00    +0.000 A 
ATOM      8  C   UNL     1       0.470  12.181  21.394  0.00  0.00    +0.000 A 
ATOM      9  C   UNL     1      -0.234  13.265  21.925  0.00  0.00    +0.000 A 
ATOM     10  C   UNL     1      -1.302  13.035  22.782  0.00  0.00    +0.000 A 
ATOM     11 CL   UNL     1      -2.206  14.363  23.391  0.00  0.00    +0.000 Cl
ATOM     12  C   UNL     1      -1.654  11.734  23.135  0.00  0.00    +0.000 A 
ATOM     13  C   UNL     1      -0.928  10.653  22.626  0.00  0.00    +0.000 A 
ENDBRANCH   2   7
BRANCH   1  14
ATOM     14  C   UNL     1       0.757  10.167  18.631  0.00  0.00    +0.000 C 
ATOM     15  O   UNL     1       1.557  10.681  17.865  0.00  0.00    +0.000 OA
BRANCH  14  16
ATOM     16  O   UNL     1      -0.587  10.408  18.602  0.00  0.00    +0.000 OA
BRANCH  16  18
ATOM     17  C   UNL     1      -2.696   9.721  17.615  0.00  0.00    +0.000 C 
ATOM     18  C   UNL     1      -1.239  10.048  17.377  0.00  0.00    +0.000 C 
ENDBRANCH  16  18
ENDBRANCH  14  16
ENDBRANCH   1  14
BRANCH   5  19
ATOM     19  S   UNL     1       2.358   7.008  18.660  0.00  0.00    +0.000 S 
BRANCH  19  20
ATOM     20  C   UNL     1       2.916   5.578  19.671  0.00  0.00    +0.000 C 
ATOM     21  C   UNL     1       1.746   4.686  20.082  0.00  0.00    +0.000 C 
BRANCH  20  22
ATOM     22  C   UNL     1       3.933   4.728  18.885  0.00  0.00    +0.000 C 
ATOM     23  O   UNL     1       3.611   3.702  18.283  0.00  0.00    +0.000 OA
ATOM     24  N   UNL     1       5.252   5.127  18.971  0.00  0.00    +0.000 N 
ATOM     25  H   UNL     1       5.456   6.008  19.432  0.00  0.00    +0.000 HD
BRANCH  24  26
ATOM     26  C   UNL     1       6.288   4.401  18.268  0.00  0.00    +0.000 C 
BRANCH  26  27
ATOM     27  C   UNL     1       7.104   5.277  17.319  0.00  0.00    +0.000 C 
BRANCH  27  28
ATOM     28  C   UNL     1       6.848   4.901  15.879  0.00  0.00    +0.000 A 
ATOM     29  C   UNL     1       5.812   4.025  15.534  0.00  0.00    +0.000 A 
ATOM     30  C   UNL     1       5.631   3.635  14.204  0.00  0.00    +0.000 A 
ATOM     31  C   UNL     1       6.469   4.122  13.202  0.00  0.00    +0.000 A 
ATOM     32  C   UNL     1       7.510   4.986  13.538  0.00  0.00    +0.000 A 
ATOM     33  C   UNL     1       7.696   5.375  14.869  0.00  0.00    +0.000 A 
BRANCH  31  34
ATOM     34  O   UNL     1       6.206   3.657  11.942  0.00  0.00    +0.000 OA
ATOM     35  C   UNL     1       5.505   2.420  11.880  0.00  0.00    +0.000 C 
ENDBRANCH  31  34
ENDBRANCH  27  28
ENDBRANCH  26  27
ENDBRANCH  24  26
ENDBRANCH  20  22
ENDBRANCH  19  20
ENDBRANCH   5  19
TORSDOF 11
ENDMDL
