MODEL 1
REMARK VINA RESULT:      -9.7      0.000      0.000
REMARK  Name = 
REMARK  7 active torsions:
REMARK  status: ('A' for Active; 'I' for Inactive)
REMARK    1  A    between atoms: C_1  and  O_2
REMARK    2  A    between atoms: O_2  and  C_3
REMARK    3  A    between atoms: C_5  and  N_6
REMARK    4  A    between atoms: N_9  and  C_10
REMARK    5  A    between atoms: N_13  and  C_14
REMARK    6  A    between atoms: C_20  and  C_21
REMARK    7  A    between atoms: C_23  and  C_24
REMARK                            x       y       z     vdW  Elec       q    Type
REMARK                         _______ _______ _______ _____ _____    ______ ____
ROOT
ATOM      1  C   UNL     1       0.284   9.904  19.303  0.00  0.00    +0.000 C 
ATOM      2  C   UNL     1       0.034   8.820  20.363  0.00  0.00    +0.000 C 
ATOM      3  C   UNL     1       1.314   8.169  20.849  0.00  0.00    +0.000 C 
ATOM      4  N   UNL     1       2.012   7.575  19.714  0.00  0.00    +0.000 N 
ATOM      5  C   UNL     1       2.303   8.445  18.573  0.00  0.00    +0.000 C 
ATOM      6  C   UNL     1       1.081   9.263  18.140  0.00  0.00    +0.000 C 
ENDROOT
BRANCH   4   7
ATOM      7  C   UNL     1       2.155   6.182  19.703  0.00  0.00    +0.000 A 
ATOM      8  C   UNL     1       1.416   5.466  20.669  0.00  0.00    +0.000 A 
ATOM      9  C   UNL     1       1.400   4.088  20.697  0.00  0.00    +0.000 A 
ATOM     10  C   UNL     1       2.174   3.396  19.787  0.00  0.00    +0.000 A 
ATOM     11  F   UNL     1       2.096   2.060  19.857  0.00  0.00    +0.000 F 
ATOM     12  C   UNL     1       2.989   4.042  18.826  0.00  0.00    +0.000 A 
ATOM     13  C   UNL     1       3.831   3.361  17.901  0.00  0.00    +0.000 A 
ATOM     14  C   UNL     1       4.054   1.872  17.858  0.00  0.00    +0.000 C 
ATOM     15  C   UNL     1       4.549   4.103  16.954  0.00  0.00    +0.000 A 
ATOM     16  C   UNL     1       4.432   5.483  16.945  0.00  0.00    +0.000 A 
ATOM     17  C   UNL     1       5.160   6.312  15.936  0.00  0.00    +0.000 C 
ATOM     18  N   UNL     1       3.655   6.136  17.826  0.00  0.00    +0.000 NA
ATOM     19  C   UNL     1       2.958   5.465  18.773  0.00  0.00    +0.000 A 
ENDBRANCH   4   7
BRANCH   1  23
ATOM     20  N   UNL     1      -1.089  12.843  21.467  0.00  0.00    +0.000 N 
ATOM     21  C   UNL     1      -1.385  12.711  20.034  0.00  0.00    +0.000 C 
ATOM     22  C   UNL     1      -0.112  12.382  19.222  0.00  0.00    +0.000 C 
ATOM     23  N   UNL     1       0.688  11.257  19.745  0.00  0.00    +0.000 NA
ATOM     24  C   UNL     1       1.006  11.513  21.153  0.00  0.00    +0.000 C 
ATOM     25  C   UNL     1      -0.183  11.847  22.075  0.00  0.00    +0.000 C 
BRANCH  20  28
ATOM     26  C   UNL     1      -4.498  12.993  22.818  0.00  0.00    +0.000 A 
ATOM     27  C   UNL     1      -3.395  12.765  22.017  0.00  0.00    +0.000 A 
ATOM     28  C   UNL     1      -2.129  13.306  22.309  0.00  0.00    +0.000 A 
ATOM     29  C   UNL     1      -1.978  14.174  23.427  0.00  0.00    +0.000 A 
ATOM     30  N   UNL     1      -0.809  14.805  23.726  0.00  0.00    +0.000 NA
ATOM     31  C   UNL     1      -0.731  15.598  24.817  0.00  0.00    +0.000 A 
ATOM     32  C   UNL     1      -1.779  15.807  25.683  0.00  0.00    +0.000 A 
ATOM     33  C   UNL     1      -2.983  15.189  25.394  0.00  0.00    +0.000 A 
ATOM     34  C   UNL     1      -3.111  14.383  24.251  0.00  0.00    +0.000 A 
ATOM     35  C   UNL     1      -4.349  13.787  23.946  0.00  0.00    +0.000 A 
BRANCH  26  37
ATOM     36  C   UNL     1      -6.148  12.385  21.233  0.00  0.00    +0.000 C 
ATOM     37  O   UNL     1      -5.744  12.468  22.600  0.00  0.00    +0.000 OA
ENDBRANCH  26  37
ENDBRANCH  20  28
ENDBRANCH   1  23
TORSDOF 4
ENDMDL
MODEL 2
REMARK VINA RESULT:      -9.3      1.234      1.306
REMARK  Name = 
REMARK  7 active torsions:
REMARK  status: ('A' for Active; 'I' for Inactive)
REMARK    1  A    between atoms: C_1  and  O_2
REMARK    2  A    between atoms: O_2  and  C_3
REMARK    3  A    between atoms: C_5  and  N_6
REMARK    4  A    between atoms: N_9  and  C_10
REMARK    5  A    between atoms: N_13  and  C_14
REMARK    6  A    between atoms: C_20  and  C_21
REMARK    7  A    between atoms: C_23  and  C_24
REMARK                            x       y       z     vdW  Elec       q    Type
REMARK                         _______ _______ _______ _____ _____    ______ ____
ROOT
ATOM      1  C   UNL     1       0.491   9.987  19.079  0.00  0.00    +0.000 C 
ATOM      2  C   UNL     1       0.214   8.963  20.192  0.00  0.00    +0.000 C 
ATOM      3  C   UNL     1       1.475   8.281  20.686  0.00  0.00    +0.000 C 
ATOM      4  N   UNL     1       2.128   7.608  19.569  0.00  0.00    +0.000 N 
ATOM      5  C   UNL     1       2.434   8.413  18.384  0.00  0.00    +0.000 C 
ATOM      6  C   UNL     1       1.240   9.261  17.934  0.00  0.00    +0.000 C 
ENDROOT
BRANCH   4   7
ATOM      7  C   UNL     1       2.213   6.211  19.618  0.00  0.00    +0.000 A 
ATOM      8  C   UNL     1       1.445   5.569  20.614  0.00  0.00    +0.000 A 
ATOM      9  C   UNL     1       1.372   4.196  20.702  0.00  0.00    +0.000 A 
ATOM     10  C   UNL     1       2.117   3.433  19.823  0.00  0.00    +0.000 A 
ATOM     11  F   UNL     1       1.984   2.105  19.952  0.00  0.00    +0.000 F 
ATOM     12  C   UNL     1       2.957   4.002  18.836  0.00  0.00    +0.000 A 
ATOM     13  C   UNL     1       3.769   3.247  17.943  0.00  0.00    +0.000 A 
ATOM     14  C   UNL     1       3.930   1.749  17.965  0.00  0.00    +0.000 C 
ATOM     15  C   UNL     1       4.516   3.917  16.965  0.00  0.00    +0.000 A 
ATOM     16  C   UNL     1       4.457   5.299  16.895  0.00  0.00    +0.000 A 
ATOM     17  C   UNL     1       5.217   6.052  15.852  0.00  0.00    +0.000 C 
ATOM     18  N   UNL     1       3.709   6.021  17.746  0.00  0.00    +0.000 NA
ATOM     19  C   UNL     1       2.985   5.422  18.721  0.00  0.00    +0.000 A 
ENDBRANCH   4   7
BRANCH   1  23
ATOM     20  N   UNL     1      -0.878  13.233  20.751  0.00  0.00    +0.000 N 
ATOM     21  C   UNL     1      -0.987  12.981  19.309  0.00  0.00    +0.000 C 
ATOM     22  C   UNL     1       0.348  12.468  18.722  0.00  0.00    +0.000 C 
ATOM     23  N   UNL     1       0.958  11.340  19.454  0.00  0.00    +0.000 NA
ATOM     24  C   UNL     1       1.105  11.711  20.864  0.00  0.00    +0.000 C 
ATOM     25  C   UNL     1      -0.162  12.233  21.571  0.00  0.00    +0.000 C 
BRANCH  20  28
ATOM     26  C   UNL     1      -4.143  13.408  22.417  0.00  0.00    +0.000 A 
ATOM     27  C   UNL     1      -3.050  13.003  21.674  0.00  0.00    +0.000 A 
ATOM     28  C   UNL     1      -1.973  13.863  21.390  0.00  0.00    +0.000 A 
ATOM     29  C   UNL     1      -2.027  15.219  21.818  0.00  0.00    +0.000 A 
ATOM     30  N   UNL     1      -1.069  16.135  21.509  0.00  0.00    +0.000 NA
ATOM     31  C   UNL     1      -1.173  17.402  21.968  0.00  0.00    +0.000 A 
ATOM     32  C   UNL     1      -2.205  17.840  22.764  0.00  0.00    +0.000 A 
ATOM     33  C   UNL     1      -3.201  16.933  23.081  0.00  0.00    +0.000 A 
ATOM     34  C   UNL     1      -3.143  15.616  22.595  0.00  0.00    +0.000 A 
ATOM     35  C   UNL     1      -4.179  14.710  22.892  0.00  0.00    +0.000 A 
BRANCH  26  37
ATOM     36  C   UNL     1      -5.839  12.909  23.992  0.00  0.00    +0.000 C 
ATOM     37  O   UNL     1      -5.203  12.607  22.750  0.00  0.00    +0.000 OA
ENDBRANCH  26  37
ENDBRANCH  20  28
ENDBRANCH   1  23
TORSDOF 4
ENDMDL
MODEL 3
REMARK VINA RESULT:      -9.3      3.509     11.247
REMARK  Name = 
REMARK  7 active torsions:
REMARK  status: ('A' for Active; 'I' for Inactive)
REMARK    1  A    between atoms: C_1  and  O_2
REMARK    2  A    between atoms: O_2  and  C_3
REMARK    3  A    between atoms: C_5  and  N_6
REMARK    4  A    between atoms: N_9  and  C_10
REMARK    5  A    between atoms: N_13  and  C_14
REMARK    6  A    between atoms: C_20  and  C_21
REMARK    7  A    between atoms: C_23  and  C_24
REMARK                            x       y       z     vdW  Elec       q    Type
REMARK                         _______ _______ _______ _____ _____    ______ ____
ROOT
ATOM      1  C   UNL     1      -0.420   9.962  19.901  0.00  0.00    +0.000 C 
ATOM      2  C   UNL     1      -1.281  10.926  19.069  0.00  0.00    +0.000 C 
ATOM      3  C   UNL     1      -1.323  12.324  19.654  0.00  0.00    +0.000 C 
ATOM      4  N   UNL     1      -1.851  12.263  21.012  0.00  0.00    +0.000 N 
ATOM      5  C   UNL     1      -1.189  11.356  21.951  0.00  0.00    +0.000 C 
ATOM      6  C   UNL     1      -0.962   9.963  21.351  0.00  0.00    +0.000 C 
ENDROOT
BRANCH   4   7
ATOM      7  C   UNL     1      -3.075  12.897  21.257  0.00  0.00    +0.000 A 
ATOM      8  C   UNL     1      -4.138  12.574  20.385  0.00  0.00    +0.000 A 
ATOM      9  C   UNL     1      -5.412  13.060  20.581  0.00  0.00    +0.000 A 
ATOM     10  C   UNL     1      -5.637  13.932  21.629  0.00  0.00    +0.000 A 
ATOM     11  F   UNL     1      -6.902  14.351  21.773  0.00  0.00    +0.000 F 
ATOM     12  C   UNL     1      -4.612  14.352  22.510  0.00  0.00    +0.000 A 
ATOM     13  C   UNL     1      -4.799  15.281  23.572  0.00  0.00    +0.000 A 
ATOM     14  C   UNL     1      -6.077  16.021  23.868  0.00  0.00    +0.000 C 
ATOM     15  C   UNL     1      -3.723  15.577  24.420  0.00  0.00    +0.000 A 
ATOM     16  C   UNL     1      -2.499  14.969  24.199  0.00  0.00    +0.000 A 
ATOM     17  C   UNL     1      -1.332  15.237  25.094  0.00  0.00    +0.000 C 
ATOM     18  N   UNL     1      -2.308  14.106  23.187  0.00  0.00    +0.000 NA
ATOM     19  C   UNL     1      -3.310  13.802  22.329  0.00  0.00    +0.000 A 
ENDBRANCH   4   7
BRANCH   1  23
ATOM     20  N   UNL     1       2.448   7.569  18.777  0.00  0.00    +0.000 N 
ATOM     21  C   UNL     1       1.984   7.649  20.168  0.00  0.00    +0.000 C 
ATOM     22  C   UNL     1       1.829   9.116  20.630  0.00  0.00    +0.000 C 
ATOM     23  N   UNL     1       1.048   9.977  19.719  0.00  0.00    +0.000 NA
ATOM     24  C   UNL     1       1.631   9.900  18.377  0.00  0.00    +0.000 C 
ATOM     25  C   UNL     1       1.832   8.486  17.795  0.00  0.00    +0.000 C 
BRANCH  20  28
ATOM     26  C   UNL     1       1.902   4.047  17.906  0.00  0.00    +0.000 A 
ATOM     27  C   UNL     1       1.799   5.312  18.454  0.00  0.00    +0.000 A 
ATOM     28  C   UNL     1       2.793   6.292  18.275  0.00  0.00    +0.000 A 
ATOM     29  C   UNL     1       3.981   5.964  17.562  0.00  0.00    +0.000 A 
ATOM     30  N   UNL     1       5.024   6.827  17.420  0.00  0.00    +0.000 NA
ATOM     31  C   UNL     1       6.113   6.457  16.711  0.00  0.00    +0.000 A 
ATOM     32  C   UNL     1       6.239   5.236  16.090  0.00  0.00    +0.000 A 
ATOM     33  C   UNL     1       5.199   4.334  16.232  0.00  0.00    +0.000 A 
ATOM     34  C   UNL     1       4.064   4.672  16.989  0.00  0.00    +0.000 A 
ATOM     35  C   UNL     1       3.027   3.735  17.157  0.00  0.00    +0.000 A 
BRANCH  26  37
ATOM     36  C   UNL     1       1.076   2.220  19.166  0.00  0.00    +0.000 C 
ATOM     37  O   UNL     1       0.953   3.065  18.021  0.00  0.00    +0.000 OA
ENDBRANCH  26  37
ENDBRANCH  20  28
ENDBRANCH   1  23
TORSDOF 4
ENDMDL
MODEL 4
REMARK VINA RESULT:      -9.1      2.283      2.754
REMARK  Name = 
REMARK  7 active torsions:
REMARK  status: ('A' for Active; 'I' for Inactive)
REMARK    1  A    between atoms: C_1  and  O_2
REMARK    2  A    between atoms: O_2  and  C_3
REMARK    3  A    between atoms: C_5  and  N_6
REMARK    4  A    between atoms: N_9  and  C_10
REMARK    5  A    between atoms: N_13  and  C_14
REMARK    6  A    between atoms: C_20  and  C_21
REMARK    7  A    between atoms: C_23  and  C_24
REMARK                            x       y       z     vdW  Elec       q    Type
REMARK                         _______ _______ _______ _____ _____    ______ ____
ROOT
ATOM      1  C   UNL     1       0.713  10.013  19.339  0.00  0.00    +0.000 C 
ATOM      2  C   UNL     1       0.566   8.995  20.481  0.00  0.00    +0.000 C 
ATOM      3  C   UNL     1       1.833   8.197  20.720  0.00  0.00    +0.000 C 
ATOM      4  N   UNL     1       2.196   7.492  19.496  0.00  0.00    +0.000 N 
ATOM      5  C   UNL     1       2.338   8.290  18.277  0.00  0.00    +0.000 C 
ATOM      6  C   UNL     1       1.159   9.248  18.069  0.00  0.00    +0.000 C 
ENDROOT
BRANCH   4   7
ATOM      7  C   UNL     1       2.165   6.093  19.525  0.00  0.00    +0.000 A 
ATOM      8  C   UNL     1       1.276   5.502  20.450  0.00  0.00    +0.000 A 
ATOM      9  C   UNL     1       1.087   4.138  20.506  0.00  0.00    +0.000 A 
ATOM     10  C   UNL     1       1.831   3.329  19.670  0.00  0.00    +0.000 A 
ATOM     11  F   UNL     1       1.582   2.015  19.763  0.00  0.00    +0.000 F 
ATOM     12  C   UNL     1       2.784   3.840  18.757  0.00  0.00    +0.000 A 
ATOM     13  C   UNL     1       3.597   3.034  17.912  0.00  0.00    +0.000 A 
ATOM     14  C   UNL     1       3.635   1.527  17.917  0.00  0.00    +0.000 C 
ATOM     15  C   UNL     1       4.466   3.653  17.003  0.00  0.00    +0.000 A 
ATOM     16  C   UNL     1       4.524   5.036  16.956  0.00  0.00    +0.000 A 
ATOM     17  C   UNL     1       5.417   5.738  15.986  0.00  0.00    +0.000 C 
ATOM     18  N   UNL     1       3.775   5.805  17.764  0.00  0.00    +0.000 NA
ATOM     19  C   UNL     1       2.935   5.255  18.672  0.00  0.00    +0.000 A 
ENDBRANCH   4   7
BRANCH   1  23
ATOM     20  N   UNL     1      -0.269  13.726  20.015  0.00  0.00    +0.000 N 
ATOM     21  C   UNL     1      -0.062  13.197  18.661  0.00  0.00    +0.000 C 
ATOM     22  C   UNL     1       1.227  12.349  18.575  0.00  0.00    +0.000 C 
ATOM     23  N   UNL     1       1.362  11.313  19.619  0.00  0.00    +0.000 NA
ATOM     24  C   UNL     1       1.225  11.942  20.935  0.00  0.00    +0.000 C 
ATOM     25  C   UNL     1      -0.029  12.814  21.152  0.00  0.00    +0.000 C 
BRANCH  20  28
ATOM     26  C   UNL     1      -3.342  15.062  21.510  0.00  0.00    +0.000 A 
ATOM     27  C   UNL     1      -2.316  14.232  21.099  0.00  0.00    +0.000 A 
ATOM     28  C   UNL     1      -1.319  14.656  20.201  0.00  0.00    +0.000 A 
ATOM     29  C   UNL     1      -1.395  15.960  19.634  0.00  0.00    +0.000 A 
ATOM     30  N   UNL     1      -0.522  16.413  18.694  0.00  0.00    +0.000 NA
ATOM     31  C   UNL     1      -0.639  17.671  18.215  0.00  0.00    +0.000 A 
ATOM     32  C   UNL     1      -1.601  18.560  18.636  0.00  0.00    +0.000 A 
ATOM     33  C   UNL     1      -2.512  18.119  19.581  0.00  0.00    +0.000 A 
ATOM     34  C   UNL     1      -2.440  16.807  20.078  0.00  0.00    +0.000 A 
ATOM     35  C   UNL     1      -3.392  16.356  21.012  0.00  0.00    +0.000 A 
BRANCH  26  37
ATOM     36  C   UNL     1      -5.652  14.709  21.893  0.00  0.00    +0.000 C 
ATOM     37  O   UNL     1      -4.319  14.714  22.405  0.00  0.00    +0.000 OA
ENDBRANCH  26  37
ENDBRANCH  20  28
ENDBRANCH   1  23
TORSDOF 4
ENDMDL
MODEL 5
REMARK VINA RESULT:      -9.1      2.206      2.939
REMARK  Name = 
REMARK  7 active torsions:
REMARK  status: ('A' for Active; 'I' for Inactive)
REMARK    1  A    between atoms: C_1  and  O_2
REMARK    2  A    between atoms: O_2  and  C_3
REMARK    3  A    between atoms: C_5  and  N_6
REMARK    4  A    between atoms: N_9  and  C_10
REMARK    5  A    between atoms: N_13  and  C_14
REMARK    6  A    between atoms: C_20  and  C_21
REMARK    7  A    between atoms: C_23  and  C_24
REMARK                            x       y       z     vdW  Elec       q    Type
REMARK                         _______ _______ _______ _____ _____    ______ ____
ROOT
ATOM      1  C   UNL     1       0.596  10.080  19.315  0.00  0.00    +0.000 C 
ATOM      2  C   UNL     1       0.509   9.088  20.486  0.00  0.00    +0.000 C 
ATOM      3  C   UNL     1       1.808   8.342  20.718  0.00  0.00    +0.000 C 
ATOM      4  N   UNL     1       2.171   7.618  19.506  0.00  0.00    +0.000 N 
ATOM      5  C   UNL     1       2.260   8.387  18.263  0.00  0.00    +0.000 C 
ATOM      6  C   UNL     1       1.044   9.297  18.056  0.00  0.00    +0.000 C 
ENDROOT
BRANCH   4   7
ATOM      7  C   UNL     1       2.190   6.219  19.571  0.00  0.00    +0.000 A 
ATOM      8  C   UNL     1       1.375   5.625  20.560  0.00  0.00    +0.000 A 
ATOM      9  C   UNL     1       1.237   4.257  20.662  0.00  0.00    +0.000 A 
ATOM     10  C   UNL     1       1.961   3.451  19.804  0.00  0.00    +0.000 A 
ATOM     11  F   UNL     1       1.763   2.132  19.945  0.00  0.00    +0.000 F 
ATOM     12  C   UNL     1       2.843   3.969  18.827  0.00  0.00    +0.000 A 
ATOM     13  C   UNL     1       3.636   3.167  17.957  0.00  0.00    +0.000 A 
ATOM     14  C   UNL     1       3.726   1.664  17.998  0.00  0.00    +0.000 C 
ATOM     15  C   UNL     1       4.430   3.790  16.986  0.00  0.00    +0.000 A 
ATOM     16  C   UNL     1       4.437   5.172  16.900  0.00  0.00    +0.000 A 
ATOM     17  C   UNL     1       5.250   5.877  15.863  0.00  0.00    +0.000 C 
ATOM     18  N   UNL     1       3.708   5.938  17.730  0.00  0.00    +0.000 NA
ATOM     19  C   UNL     1       2.940   5.384  18.697  0.00  0.00    +0.000 A 
ENDBRANCH   4   7
BRANCH   1  23
ATOM     20  N   UNL     1      -0.498  13.733  20.129  0.00  0.00    +0.000 N 
ATOM     21  C   UNL     1      -0.398  13.226  18.755  0.00  0.00    +0.000 C 
ATOM     22  C   UNL     1       0.917  12.445  18.534  0.00  0.00    +0.000 C 
ATOM     23  N   UNL     1       1.204  11.408  19.547  0.00  0.00    +0.000 NA
ATOM     24  C   UNL     1       1.165  12.020  20.878  0.00  0.00    +0.000 C 
ATOM     25  C   UNL     1      -0.103  12.826  21.226  0.00  0.00    +0.000 C 
BRANCH  20  28
ATOM     26  C   UNL     1      -2.283  16.937  20.242  0.00  0.00    +0.000 A 
ATOM     27  C   UNL     1      -1.308  15.961  20.147  0.00  0.00    +0.000 A 
ATOM     28  C   UNL     1      -1.571  14.608  20.427  0.00  0.00    +0.000 A 
ATOM     29  C   UNL     1      -2.861  14.224  20.891  0.00  0.00    +0.000 A 
ATOM     30  N   UNL     1      -3.168  12.953  21.266  0.00  0.00    +0.000 NA
ATOM     31  C   UNL     1      -4.421  12.654  21.676  0.00  0.00    +0.000 A 
ATOM     32  C   UNL     1      -5.444  13.572  21.727  0.00  0.00    +0.000 A 
ATOM     33  C   UNL     1      -5.154  14.877  21.365  0.00  0.00    +0.000 A 
ATOM     34  C   UNL     1      -3.855  15.230  20.965  0.00  0.00    +0.000 A 
ATOM     35  C   UNL     1      -3.561  16.567  20.633  0.00  0.00    +0.000 A 
BRANCH  26  37
ATOM     36  C   UNL     1      -2.065  18.592  18.562  0.00  0.00    +0.000 C 
ATOM     37  O   UNL     1      -2.093  18.263  19.951  0.00  0.00    +0.000 OA
ENDBRANCH  26  37
ENDBRANCH  20  28
ENDBRANCH   1  23
TORSDOF 4
ENDMDL
MODEL 6
REMARK VINA RESULT:      -9.1      3.784     10.876
REMARK  Name = 
REMARK  7 active torsions:
REMARK  status: ('A' for Active; 'I' for Inactive)
REMARK    1  A    between atoms: C_1  and  O_2
REMARK    2  A    between atoms: O_2  and  C_3
REMARK    3  A    between atoms: C_5  and  N_6
REMARK    4  A    between atoms: N_9  and  C_10
REMARK    5  A    between atoms: N_13  and  C_14
REMARK    6  A    between atoms: C_20  and  C_21
REMARK    7  A    between atoms: C_23  and  C_24
REMARK                            x       y       z     vdW  Elec       q    Type
REMARK                         _______ _______ _______ _____ _____    ______ ____
ROOT
ATOM      1  C   UNL     1      -0.296   9.674  19.890  0.00  0.00    +0.000 C 
ATOM      2  C   UNL     1      -1.150  10.567  18.976  0.00  0.00    +0.000 C 
ATOM      3  C   UNL     1      -1.210  12.005  19.453  0.00  0.00    +0.000 C 
ATOM      4  N   UNL     1      -1.758  12.041  20.804  0.00  0.00    +0.000 N 
ATOM      5  C   UNL     1      -1.105  11.212  21.818  0.00  0.00    +0.000 C 
ATOM      6  C   UNL     1      -0.860   9.780  21.328  0.00  0.00    +0.000 C 
ENDROOT
BRANCH   4   7
ATOM      7  C   UNL     1      -2.990  12.684  20.983  0.00  0.00    +0.000 A 
ATOM      8  C   UNL     1      -3.141  13.435  22.169  0.00  0.00    +0.000 A 
ATOM      9  C   UNL     1      -4.270  14.187  22.414  0.00  0.00    +0.000 A 
ATOM     10  C   UNL     1      -5.301  14.157  21.494  0.00  0.00    +0.000 A 
ATOM     11  F   UNL     1      -6.359  14.926  21.784  0.00  0.00    +0.000 F 
ATOM     12  C   UNL     1      -5.249  13.382  20.310  0.00  0.00    +0.000 A 
ATOM     13  C   UNL     1      -6.309  13.295  19.363  0.00  0.00    +0.000 A 
ATOM     14  C   UNL     1      -7.666  13.933  19.511  0.00  0.00    +0.000 C 
ATOM     15  C   UNL     1      -6.123  12.543  18.195  0.00  0.00    +0.000 A 
ATOM     16  C   UNL     1      -4.917  11.892  17.993  0.00  0.00    +0.000 A 
ATOM     17  C   UNL     1      -4.667  11.100  16.751  0.00  0.00    +0.000 C 
ATOM     18  N   UNL     1      -3.919  11.952  18.891  0.00  0.00    +0.000 NA
ATOM     19  C   UNL     1      -4.057  12.649  20.043  0.00  0.00    +0.000 A 
ENDBRANCH   4   7
BRANCH   1  23
ATOM     20  N   UNL     1       2.577   7.294  18.754  0.00  0.00    +0.000 N 
ATOM     21  C   UNL     1       2.094   7.344  20.140  0.00  0.00    +0.000 C 
ATOM     22  C   UNL     1       1.939   8.801  20.632  0.00  0.00    +0.000 C 
ATOM     23  N   UNL     1       1.175   9.686  19.729  0.00  0.00    +0.000 NA
ATOM     24  C   UNL     1       1.776   9.637  18.394  0.00  0.00    +0.000 C 
ATOM     25  C   UNL     1       1.979   8.235  17.784  0.00  0.00    +0.000 C 
BRANCH  20  28
ATOM     26  C   UNL     1       2.056   3.770  17.873  0.00  0.00    +0.000 A 
ATOM     27  C   UNL     1       1.953   5.028  18.436  0.00  0.00    +0.000 A 
ATOM     28  C   UNL     1       2.923   6.026  18.228  0.00  0.00    +0.000 A 
ATOM     29  C   UNL     1       4.089   5.724  17.468  0.00  0.00    +0.000 A 
ATOM     30  N   UNL     1       5.112   6.604  17.295  0.00  0.00    +0.000 NA
ATOM     31  C   UNL     1       6.180   6.258  16.543  0.00  0.00    +0.000 A 
ATOM     32  C   UNL     1       6.302   5.044  15.907  0.00  0.00    +0.000 A 
ATOM     33  C   UNL     1       5.282   4.124  16.080  0.00  0.00    +0.000 A 
ATOM     34  C   UNL     1       4.172   4.438  16.881  0.00  0.00    +0.000 A 
ATOM     35  C   UNL     1       3.157   3.483  17.080  0.00  0.00    +0.000 A 
BRANCH  26  37
ATOM     36  C   UNL     1       0.627   2.579  19.339  0.00  0.00    +0.000 C 
ATOM     37  O   UNL     1       1.128   2.772  18.015  0.00  0.00    +0.000 OA
ENDBRANCH  26  37
ENDBRANCH  20  28
ENDBRANCH   1  23
TORSDOF 4
ENDMDL
MODEL 7
REMARK VINA RESULT:      -9.0      1.410      1.823
REMARK  Name = 
REMARK  7 active torsions:
REMARK  status: ('A' for Active; 'I' for Inactive)
REMARK    1  A    between atoms: C_1  and  O_2
REMARK    2  A    between atoms: O_2  and  C_3
REMARK    3  A    between atoms: C_5  and  N_6
REMARK    4  A    between atoms: N_9  and  C_10
REMARK    5  A    between atoms: N_13  and  C_14
REMARK    6  A    between atoms: C_20  and  C_21
REMARK    7  A    between atoms: C_23  and  C_24
REMARK                            x       y       z     vdW  Elec       q    Type
REMARK                         _______ _______ _______ _____ _____    ______ ____
ROOT
ATOM      1  C   UNL     1       0.561   9.050  20.574  0.00  0.00    +0.000 C 
ATOM      2  C   UNL     1       0.796   7.575  20.936  0.00  0.00    +0.000 C 
ATOM      3  C   UNL     1       2.218   7.126  20.666  0.00  0.00    +0.000 C 
ATOM      4  N   UNL     1       2.528   7.327  19.255  0.00  0.00    +0.000 N 
ATOM      5  C   UNL     1       2.321   8.667  18.705  0.00  0.00    +0.000 C 
ATOM      6  C   UNL     1       0.956   9.250  19.090  0.00  0.00    +0.000 C 
ENDROOT
BRANCH   4   7
ATOM      7  C   UNL     1       2.782   6.187  18.483  0.00  0.00    +0.000 A 
ATOM      8  C   UNL     1       1.734   5.246  18.384  0.00  0.00    +0.000 A 
ATOM      9  C   UNL     1       1.830   4.133  17.578  0.00  0.00    +0.000 A 
ATOM     10  C   UNL     1       3.009   3.908  16.894  0.00  0.00    +0.000 A 
ATOM     11  F   UNL     1       3.027   2.818  16.113  0.00  0.00    +0.000 F 
ATOM     12  C   UNL     1       4.127   4.771  16.988  0.00  0.00    +0.000 A 
ATOM     13  C   UNL     1       5.370   4.548  16.331  0.00  0.00    +0.000 A 
ATOM     14  C   UNL     1       5.718   3.330  15.515  0.00  0.00    +0.000 C 
ATOM     15  C   UNL     1       6.388   5.503  16.448  0.00  0.00    +0.000 A 
ATOM     16  C   UNL     1       6.167   6.639  17.210  0.00  0.00    +0.000 A 
ATOM     17  C   UNL     1       7.216   7.695  17.342  0.00  0.00    +0.000 C 
ATOM     18  N   UNL     1       5.004   6.849  17.850  0.00  0.00    +0.000 NA
ATOM     19  C   UNL     1       3.997   5.946  17.783  0.00  0.00    +0.000 A 
ENDBRANCH   4   7
BRANCH   1  23
ATOM     20  N   UNL     1      -0.979  12.085  22.479  0.00  0.00    +0.000 N 
ATOM     21  C   UNL     1      -0.402  12.207  21.134  0.00  0.00    +0.000 C 
ATOM     22  C   UNL     1       0.962  11.486  21.037  0.00  0.00    +0.000 C 
ATOM     23  N   UNL     1       0.970  10.096  21.537  0.00  0.00    +0.000 NA
ATOM     24  C   UNL     1       0.457  10.083  22.910  0.00  0.00    +0.000 C 
ATOM     25  C   UNL     1      -0.906  10.766  23.141  0.00  0.00    +0.000 C 
BRANCH  20  28
ATOM     26  C   UNL     1      -4.566  12.858  22.425  0.00  0.00    +0.000 A 
ATOM     27  C   UNL     1      -3.314  12.339  22.153  0.00  0.00    +0.000 A 
ATOM     28  C   UNL     1      -2.146  12.836  22.760  0.00  0.00    +0.000 A 
ATOM     29  C   UNL     1      -2.232  13.955  23.635  0.00  0.00    +0.000 A 
ATOM     30  N   UNL     1      -1.141  14.548  24.192  0.00  0.00    +0.000 NA
ATOM     31  C   UNL     1      -1.298  15.595  25.033  0.00  0.00    +0.000 A 
ATOM     32  C   UNL     1      -2.524  16.108  25.389  0.00  0.00    +0.000 A 
ATOM     33  C   UNL     1      -3.649  15.533  24.824  0.00  0.00    +0.000 A 
ATOM     34  C   UNL     1      -3.523  14.464  23.921  0.00  0.00    +0.000 A 
ATOM     35  C   UNL     1      -4.670  13.908  23.325  0.00  0.00    +0.000 A 
BRANCH  26  37
ATOM     36  C   UNL     1      -6.624  13.393  21.383  0.00  0.00    +0.000 C 
ATOM     37  O   UNL     1      -5.738  12.394  21.890  0.00  0.00    +0.000 OA
ENDBRANCH  26  37
ENDBRANCH  20  28
ENDBRANCH   1  23
TORSDOF 4
ENDMDL
MODEL 8
REMARK VINA RESULT:      -8.8      1.735      2.303
REMARK  Name = 
REMARK  7 active torsions:
REMARK  status: ('A' for Active; 'I' for Inactive)
REMARK    1  A    between atoms: C_1  and  O_2
REMARK    2  A    between atoms: O_2  and  C_3
REMARK    3  A    between atoms: C_5  and  N_6
REMARK    4  A    between atoms: N_9  and  C_10
REMARK    5  A    between atoms: N_13  and  C_14
REMARK    6  A    between atoms: C_20  and  C_21
REMARK    7  A    between atoms: C_23  and  C_24
REMARK                            x       y       z     vdW  Elec       q    Type
REMARK                         _______ _______ _______ _____ _____    ______ ____
ROOT
ATOM      1  C   UNL     1       0.470  10.011  19.344  0.00  0.00    +0.000 C 
ATOM      2  C   UNL     1       0.419   9.038  20.532  0.00  0.00    +0.000 C 
ATOM      3  C   UNL     1       1.747   8.352  20.784  0.00  0.00    +0.000 C 
ATOM      4  N   UNL     1       2.146   7.622  19.586  0.00  0.00    +0.000 N 
ATOM      5  C   UNL     1       2.209   8.372  18.330  0.00  0.00    +0.000 C 
ATOM      6  C   UNL     1       0.956   9.226  18.101  0.00  0.00    +0.000 C 
ENDROOT
BRANCH   4   7
ATOM      7  C   UNL     1       2.224   6.227  19.677  0.00  0.00    +0.000 A 
ATOM      8  C   UNL     1       1.457   5.619  20.695  0.00  0.00    +0.000 A 
ATOM      9  C   UNL     1       1.377   4.249  20.825  0.00  0.00    +0.000 A 
ATOM     10  C   UNL     1       2.113   3.456  19.966  0.00  0.00    +0.000 A 
ATOM     11  F   UNL     1       1.973   2.134  20.135  0.00  0.00    +0.000 F 
ATOM     12  C   UNL     1       2.951   3.991  18.958  0.00  0.00    +0.000 A 
ATOM     13  C   UNL     1       3.755   3.205  18.084  0.00  0.00    +0.000 A 
ATOM     14  C   UNL     1       3.908   1.707  18.150  0.00  0.00    +0.000 C 
ATOM     15  C   UNL     1       4.501   3.841  17.083  0.00  0.00    +0.000 A 
ATOM     16  C   UNL     1       4.449   5.220  16.972  0.00  0.00    +0.000 A 
ATOM     17  C   UNL     1       5.208   5.937  15.903  0.00  0.00    +0.000 C 
ATOM     18  N   UNL     1       3.709   5.972  17.805  0.00  0.00    +0.000 NA
ATOM     19  C   UNL     1       2.986   5.406  18.800  0.00  0.00    +0.000 A 
ENDBRANCH   4   7
BRANCH   1  23
ATOM     20  N   UNL     1      -0.681  13.501  20.649  0.00  0.00    +0.000 N 
ATOM     21  C   UNL     1      -0.831  13.093  19.246  0.00  0.00    +0.000 C 
ATOM     22  C   UNL     1       0.461  12.440  18.706  0.00  0.00    +0.000 C 
ATOM     23  N   UNL     1       1.020  11.368  19.555  0.00  0.00    +0.000 NA
ATOM     24  C   UNL     1       1.213  11.889  20.911  0.00  0.00    +0.000 C 
ATOM     25  C   UNL     1      -0.008  12.561  21.570  0.00  0.00    +0.000 C 
BRANCH  20  28
ATOM     26  C   UNL     1      -2.940  16.372  21.002  0.00  0.00    +0.000 A 
ATOM     27  C   UNL     1      -1.885  15.544  20.664  0.00  0.00    +0.000 A 
ATOM     28  C   UNL     1      -1.727  14.263  21.224  0.00  0.00    +0.000 A 
ATOM     29  C   UNL     1      -2.638  13.816  22.223  0.00  0.00    +0.000 A 
ATOM     30  N   UNL     1      -2.503  12.629  22.874  0.00  0.00    +0.000 NA
ATOM     31  C   UNL     1      -3.418  12.257  23.796  0.00  0.00    +0.000 A 
ATOM     32  C   UNL     1      -4.520  13.013  24.122  0.00  0.00    +0.000 A 
ATOM     33  C   UNL     1      -4.673  14.232  23.486  0.00  0.00    +0.000 A 
ATOM     34  C   UNL     1      -3.724  14.666  22.544  0.00  0.00    +0.000 A 
ATOM     35  C   UNL     1      -3.869  15.923  21.928  0.00  0.00    +0.000 A 
BRANCH  26  37
ATOM     36  C   UNL     1      -2.167  18.597  20.757  0.00  0.00    +0.000 C 
ATOM     37  O   UNL     1      -3.161  17.613  20.466  0.00  0.00    +0.000 OA
ENDBRANCH  26  37
ENDBRANCH  20  28
ENDBRANCH   1  23
TORSDOF 4
ENDMDL
MODEL 9
REMARK VINA RESULT:      -8.8      1.321      2.585
REMARK  Name = 
REMARK  7 active torsions:
REMARK  status: ('A' for Active; 'I' for Inactive)
REMARK    1  A    between atoms: C_1  and  O_2
REMARK    2  A    between atoms: O_2  and  C_3
REMARK    3  A    between atoms: C_5  and  N_6
REMARK    4  A    between atoms: N_9  and  C_10
REMARK    5  A    between atoms: N_13  and  C_14
REMARK    6  A    between atoms: C_20  and  C_21
REMARK    7  A    between atoms: C_23  and  C_24
REMARK                            x       y       z     vdW  Elec       q    Type
REMARK                         _______ _______ _______ _____ _____    ______ ____
ROOT
ATOM      1  C   UNL     1       0.423  10.068  18.972  0.00  0.00    +0.000 C 
ATOM      2  C   UNL     1       0.184   9.072  20.118  0.00  0.00    +0.000 C 
ATOM      3  C   UNL     1       1.461   8.402  20.586  0.00  0.00    +0.000 C 
ATOM      4  N   UNL     1       2.077   7.702  19.465  0.00  0.00    +0.000 N 
ATOM      5  C   UNL     1       2.343   8.477  18.251  0.00  0.00    +0.000 C 
ATOM      6  C   UNL     1       1.134   9.315  17.821  0.00  0.00    +0.000 C 
ENDROOT
BRANCH   4   7
ATOM      7  C   UNL     1       2.163   6.306  19.545  0.00  0.00    +0.000 A 
ATOM      8  C   UNL     1       1.381   5.684  20.542  0.00  0.00    +0.000 A 
ATOM      9  C   UNL     1       1.309   4.313  20.659  0.00  0.00    +0.000 A 
ATOM     10  C   UNL     1       2.069   3.533  19.809  0.00  0.00    +0.000 A 
ATOM     11  F   UNL     1       1.937   2.208  19.964  0.00  0.00    +0.000 F 
ATOM     12  C   UNL     1       2.924   4.082  18.823  0.00  0.00    +0.000 A 
ATOM     13  C   UNL     1       3.752   3.310  17.960  0.00  0.00    +0.000 A 
ATOM     14  C   UNL     1       3.915   1.814  18.017  0.00  0.00    +0.000 C 
ATOM     15  C   UNL     1       4.513   3.960  16.979  0.00  0.00    +0.000 A 
ATOM     16  C   UNL     1       4.452   5.340  16.879  0.00  0.00    +0.000 A 
ATOM     17  C   UNL     1       5.228   6.072  15.832  0.00  0.00    +0.000 C 
ATOM     18  N   UNL     1       3.689   6.079  17.702  0.00  0.00    +0.000 NA
ATOM     19  C   UNL     1       2.951   5.499  18.678  0.00  0.00    +0.000 A 
ENDBRANCH   4   7
BRANCH   1  23
ATOM     20  N   UNL     1      -0.726  13.211  20.975  0.00  0.00    +0.000 N 
ATOM     21  C   UNL     1      -1.094  12.991  19.570  0.00  0.00    +0.000 C 
ATOM     22  C   UNL     1       0.125  12.550  18.729  0.00  0.00    +0.000 C 
ATOM     23  N   UNL     1       0.903  11.430  19.297  0.00  0.00    +0.000 NA
ATOM     24  C   UNL     1       1.297  11.771  20.667  0.00  0.00    +0.000 C 
ATOM     25  C   UNL     1       0.166  12.222  21.614  0.00  0.00    +0.000 C 
BRANCH  20  28
ATOM     26  C   UNL     1      -2.000  15.386  23.641  0.00  0.00    +0.000 A 
ATOM     27  C   UNL     1      -1.186  14.637  22.813  0.00  0.00    +0.000 A 
ATOM     28  C   UNL     1      -1.705  13.778  21.826  0.00  0.00    +0.000 A 
ATOM     29  C   UNL     1      -3.114  13.613  21.710  0.00  0.00    +0.000 A 
ATOM     30  N   UNL     1      -3.690  12.738  20.842  0.00  0.00    +0.000 NA
ATOM     31  C   UNL     1      -5.037  12.649  20.768  0.00  0.00    +0.000 A 
ATOM     32  C   UNL     1      -5.893  13.418  21.522  0.00  0.00    +0.000 A 
ATOM     33  C   UNL     1      -5.332  14.305  22.424  0.00  0.00    +0.000 A 
ATOM     34  C   UNL     1      -3.936  14.402  22.551  0.00  0.00    +0.000 A 
ATOM     35  C   UNL     1      -3.375  15.282  23.496  0.00  0.00    +0.000 A 
BRANCH  26  37
ATOM     36  C   UNL     1      -1.606  15.787  25.942  0.00  0.00    +0.000 C 
ATOM     37  O   UNL     1      -1.551  16.261  24.596  0.00  0.00    +0.000 OA
ENDBRANCH  26  37
ENDBRANCH  20  28
ENDBRANCH   1  23
TORSDOF 4
ENDMDL
