MODEL 1
REMARK VINA RESULT:      -8.8      0.000      0.000
REMARK  Name = 
REMARK  7 active torsions:
REMARK  status: ('A' for Active; 'I' for Inactive)
REMARK    1  A    between atoms: C_1  and  O_2
REMARK    2  A    between atoms: O_2  and  C_3
REMARK    3  A    between atoms: C_9  and  C_10
REMARK    4  A    between atoms: C_10  and  C_11
REMARK    5  A    between atoms: N_20  and  C_21
REMARK    6  A    between atoms: C_21  and  C_22
REMARK    7  A    between atoms: C_22  and  C_23
REMARK                            x       y       z     vdW  Elec       q    Type
REMARK                         _______ _______ _______ _____ _____    ______ ____
ROOT
ATOM      1  C   UNL     1       1.676   8.365  18.930  0.00  0.00    +0.000 C 
ATOM      2  C   UNL     1       1.845   7.665  20.288  0.00  0.00    +0.000 C 
ATOM      3  N   UNL     1       0.947   8.117  21.330  0.00  0.00    +0.000 N 
ATOM      4  C   UNL     1       1.219   9.381  21.838  0.00  0.00    +0.000 C 
ATOM      5  O   UNL     1       1.928   9.554  22.812  0.00  0.00    +0.000 OA
ATOM      6  C   UNL     1       0.476  10.510  21.133  0.00  0.00    +0.000 C 
ATOM      7  N   UNL     1       0.239  10.172  19.732  0.00  0.00    +0.000 N 
ATOM      8  C   UNL     1      -0.888  10.716  19.127  0.00  0.00    +0.000 C 
ATOM      9  O   UNL     1      -1.728  11.367  19.740  0.00  0.00    +0.000 OA
ATOM     10  N   UNL     1      -1.014  10.429  17.777  0.00  0.00    +0.000 N 
ATOM     11  C   UNL     1       1.351   9.861  18.964  0.00  0.00    +0.000 C 
ATOM     12  O   UNL     1       1.854  10.698  18.220  0.00  0.00    +0.000 OA
ATOM     13  H   UNL     1      -0.032   7.967  21.103  0.00  0.00    +0.000 HD
ATOM     14  H   UNL     1      -0.139  10.506  17.266  0.00  0.00    +0.000 HD
ENDROOT
BRANCH   1  15
ATOM     15  C   UNL     1       2.815   8.022  17.944  0.00  0.00    +0.000 C 
BRANCH  15  22
ATOM     16  C   UNL     1       4.518   6.151  17.437  0.00  0.00    +0.000 A 
ATOM     17  C   UNL     1       4.825   4.780  17.430  0.00  0.00    +0.000 A 
ATOM     18  C   UNL     1       3.846   3.817  17.682  0.00  0.00    +0.000 A 
ATOM     19  C   UNL     1       2.551   4.220  17.958  0.00  0.00    +0.000 A 
ATOM     20 CL   UNL     1       1.330   3.044  18.240  0.00  0.00    +0.000 Cl
ATOM     21  C   UNL     1       2.244   5.576  18.026  0.00  0.00    +0.000 A 
ATOM     22  C   UNL     1       3.214   6.566  17.776  0.00  0.00    +0.000 A 
BRANCH  16  24
ATOM     23  C   UNL     1       6.817   6.697  17.314  0.00  0.00    +0.000 C 
ATOM     24  O   UNL     1       5.457   7.116  17.171  0.00  0.00    +0.000 OA
ENDBRANCH  16  24
ENDBRANCH  15  22
ENDBRANCH   1  15
BRANCH  10  25
ATOM     25  C   UNL     1      -2.183  10.912  17.060  0.00  0.00    +0.000 C 
BRANCH  25  26
ATOM     26  C   UNL     1      -3.385   9.980  17.214  0.00  0.00    +0.000 C 
BRANCH  26  27
ATOM     27  C   UNL     1      -4.658  10.739  17.494  0.00  0.00    +0.000 A 
ATOM     28  C   UNL     1      -4.923  11.945  16.829  0.00  0.00    +0.000 A 
ATOM     29  C   UNL     1      -6.091  12.660  17.094  0.00  0.00    +0.000 A 
ATOM     30  C   UNL     1      -7.005  12.182  18.030  0.00  0.00    +0.000 A 
ATOM     31  C   UNL     1      -6.750  10.988  18.703  0.00  0.00    +0.000 A 
ATOM     32  C   UNL     1      -5.582  10.270  18.439  0.00  0.00    +0.000 A 
ENDBRANCH  26  27
ENDBRANCH  25  26
ENDBRANCH  10  25
TORSDOF 6
ENDMDL
MODEL 2
REMARK VINA RESULT:      -8.6      4.000      8.810
REMARK  Name = 
REMARK  7 active torsions:
REMARK  status: ('A' for Active; 'I' for Inactive)
REMARK    1  A    between atoms: C_1  and  O_2
REMARK    2  A    between atoms: O_2  and  C_3
REMARK    3  A    between atoms: C_9  and  C_10
REMARK    4  A    between atoms: C_10  and  C_11
REMARK    5  A    between atoms: N_20  and  C_21
REMARK    6  A    between atoms: C_21  and  C_22
REMARK    7  A    between atoms: C_22  and  C_23
REMARK                            x       y       z     vdW  Elec       q    Type
REMARK                         _______ _______ _______ _____ _____    ______ ____
ROOT
ATOM      1  C   UNL     1      -0.870  11.312  20.906  0.00  0.00    +0.000 C 
ATOM      2  C   UNL     1      -1.789  12.349  20.238  0.00  0.00    +0.000 C 
ATOM      3  N   UNL     1      -1.475  12.651  18.857  0.00  0.00    +0.000 N 
ATOM      4  C   UNL     1      -0.323  13.404  18.664  0.00  0.00    +0.000 C 
ATOM      5  O   UNL     1      -0.342  14.619  18.596  0.00  0.00    +0.000 OA
ATOM      6  C   UNL     1       0.936  12.573  18.448  0.00  0.00    +0.000 C 
ATOM      7  N   UNL     1       0.842  11.302  19.162  0.00  0.00    +0.000 N 
ATOM      8  C   UNL     1       1.525  10.217  18.624  0.00  0.00    +0.000 C 
ATOM      9  O   UNL     1       2.103  10.259  17.542  0.00  0.00    +0.000 OA
ATOM     10  N   UNL     1       1.467   9.063  19.388  0.00  0.00    +0.000 N 
ATOM     11  C   UNL     1       0.613  11.364  20.528  0.00  0.00    +0.000 C 
ATOM     12  O   UNL     1       1.537  11.239  21.326  0.00  0.00    +0.000 OA
ATOM     13  H   UNL     1      -1.544  11.841  18.248  0.00  0.00    +0.000 HD
ATOM     14  H   UNL     1       1.589   9.232  20.383  0.00  0.00    +0.000 HD
ENDROOT
BRANCH   1  15
ATOM     15  C   UNL     1      -1.097  11.220  22.431  0.00  0.00    +0.000 C 
BRANCH  15  22
ATOM     16  C   UNL     1      -1.363  13.614  23.356  0.00  0.00    +0.000 A 
ATOM     17  C   UNL     1      -2.206  14.609  23.879  0.00  0.00    +0.000 A 
ATOM     18  C   UNL     1      -3.526  14.328  24.232  0.00  0.00    +0.000 A 
ATOM     19  C   UNL     1      -4.022  13.048  24.051  0.00  0.00    +0.000 A 
ATOM     20 CL   UNL     1      -5.637  12.682  24.510  0.00  0.00    +0.000 Cl
ATOM     21  C   UNL     1      -3.218  12.066  23.481  0.00  0.00    +0.000 A 
ATOM     22  C   UNL     1      -1.882  12.325  23.116  0.00  0.00    +0.000 A 
BRANCH  16  24
ATOM     23  C   UNL     1       0.158  15.010  22.201  0.00  0.00    +0.000 C 
ATOM     24  O   UNL     1      -0.055  13.858  23.022  0.00  0.00    +0.000 OA
ENDBRANCH  16  24
ENDBRANCH  15  22
ENDBRANCH   1  15
BRANCH  10  25
ATOM     25  C   UNL     1       2.111   7.857  18.894  0.00  0.00    +0.000 C 
BRANCH  25  26
ATOM     26  C   UNL     1       2.330   6.821  19.997  0.00  0.00    +0.000 C 
BRANCH  26  27
ATOM     27  C   UNL     1       1.920   5.435  19.563  0.00  0.00    +0.000 A 
ATOM     28  C   UNL     1       2.113   5.024  18.236  0.00  0.00    +0.000 A 
ATOM     29  C   UNL     1       1.722   3.751  17.824  0.00  0.00    +0.000 A 
ATOM     30  C   UNL     1       1.131   2.874  18.732  0.00  0.00    +0.000 A 
ATOM     31  C   UNL     1       0.928   3.273  20.051  0.00  0.00    +0.000 A 
ATOM     32  C   UNL     1       1.318   4.548  20.467  0.00  0.00    +0.000 A 
ENDBRANCH  26  27
ENDBRANCH  25  26
ENDBRANCH  10  25
TORSDOF 6
ENDMDL
MODEL 3
REMARK VINA RESULT:      -8.5      0.488      1.007
REMARK  Name = 
REMARK  7 active torsions:
REMARK  status: ('A' for Active; 'I' for Inactive)
REMARK    1  A    between atoms: C_1  and  O_2
REMARK    2  A    between atoms: O_2  and  C_3
REMARK    3  A    between atoms: C_9  and  C_10
REMARK    4  A    between atoms: C_10  and  C_11
REMARK    5  A    between atoms: N_20  and  C_21
REMARK    6  A    between atoms: C_21  and  C_22
REMARK    7  A    between atoms: C_22  and  C_23
REMARK                            x       y       z     vdW  Elec       q    Type
REMARK                         _______ _______ _______ _____ _____    ______ ____
ROOT
ATOM      1  C   UNL     1       1.578   8.067  19.038  0.00  0.00    +0.000 C 
ATOM      2  C   UNL     1       1.737   7.481  20.450  0.00  0.00    +0.000 C 
ATOM      3  N   UNL     1       0.906   8.089  21.468  0.00  0.00    +0.000 N 
ATOM      4  C   UNL     1       1.285   9.370  21.852  0.00  0.00    +0.000 C 
ATOM      5  O   UNL     1       2.035   9.576  22.788  0.00  0.00    +0.000 OA
ATOM      6  C   UNL     1       0.605  10.484  21.064  0.00  0.00    +0.000 C 
ATOM      7  N   UNL     1       0.300  10.041  19.706  0.00  0.00    +0.000 N 
ATOM      8  C   UNL     1      -0.802  10.611  19.081  0.00  0.00    +0.000 C 
ATOM      9  O   UNL     1      -1.574  11.376  19.653  0.00  0.00    +0.000 OA
ATOM     10  N   UNL     1      -0.991  10.215  17.767  0.00  0.00    +0.000 N 
ATOM     11  C   UNL     1       1.363   9.580  18.943  0.00  0.00    +0.000 C 
ATOM     12  O   UNL     1       1.902  10.307  18.113  0.00  0.00    +0.000 OA
ATOM     13  H   UNL     1      -0.087   7.993  21.279  0.00  0.00    +0.000 HD
ATOM     14  H   UNL     1      -0.129  10.181  17.230  0.00  0.00    +0.000 HD
ENDROOT
BRANCH   1  15
ATOM     15  C   UNL     1       2.657   7.552  18.060  0.00  0.00    +0.000 C 
BRANCH  15  22
ATOM     16  C   UNL     1       4.326   5.586  17.982  0.00  0.00    +0.000 A 
ATOM     17  C   UNL     1       4.565   4.210  18.138  0.00  0.00    +0.000 A 
ATOM     18  C   UNL     1       3.514   3.309  18.316  0.00  0.00    +0.000 A 
ATOM     19  C   UNL     1       2.213   3.778  18.353  0.00  0.00    +0.000 A 
ATOM     20 CL   UNL     1       0.908   2.675  18.540  0.00  0.00    +0.000 Cl
ATOM     21  C   UNL     1       1.964   5.145  18.258  0.00  0.00    +0.000 A 
ATOM     22  C   UNL     1       3.007   6.075  18.079  0.00  0.00    +0.000 A 
BRANCH  16  24
ATOM     23  C   UNL     1       5.941   6.455  16.487  0.00  0.00    +0.000 C 
ATOM     24  O   UNL     1       5.339   6.491  17.784  0.00  0.00    +0.000 OA
ENDBRANCH  16  24
ENDBRANCH  15  22
ENDBRANCH   1  15
BRANCH  10  25
ATOM     25  C   UNL     1      -2.143  10.719  17.037  0.00  0.00    +0.000 C 
BRANCH  25  26
ATOM     26  C   UNL     1      -3.382   9.845  17.234  0.00  0.00    +0.000 C 
BRANCH  26  27
ATOM     27  C   UNL     1      -4.617  10.667  17.509  0.00  0.00    +0.000 A 
ATOM     28  C   UNL     1      -5.562  10.231  18.449  0.00  0.00    +0.000 A 
ATOM     29  C   UNL     1      -6.713  10.978  18.697  0.00  0.00    +0.000 A 
ATOM     30  C   UNL     1      -6.936  12.167  18.006  0.00  0.00    +0.000 A 
ATOM     31  C   UNL     1      -6.008  12.608  17.064  0.00  0.00    +0.000 A 
ATOM     32  C   UNL     1      -4.854  11.862  16.814  0.00  0.00    +0.000 A 
ENDBRANCH  26  27
ENDBRANCH  25  26
ENDBRANCH  10  25
TORSDOF 6
ENDMDL
MODEL 4
REMARK VINA RESULT:      -8.4      3.289      5.188
REMARK  Name = 
REMARK  7 active torsions:
REMARK  status: ('A' for Active; 'I' for Inactive)
REMARK    1  A    between atoms: C_1  and  O_2
REMARK    2  A    between atoms: O_2  and  C_3
REMARK    3  A    between atoms: C_9  and  C_10
REMARK    4  A    between atoms: C_10  and  C_11
REMARK    5  A    between atoms: N_20  and  C_21
REMARK    6  A    between atoms: C_21  and  C_22
REMARK    7  A    between atoms: C_22  and  C_23
REMARK                            x       y       z     vdW  Elec       q    Type
REMARK                         _______ _______ _______ _____ _____    ______ ____
ROOT
ATOM      1  C   UNL     1       3.622   3.748  18.560  0.00  0.00    +0.000 C 
ATOM      2  C   UNL     1       2.689   2.585  18.934  0.00  0.00    +0.000 C 
ATOM      3  N   UNL     1       1.496   2.963  19.664  0.00  0.00    +0.000 N 
ATOM      4  C   UNL     1       1.708   3.344  20.983  0.00  0.00    +0.000 C 
ATOM      5  O   UNL     1       1.643   2.557  21.908  0.00  0.00    +0.000 OA
ATOM      6  C   UNL     1       1.926   4.841  21.171  0.00  0.00    +0.000 C 
ATOM      7  N   UNL     1       2.559   5.421  19.990  0.00  0.00    +0.000 N 
ATOM      8  C   UNL     1       2.280   6.752  19.705  0.00  0.00    +0.000 C 
ATOM      9  O   UNL     1       1.457   7.412  20.333  0.00  0.00    +0.000 OA
ATOM     10  N   UNL     1       2.974   7.269  18.624  0.00  0.00    +0.000 N 
ATOM     11  C   UNL     1       3.769   4.870  19.592  0.00  0.00    +0.000 C 
ATOM     12  O   UNL     1       4.831   5.410  19.884  0.00  0.00    +0.000 OA
ATOM     13  H   UNL     1       0.896   3.595  19.144  0.00  0.00    +0.000 HD
ATOM     14  H   UNL     1       3.952   6.994  18.605  0.00  0.00    +0.000 HD
ENDROOT
BRANCH   1  15
ATOM     15  C   UNL     1       4.981   3.260  18.010  0.00  0.00    +0.000 C 
BRANCH  15  22
ATOM     16  C   UNL     1       6.631   4.890  16.880  0.00  0.00    +0.000 A 
ATOM     17  C   UNL     1       7.194   5.395  15.696  0.00  0.00    +0.000 A 
ATOM     18  C   UNL     1       6.678   5.053  14.445  0.00  0.00    +0.000 A 
ATOM     19  C   UNL     1       5.599   4.190  14.366  0.00  0.00    +0.000 A 
ATOM     20 CL   UNL     1       4.934   3.787  12.834  0.00  0.00    +0.000 Cl
ATOM     21  C   UNL     1       5.066   3.636  15.527  0.00  0.00    +0.000 A 
ATOM     22  C   UNL     1       5.570   3.965  16.801  0.00  0.00    +0.000 A 
BRANCH  16  24
ATOM     23  C   UNL     1       7.676   6.536  18.221  0.00  0.00    +0.000 C 
ATOM     24  O   UNL     1       7.105   5.227  18.123  0.00  0.00    +0.000 OA
ENDBRANCH  16  24
ENDBRANCH  15  22
ENDBRANCH   1  15
BRANCH  10  25
ATOM     25  C   UNL     1       2.720   8.641  18.213  0.00  0.00    +0.000 C 
BRANCH  25  26
ATOM     26  C   UNL     1       1.383   8.790  17.486  0.00  0.00    +0.000 C 
BRANCH  26  27
ATOM     27  C   UNL     1       0.500   9.829  18.132  0.00  0.00    +0.000 A 
ATOM     28  C   UNL     1       1.025  10.703  19.095  0.00  0.00    +0.000 A 
ATOM     29  C   UNL     1       0.211  11.655  19.709  0.00  0.00    +0.000 A 
ATOM     30  C   UNL     1      -1.138  11.742  19.370  0.00  0.00    +0.000 A 
ATOM     31  C   UNL     1      -1.673  10.875  18.419  0.00  0.00    +0.000 A 
ATOM     32  C   UNL     1      -0.860   9.921  17.804  0.00  0.00    +0.000 A 
ENDBRANCH  26  27
ENDBRANCH  25  26
ENDBRANCH  10  25
TORSDOF 6
ENDMDL
MODEL 5
REMARK VINA RESULT:      -8.3      1.586      2.134
REMARK  Name = 
REMARK  7 active torsions:
REMARK  status: ('A' for Active; 'I' for Inactive)
REMARK    1  A    between atoms: C_1  and  O_2
REMARK    2  A    between atoms: O_2  and  C_3
REMARK    3  A    between atoms: C_9  and  C_10
REMARK    4  A    between atoms: C_10  and  C_11
REMARK    5  A    between atoms: N_20  and  C_21
REMARK    6  A    between atoms: C_21  and  C_22
REMARK    7  A    between atoms: C_22  and  C_23
REMARK                            x       y       z     vdW  Elec       q    Type
REMARK                         _______ _______ _______ _____ _____    ______ ____
ROOT
ATOM      1  C   UNL     1       1.792   8.136  18.775  0.00  0.00    +0.000 C 
ATOM      2  C   UNL     1       2.029   7.453  20.132  0.00  0.00    +0.000 C 
ATOM      3  N   UNL     1       1.191   7.925  21.214  0.00  0.00    +0.000 N 
ATOM      4  C   UNL     1       1.499   9.194  21.690  0.00  0.00    +0.000 C 
ATOM      5  O   UNL     1       2.261   9.374  22.621  0.00  0.00    +0.000 OA
ATOM      6  C   UNL     1       0.726  10.318  21.010  0.00  0.00    +0.000 C 
ATOM      7  N   UNL     1       0.412   9.964  19.628  0.00  0.00    +0.000 N 
ATOM      8  C   UNL     1      -0.743  10.508  19.078  0.00  0.00    +0.000 C 
ATOM      9  O   UNL     1      -1.544  11.174  19.727  0.00  0.00    +0.000 OA
ATOM     10  N   UNL     1      -0.943  10.204  17.741  0.00  0.00    +0.000 N 
ATOM     11  C   UNL     1       1.479   9.635  18.806  0.00  0.00    +0.000 C 
ATOM     12  O   UNL     1       1.947  10.458  18.025  0.00  0.00    +0.000 OA
ATOM     13  H   UNL     1       0.201   7.779  21.042  0.00  0.00    +0.000 HD
ATOM     14  H   UNL     1      -0.096  10.268  17.183  0.00  0.00    +0.000 HD
ENDROOT
BRANCH   1  15
ATOM     15  C   UNL     1       2.873   7.772  17.734  0.00  0.00    +0.000 C 
BRANCH  15  22
ATOM     16  C   UNL     1       3.213   5.220  17.909  0.00  0.00    +0.000 A 
ATOM     17  C   UNL     1       4.098   4.134  18.015  0.00  0.00    +0.000 A 
ATOM     18  C   UNL     1       5.460   4.329  18.252  0.00  0.00    +0.000 A 
ATOM     19  C   UNL     1       5.952   5.617  18.371  0.00  0.00    +0.000 A 
ATOM     20 CL   UNL     1       7.621   5.870  18.694  0.00  0.00    +0.000 Cl
ATOM     21  C   UNL     1       5.099   6.705  18.211  0.00  0.00    +0.000 A 
ATOM     22  C   UNL     1       3.721   6.534  17.971  0.00  0.00    +0.000 A 
BRANCH  16  24
ATOM     23  C   UNL     1       1.321   3.826  18.188  0.00  0.00    +0.000 C 
ATOM     24  O   UNL     1       1.867   5.055  17.698  0.00  0.00    +0.000 OA
ENDBRANCH  16  24
ENDBRANCH  15  22
ENDBRANCH   1  15
BRANCH  10  25
ATOM     25  C   UNL     1      -2.145  10.686  17.081  0.00  0.00    +0.000 C 
BRANCH  25  26
ATOM     26  C   UNL     1      -3.360   9.803  17.369  0.00  0.00    +0.000 C 
BRANCH  26  27
ATOM     27  C   UNL     1      -4.617  10.615  17.566  0.00  0.00    +0.000 A 
ATOM     28  C   UNL     1      -4.796  11.819  16.871  0.00  0.00    +0.000 A 
ATOM     29  C   UNL     1      -5.948  12.583  17.059  0.00  0.00    +0.000 A 
ATOM     30  C   UNL     1      -6.932  12.153  17.946  0.00  0.00    +0.000 A 
ATOM     31  C   UNL     1      -6.763  10.961  18.648  0.00  0.00    +0.000 A 
ATOM     32  C   UNL     1      -5.610  10.195  18.461  0.00  0.00    +0.000 A 
ENDBRANCH  26  27
ENDBRANCH  25  26
ENDBRANCH  10  25
TORSDOF 6
ENDMDL
MODEL 6
REMARK VINA RESULT:      -8.3      4.370      9.669
REMARK  Name = 
REMARK  7 active torsions:
REMARK  status: ('A' for Active; 'I' for Inactive)
REMARK    1  A    between atoms: C_1  and  O_2
REMARK    2  A    between atoms: O_2  and  C_3
REMARK    3  A    between atoms: C_9  and  C_10
REMARK    4  A    between atoms: C_10  and  C_11
REMARK    5  A    between atoms: N_20  and  C_21
REMARK    6  A    between atoms: C_21  and  C_22
REMARK    7  A    between atoms: C_22  and  C_23
REMARK                            x       y       z     vdW  Elec       q    Type
REMARK                         _______ _______ _______ _____ _____    ______ ____
ROOT
ATOM      1  C   UNL     1       3.415   7.065  18.209  0.00  0.00    +0.000 C 
ATOM      2  C   UNL     1       2.773   5.856  18.908  0.00  0.00    +0.000 C 
ATOM      3  N   UNL     1       3.671   4.754  19.183  0.00  0.00    +0.000 N 
ATOM      4  C   UNL     1       4.067   4.023  18.069  0.00  0.00    +0.000 C 
ATOM      5  O   UNL     1       3.470   3.031  17.695  0.00  0.00    +0.000 OA
ATOM      6  C   UNL     1       5.359   4.515  17.427  0.00  0.00    +0.000 C 
ATOM      7  N   UNL     1       5.511   5.955  17.617  0.00  0.00    +0.000 N 
ATOM      8  C   UNL     1       6.806   6.457  17.681  0.00  0.00    +0.000 C 
ATOM      9  O   UNL     1       7.801   5.739  17.692  0.00  0.00    +0.000 OA
ATOM     10  N   UNL     1       6.886   7.837  17.776  0.00  0.00    +0.000 N 
ATOM     11  C   UNL     1       4.482   6.761  17.153  0.00  0.00    +0.000 C 
ATOM     12  O   UNL     1       4.573   7.338  16.073  0.00  0.00    +0.000 OA
ATOM     13  H   UNL     1       4.436   5.010  19.800  0.00  0.00    +0.000 HD
ATOM     14  H   UNL     1       6.239   8.321  17.160  0.00  0.00    +0.000 HD
ENDROOT
BRANCH   1  15
ATOM     15  C   UNL     1       2.367   8.091  17.724  0.00  0.00    +0.000 C 
BRANCH  15  22
ATOM     16  C   UNL     1       1.746  10.421  18.644  0.00  0.00    +0.000 A 
ATOM     17  C   UNL     1       1.020  11.189  19.569  0.00  0.00    +0.000 A 
ATOM     18  C   UNL     1       0.339  10.591  20.631  0.00  0.00    +0.000 A 
ATOM     19  C   UNL     1       0.368   9.214  20.769  0.00  0.00    +0.000 A 
ATOM     20 CL   UNL     1      -0.440   8.467  22.089  0.00  0.00    +0.000 Cl
ATOM     21  C   UNL     1       1.035   8.435  19.828  0.00  0.00    +0.000 A 
ATOM     22  C   UNL     1       1.730   9.015  18.747  0.00  0.00    +0.000 A 
BRANCH  16  24
ATOM     23  C   UNL     1       2.749  12.374  17.761  0.00  0.00    +0.000 C 
ATOM     24  O   UNL     1       2.442  10.985  17.604  0.00  0.00    +0.000 OA
ENDBRANCH  16  24
ENDBRANCH  15  22
ENDBRANCH   1  15
BRANCH  10  25
ATOM     25  C   UNL     1       8.194   8.460  17.896  0.00  0.00    +0.000 C 
BRANCH  25  26
ATOM     26  C   UNL     1       8.119   9.985  17.815  0.00  0.00    +0.000 C 
BRANCH  26  27
ATOM     27  C   UNL     1       9.281  10.647  18.515  0.00  0.00    +0.000 A 
ATOM     28  C   UNL     1       9.287  10.772  19.911  0.00  0.00    +0.000 A 
ATOM     29  C   UNL     1      10.350  11.397  20.563  0.00  0.00    +0.000 A 
ATOM     30  C   UNL     1      11.418  11.906  19.827  0.00  0.00    +0.000 A 
ATOM     31  C   UNL     1      11.420  11.794  18.438  0.00  0.00    +0.000 A 
ATOM     32  C   UNL     1      10.357  11.169  17.783  0.00  0.00    +0.000 A 
ENDBRANCH  26  27
ENDBRANCH  25  26
ENDBRANCH  10  25
TORSDOF 6
ENDMDL
MODEL 7
REMARK VINA RESULT:      -8.2      4.163      9.234
REMARK  Name = 
REMARK  7 active torsions:
REMARK  status: ('A' for Active; 'I' for Inactive)
REMARK    1  A    between atoms: C_1  and  O_2
REMARK    2  A    between atoms: O_2  and  C_3
REMARK    3  A    between atoms: C_9  and  C_10
REMARK    4  A    between atoms: C_10  and  C_11
REMARK    5  A    between atoms: N_20  and  C_21
REMARK    6  A    between atoms: C_21  and  C_22
REMARK    7  A    between atoms: C_22  and  C_23
REMARK                            x       y       z     vdW  Elec       q    Type
REMARK                         _______ _______ _______ _____ _____    ______ ____
ROOT
ATOM      1  C   UNL     1      -1.073  11.416  21.023  0.00  0.00    +0.000 C 
ATOM      2  C   UNL     1      -1.963  12.377  20.220  0.00  0.00    +0.000 C 
ATOM      3  N   UNL     1      -1.586  12.551  18.832  0.00  0.00    +0.000 N 
ATOM      4  C   UNL     1      -0.430  13.291  18.622  0.00  0.00    +0.000 C 
ATOM      5  O   UNL     1      -0.449  14.494  18.439  0.00  0.00    +0.000 OA
ATOM      6  C   UNL     1       0.841  12.452  18.543  0.00  0.00    +0.000 C 
ATOM      7  N   UNL     1       0.718  11.253  19.368  0.00  0.00    +0.000 N 
ATOM      8  C   UNL     1       1.428  10.128  18.968  0.00  0.00    +0.000 C 
ATOM      9  O   UNL     1       2.056  10.073  17.914  0.00  0.00    +0.000 OA
ATOM     10  N   UNL     1       1.339   9.051  19.834  0.00  0.00    +0.000 N 
ATOM     11  C   UNL     1       0.426  11.442  20.711  0.00  0.00    +0.000 C 
ATOM     12  O   UNL     1       1.313  11.400  21.558  0.00  0.00    +0.000 OA
ATOM     13  H   UNL     1      -1.625  11.687  18.299  0.00  0.00    +0.000 HD
ATOM     14  H   UNL     1       1.415   9.314  20.812  0.00  0.00    +0.000 HD
ENDROOT
BRANCH   1  15
ATOM     15  C   UNL     1      -1.369  11.465  22.539  0.00  0.00    +0.000 C 
BRANCH  15  22
ATOM     16  C   UNL     1      -2.955  13.017  23.856  0.00  0.00    +0.000 A 
ATOM     17  C   UNL     1      -3.161  14.245  24.507  0.00  0.00    +0.000 A 
ATOM     18  C   UNL     1      -2.226  15.278  24.420  0.00  0.00    +0.000 A 
ATOM     19  C   UNL     1      -1.066  15.086  23.690  0.00  0.00    +0.000 A 
ATOM     20 CL   UNL     1       0.079  16.360  23.550  0.00  0.00    +0.000 Cl
ATOM     21  C   UNL     1      -0.820  13.856  23.087  0.00  0.00    +0.000 A 
ATOM     22  C   UNL     1      -1.748  12.798  23.161  0.00  0.00    +0.000 A 
BRANCH  16  24
ATOM     23  C   UNL     1      -5.049  12.271  24.666  0.00  0.00    +0.000 C 
ATOM     24  O   UNL     1      -3.868  11.994  23.907  0.00  0.00    +0.000 OA
ENDBRANCH  16  24
ENDBRANCH  15  22
ENDBRANCH   1  15
BRANCH  10  25
ATOM     25  C   UNL     1       2.009   7.808  19.485  0.00  0.00    +0.000 C 
BRANCH  25  26
ATOM     26  C   UNL     1       1.740   6.699  20.503  0.00  0.00    +0.000 C 
BRANCH  26  27
ATOM     27  C   UNL     1       1.631   5.344  19.847  0.00  0.00    +0.000 A 
ATOM     28  C   UNL     1       2.010   5.174  18.508  0.00  0.00    +0.000 A 
ATOM     29  C   UNL     1       1.896   3.928  17.891  0.00  0.00    +0.000 A 
ATOM     30  C   UNL     1       1.400   2.839  18.604  0.00  0.00    +0.000 A 
ATOM     31  C   UNL     1       1.013   2.997  19.934  0.00  0.00    +0.000 A 
ATOM     32  C   UNL     1       1.126   4.243  20.554  0.00  0.00    +0.000 A 
ENDBRANCH  26  27
ENDBRANCH  25  26
ENDBRANCH  10  25
TORSDOF 6
ENDMDL
MODEL 8
REMARK VINA RESULT:      -8.1      3.633      8.997
REMARK  Name = 
REMARK  7 active torsions:
REMARK  status: ('A' for Active; 'I' for Inactive)
REMARK    1  A    between atoms: C_1  and  O_2
REMARK    2  A    between atoms: O_2  and  C_3
REMARK    3  A    between atoms: C_9  and  C_10
REMARK    4  A    between atoms: C_10  and  C_11
REMARK    5  A    between atoms: N_20  and  C_21
REMARK    6  A    between atoms: C_21  and  C_22
REMARK    7  A    between atoms: C_22  and  C_23
REMARK                            x       y       z     vdW  Elec       q    Type
REMARK                         _______ _______ _______ _____ _____    ______ ____
ROOT
ATOM      1  C   UNL     1       2.286   6.608  19.879  0.00  0.00    +0.000 C 
ATOM      2  C   UNL     1       1.184   5.906  20.689  0.00  0.00    +0.000 C 
ATOM      3  N   UNL     1       1.470   4.536  21.061  0.00  0.00    +0.000 N 
ATOM      4  C   UNL     1       1.422   3.618  20.018  0.00  0.00    +0.000 C 
ATOM      5  O   UNL     1       0.413   3.000  19.738  0.00  0.00    +0.000 OA
ATOM      6  C   UNL     1       2.763   3.389  19.328  0.00  0.00    +0.000 C 
ATOM      7  N   UNL     1       3.583   4.597  19.383  0.00  0.00    +0.000 N 
ATOM      8  C   UNL     1       4.963   4.430  19.397  0.00  0.00    +0.000 C 
ATOM      9  O   UNL     1       5.503   3.330  19.470  0.00  0.00    +0.000 OA
ATOM     10  N   UNL     1       5.687   5.610  19.364  0.00  0.00    +0.000 N 
ATOM     11  C   UNL     1       3.033   5.753  18.851  0.00  0.00    +0.000 C 
ATOM     12  O   UNL     1       3.335   6.131  17.723  0.00  0.00    +0.000 OA
ATOM     13  H   UNL     1       2.293   4.447  21.649  0.00  0.00    +0.000 HD
ATOM     14  H   UNL     1       5.315   6.292  18.708  0.00  0.00    +0.000 HD
ENDROOT
BRANCH   1  15
ATOM     15  C   UNL     1       1.822   7.965  19.306  0.00  0.00    +0.000 C 
BRANCH  15  22
ATOM     16  C   UNL     1       0.138   9.877  19.711  0.00  0.00    +0.000 A 
ATOM     17  C   UNL     1      -0.656  10.604  20.615  0.00  0.00    +0.000 A 
ATOM     18  C   UNL     1      -0.533  10.422  21.994  0.00  0.00    +0.000 A 
ATOM     19  C   UNL     1       0.377   9.500  22.481  0.00  0.00    +0.000 A 
ATOM     20 CL   UNL     1       0.559   9.290  24.177  0.00  0.00    +0.000 Cl
ATOM     21  C   UNL     1       1.128   8.731  21.597  0.00  0.00    +0.000 A 
ATOM     22  C   UNL     1       1.023   8.896  20.202  0.00  0.00    +0.000 A 
BRANCH  16  24
ATOM     23  C   UNL     1      -1.250  10.386  17.863  0.00  0.00    +0.000 C 
ATOM     24  O   UNL     1       0.053  10.052  18.353  0.00  0.00    +0.000 OA
ENDBRANCH  16  24
ENDBRANCH  15  22
ENDBRANCH   1  15
BRANCH  10  25
ATOM     25  C   UNL     1       7.138   5.549  19.421  0.00  0.00    +0.000 C 
BRANCH  25  26
ATOM     26  C   UNL     1       7.791   6.063  18.137  0.00  0.00    +0.000 C 
BRANCH  26  27
ATOM     27  C   UNL     1       7.049   5.611  16.904  0.00  0.00    +0.000 A 
ATOM     28  C   UNL     1       6.146   6.474  16.266  0.00  0.00    +0.000 A 
ATOM     29  C   UNL     1       5.444   6.057  15.135  0.00  0.00    +0.000 A 
ATOM     30  C   UNL     1       5.633   4.773  14.630  0.00  0.00    +0.000 A 
ATOM     31  C   UNL     1       6.522   3.903  15.259  0.00  0.00    +0.000 A 
ATOM     32  C   UNL     1       7.226   4.318  16.392  0.00  0.00    +0.000 A 
ENDBRANCH  26  27
ENDBRANCH  25  26
ENDBRANCH  10  25
TORSDOF 6
ENDMDL
MODEL 9
REMARK VINA RESULT:      -8.0      4.642      9.754
REMARK  Name = 
REMARK  7 active torsions:
REMARK  status: ('A' for Active; 'I' for Inactive)
REMARK    1  A    between atoms: C_1  and  O_2
REMARK    2  A    between atoms: O_2  and  C_3
REMARK    3  A    between atoms: C_9  and  C_10
REMARK    4  A    between atoms: C_10  and  C_11
REMARK    5  A    between atoms: N_20  and  C_21
REMARK    6  A    between atoms: C_21  and  C_22
REMARK    7  A    between atoms: C_22  and  C_23
REMARK                            x       y       z     vdW  Elec       q    Type
REMARK                         _______ _______ _______ _____ _____    ______ ____
ROOT
ATOM      1  C   UNL     1       3.327   7.217  18.493  0.00  0.00    +0.000 C 
ATOM      2  C   UNL     1       2.687   6.216  19.468  0.00  0.00    +0.000 C 
ATOM      3  N   UNL     1       3.582   5.202  19.985  0.00  0.00    +0.000 N 
ATOM      4  C   UNL     1       3.955   4.223  19.073  0.00  0.00    +0.000 C 
ATOM      5  O   UNL     1       3.346   3.176  18.953  0.00  0.00    +0.000 OA
ATOM      6  C   UNL     1       5.241   4.535  18.315  0.00  0.00    +0.000 C 
ATOM      7  N   UNL     1       5.406   5.977  18.154  0.00  0.00    +0.000 N 
ATOM      8  C   UNL     1       6.705   6.466  18.081  0.00  0.00    +0.000 C 
ATOM      9  O   UNL     1       7.696   5.761  18.249  0.00  0.00    +0.000 OA
ATOM     10  N   UNL     1       6.796   7.828  17.843  0.00  0.00    +0.000 N 
ATOM     11  C   UNL     1       4.376   6.660  17.525  0.00  0.00    +0.000 C 
ATOM     12  O   UNL     1       4.455   6.963  16.338  0.00  0.00    +0.000 OA
ATOM     13  H   UNL     1       4.358   5.589  20.514  0.00  0.00    +0.000 HD
ATOM     14  H   UNL     1       6.143   8.158  17.138  0.00  0.00    +0.000 HD
ENDROOT
BRANCH   1  15
ATOM     15  C   UNL     1       2.280   8.110  17.791  0.00  0.00    +0.000 C 
BRANCH  15  22
ATOM     16  C   UNL     1       1.117   9.479  19.644  0.00  0.00    +0.000 A 
ATOM     17  C   UNL     1       0.901  10.725  20.256  0.00  0.00    +0.000 A 
ATOM     18  C   UNL     1       1.361  11.907  19.674  0.00  0.00    +0.000 A 
ATOM     19  C   UNL     1       2.056  11.852  18.479  0.00  0.00    +0.000 A 
ATOM     20 CL   UNL     1       2.601  13.303  17.736  0.00  0.00    +0.000 Cl
ATOM     21  C   UNL     1       2.329  10.621  17.889  0.00  0.00    +0.000 A 
ATOM     22  C   UNL     1       1.875   9.414  18.457  0.00  0.00    +0.000 A 
BRANCH  16  24
ATOM     23  C   UNL     1       0.338   8.359  21.577  0.00  0.00    +0.000 C 
ATOM     24  O   UNL     1       0.657   8.304  20.183  0.00  0.00    +0.000 OA
ENDBRANCH  16  24
ENDBRANCH  15  22
ENDBRANCH   1  15
BRANCH  10  25
ATOM     25  C   UNL     1       8.110   8.448  17.794  0.00  0.00    +0.000 C 
BRANCH  25  26
ATOM     26  C   UNL     1       8.029   9.974  17.738  0.00  0.00    +0.000 C 
BRANCH  26  27
ATOM     27  C   UNL     1       9.185  10.629  18.455  0.00  0.00    +0.000 A 
ATOM     28  C   UNL     1       9.234  10.637  19.856  0.00  0.00    +0.000 A 
ATOM     29  C   UNL     1      10.290  11.254  20.526  0.00  0.00    +0.000 A 
ATOM     30  C   UNL     1      11.308  11.874  19.803  0.00  0.00    +0.000 A 
ATOM     31  C   UNL     1      11.267  11.879  18.410  0.00  0.00    +0.000 A 
ATOM     32  C   UNL     1      10.210  11.261  17.737  0.00  0.00    +0.000 A 
ENDBRANCH  26  27
ENDBRANCH  25  26
ENDBRANCH  10  25
TORSDOF 6
ENDMDL
