MODEL 1
REMARK VINA RESULT:      -7.4      0.000      0.000
REMARK  Name = 
REMARK  9 active torsions:
REMARK  status: ('A' for Active; 'I' for Inactive)
REMARK    1  A    between atoms: C_1  and  C_2
REMARK    2  A    between atoms: C_2  and  O_3
REMARK    3  A    between atoms: C_2  and  C_4
REMARK    4  A    between atoms: C_2  and  C_32
REMARK    5  A    between atoms: C_5  and  C_6
REMARK    6  A    between atoms: C_19  and  C_20
REMARK    7  A    between atoms: C_23  and  C_24
REMARK    8  A    between atoms: C_26  and  C_27
REMARK    9  A    between atoms: C_32  and  O_33
REMARK                            x       y       z     vdW  Elec       q    Type
REMARK                         _______ _______ _______ _____ _____    ______ ____
ROOT
ATOM      1  C   UNL     1       2.649   6.926  18.931  0.00  0.00    +0.000 A 
ATOM      2  C   UNL     1       2.167   8.235  18.994  0.00  0.00    +0.000 A 
ATOM      3  C   UNL     1       1.252   8.641  19.997  0.00  0.00    +0.000 A 
ATOM      4  C   UNL     1       0.823   7.694  20.940  0.00  0.00    +0.000 A 
ATOM      5  C   UNL     1       1.274   6.369  20.834  0.00  0.00    +0.000 A 
ATOM      6  C   UNL     1       2.181   5.995  19.850  0.00  0.00    +0.000 A 
ATOM      7  F   UNL     1       2.604   4.723  19.816  0.00  0.00    +0.000 F 
ATOM      8  O   UNL     1      -0.005   7.848  22.012  0.00  0.00    +0.000 OA
ATOM      9  C   UNL     1      -0.383   9.118  22.540  0.00  0.00    +0.000 C 
ATOM     10  C   UNL     1       0.665  10.212  22.451  0.00  0.00    +0.000 C 
ATOM     11  N   UNL     1       0.628  10.797  21.125  0.00  0.00    +0.000 N 
ATOM     12  C   UNL     1       0.849  10.051  19.989  0.00  0.00    +0.000 A 
ATOM     13  N   UNL     1       0.710  10.811  18.916  0.00  0.00    +0.000 NA
ATOM     14  C   UNL     1       0.432  12.089  19.376  0.00  0.00    +0.000 A 
ATOM     15  C   UNL     1       0.363  12.097  20.762  0.00  0.00    +0.000 A 
ENDROOT
BRANCH  15  16
ATOM     16  C   UNL     1       0.017  13.155  21.655  0.00  0.00    +0.000 A 
ATOM     17  N   UNL     1      -1.148  13.295  22.246  0.00  0.00    +0.000 NA
ATOM     18  C   UNL     1      -1.044  14.520  22.855  0.00  0.00    +0.000 A 
ATOM     19  N   UNL     1       0.144  15.117  22.730  0.00  0.00    +0.000 NA
ATOM     20  N   UNL     1       0.797  14.239  21.950  0.00  0.00    +0.000 N 
ATOM     21  H   UNL     1       1.724  14.459  21.593  0.00  0.00    +0.000 HD
BRANCH  18  22
ATOM     22  C   UNL     1      -2.205  15.181  23.572  0.00  0.00    +0.000 C 
ATOM     23  C   UNL     1      -2.984  14.360  24.581  0.00  0.00    +0.000 C 
ATOM     24  C   UNL     1      -2.078  15.442  25.059  0.00  0.00    +0.000 C 
ENDBRANCH  18  22
ENDBRANCH  15  16
BRANCH  14  25
ATOM     25  C   UNL     1       0.205  13.218  18.479  0.00  0.00    +0.000 C 
ATOM     26  N   UNL     1      -0.806  13.037  17.585  0.00  0.00    +0.000 N 
ATOM     27  O   UNL     1       0.848  14.266  18.518  0.00  0.00    +0.000 OA
ATOM     28  H   UNL     1      -1.320  12.164  17.574  0.00  0.00    +0.000 HD
ATOM     29  H   UNL     1      -1.032  13.774  16.933  0.00  0.00    +0.000 HD
ENDBRANCH  14  25
BRANCH   1  31
ATOM     30  C   UNL     1       4.516   6.194  17.068  0.00  0.00    +0.000 C 
ATOM     31  C   UNL     1       3.619   6.550  17.946  0.00  0.00    +0.000 C 
BRANCH  30  33
ATOM     32  C   UNL     1       5.311   4.341  15.598  0.00  0.00    +0.000 C 
ATOM     33  C   UNL     1       5.561   5.778  16.045  0.00  0.00    +0.000 C 
BRANCH  33  34
ATOM     34  O   UNL     1       5.459   6.654  14.918  0.00  0.00    +0.000 OA
ATOM     35  H   UNL     1       6.348   6.703  14.525  0.00  0.00    +0.000 HD
ENDBRANCH  33  34
BRANCH  33  36
ATOM     36  C   UNL     1       6.978   5.924  16.642  0.00  0.00    +0.000 C 
BRANCH  36  37
ATOM     37  O   UNL     1       7.635   4.658  16.764  0.00  0.00    +0.000 OA
ATOM     38  H   UNL     1       7.476   4.373  17.684  0.00  0.00    +0.000 HD
ENDBRANCH  36  37
ENDBRANCH  33  36
ENDBRANCH  30  33
ENDBRANCH   1  31
TORSDOF 8
ENDMDL
MODEL 2
REMARK VINA RESULT:      -7.1      0.998      1.056
REMARK  Name = 
REMARK  9 active torsions:
REMARK  status: ('A' for Active; 'I' for Inactive)
REMARK    1  A    between atoms: C_1  and  C_2
REMARK    2  A    between atoms: C_2  and  O_3
REMARK    3  A    between atoms: C_2  and  C_4
REMARK    4  A    between atoms: C_2  and  C_32
REMARK    5  A    between atoms: C_5  and  C_6
REMARK    6  A    between atoms: C_19  and  C_20
REMARK    7  A    between atoms: C_23  and  C_24
REMARK    8  A    between atoms: C_26  and  C_27
REMARK    9  A    between atoms: C_32  and  O_33
REMARK                            x       y       z     vdW  Elec       q    Type
REMARK                         _______ _______ _______ _____ _____    ______ ____
ROOT
ATOM      1  C   UNL     1       2.945   6.350  18.887  0.00  0.00    +0.000 A 
ATOM      2  C   UNL     1       2.570   7.696  18.922  0.00  0.00    +0.000 A 
ATOM      3  C   UNL     1       1.601   8.171  19.840  0.00  0.00    +0.000 A 
ATOM      4  C   UNL     1       1.007   7.257  20.725  0.00  0.00    +0.000 A 
ATOM      5  C   UNL     1       1.353   5.899  20.643  0.00  0.00    +0.000 A 
ATOM      6  C   UNL     1       2.315   5.456  19.743  0.00  0.00    +0.000 A 
ATOM      7  F   UNL     1       2.632   4.153  19.731  0.00  0.00    +0.000 F 
ATOM      8  O   UNL     1       0.095   7.474  21.716  0.00  0.00    +0.000 OA
ATOM      9  C   UNL     1      -0.223   8.768  22.225  0.00  0.00    +0.000 C 
ATOM     10  C   UNL     1       0.916   9.769  22.251  0.00  0.00    +0.000 C 
ATOM     11  N   UNL     1       1.055  10.365  20.936  0.00  0.00    +0.000 N 
ATOM     12  C   UNL     1       1.320   9.610  19.815  0.00  0.00    +0.000 A 
ATOM     13  N   UNL     1       1.348  10.386  18.745  0.00  0.00    +0.000 NA
ATOM     14  C   UNL     1       1.135  11.679  19.196  0.00  0.00    +0.000 A 
ATOM     15  C   UNL     1       0.936  11.685  20.568  0.00  0.00    +0.000 A 
ENDROOT
BRANCH  15  16
ATOM     16  C   UNL     1       0.596  12.762  21.441  0.00  0.00    +0.000 A 
ATOM     17  N   UNL     1      -0.448  12.788  22.238  0.00  0.00    +0.000 NA
ATOM     18  C   UNL     1      -0.430  14.068  22.732  0.00  0.00    +0.000 A 
ATOM     19  N   UNL     1       0.603  14.815  22.337  0.00  0.00    +0.000 NA
ATOM     20  N   UNL     1       1.234  13.970  21.504  0.00  0.00    +0.000 N 
ATOM     21  H   UNL     1       2.032  14.286  20.957  0.00  0.00    +0.000 HD
BRANCH  18  22
ATOM     22  C   UNL     1      -1.529  14.621  23.619  0.00  0.00    +0.000 C 
ATOM     23  C   UNL     1      -2.824  15.062  22.963  0.00  0.00    +0.000 C 
ATOM     24  C   UNL     1      -2.801  13.814  23.778  0.00  0.00    +0.000 C 
ENDBRANCH  18  22
ENDBRANCH  15  16
BRANCH  14  25
ATOM     25  C   UNL     1       1.090  12.830  18.298  0.00  0.00    +0.000 C 
ATOM     26  N   UNL     1       2.231  13.034  17.582  0.00  0.00    +0.000 N 
ATOM     27  O   UNL     1       0.109  13.560  18.166  0.00  0.00    +0.000 OA
ATOM     28  H   UNL     1       3.024  12.418  17.709  0.00  0.00    +0.000 HD
ATOM     29  H   UNL     1       2.279  13.805  16.932  0.00  0.00    +0.000 HD
ENDBRANCH  14  25
BRANCH   1  31
ATOM     30  C   UNL     1       4.908   5.518  17.170  0.00  0.00    +0.000 C 
ATOM     31  C   UNL     1       3.969   5.900  17.991  0.00  0.00    +0.000 C 
BRANCH  30  33
ATOM     32  C   UNL     1       5.526   3.875  15.397  0.00  0.00    +0.000 C 
ATOM     33  C   UNL     1       6.002   5.073  16.214  0.00  0.00    +0.000 C 
BRANCH  33  34
ATOM     34  O   UNL     1       6.302   6.161  15.336  0.00  0.00    +0.000 OA
ATOM     35  H   UNL     1       5.453   6.465  14.970  0.00  0.00    +0.000 HD
ENDBRANCH  33  34
BRANCH  33  36
ATOM     36  C   UNL     1       7.285   4.720  16.999  0.00  0.00    +0.000 C 
BRANCH  36  37
ATOM     37  O   UNL     1       6.984   4.149  18.277  0.00  0.00    +0.000 OA
ATOM     38  H   UNL     1       6.657   3.249  18.087  0.00  0.00    +0.000 HD
ENDBRANCH  36  37
ENDBRANCH  33  36
ENDBRANCH  30  33
ENDBRANCH   1  31
TORSDOF 8
ENDMDL
MODEL 3
REMARK VINA RESULT:      -6.9      1.214      1.431
REMARK  Name = 
REMARK  9 active torsions:
REMARK  status: ('A' for Active; 'I' for Inactive)
REMARK    1  A    between atoms: C_1  and  C_2
REMARK    2  A    between atoms: C_2  and  O_3
REMARK    3  A    between atoms: C_2  and  C_4
REMARK    4  A    between atoms: C_2  and  C_32
REMARK    5  A    between atoms: C_5  and  C_6
REMARK    6  A    between atoms: C_19  and  C_20
REMARK    7  A    between atoms: C_23  and  C_24
REMARK    8  A    between atoms: C_26  and  C_27
REMARK    9  A    between atoms: C_32  and  O_33
REMARK                            x       y       z     vdW  Elec       q    Type
REMARK                         _______ _______ _______ _____ _____    ______ ____
ROOT
ATOM      1  C   UNL     1       2.937   6.145  19.042  0.00  0.00    +0.000 A 
ATOM      2  C   UNL     1       2.607   7.503  19.044  0.00  0.00    +0.000 A 
ATOM      3  C   UNL     1       1.597   8.019  19.893  0.00  0.00    +0.000 A 
ATOM      4  C   UNL     1       0.914   7.133  20.742  0.00  0.00    +0.000 A 
ATOM      5  C   UNL     1       1.218   5.764  20.691  0.00  0.00    +0.000 A 
ATOM      6  C   UNL     1       2.221   5.281  19.860  0.00  0.00    +0.000 A 
ATOM      7  F   UNL     1       2.493   3.968  19.877  0.00  0.00    +0.000 F 
ATOM      8  O   UNL     1      -0.053   7.389  21.669  0.00  0.00    +0.000 OA
ATOM      9  C   UNL     1      -0.359   8.698  22.148  0.00  0.00    +0.000 C 
ATOM     10  C   UNL     1       0.810   9.659  22.244  0.00  0.00    +0.000 C 
ATOM     11  N   UNL     1       1.056  10.239  20.937  0.00  0.00    +0.000 N 
ATOM     12  C   UNL     1       1.368   9.466  19.840  0.00  0.00    +0.000 A 
ATOM     13  N   UNL     1       1.494  10.232  18.770  0.00  0.00    +0.000 NA
ATOM     14  C   UNL     1       1.296  11.536  19.198  0.00  0.00    +0.000 A 
ATOM     15  C   UNL     1       1.007  11.559  20.554  0.00  0.00    +0.000 A 
ENDROOT
BRANCH  15  16
ATOM     16  C   UNL     1       0.647  12.655  21.396  0.00  0.00    +0.000 A 
ATOM     17  N   UNL     1      -0.362  12.663  22.236  0.00  0.00    +0.000 NA
ATOM     18  C   UNL     1      -0.391  13.963  22.676  0.00  0.00    +0.000 A 
ATOM     19  N   UNL     1       0.585  14.742  22.206  0.00  0.00    +0.000 NA
ATOM     20  N   UNL     1       1.224  13.895  21.381  0.00  0.00    +0.000 N 
ATOM     21  H   UNL     1       1.982  14.227  20.789  0.00  0.00    +0.000 HD
BRANCH  18  22
ATOM     22  C   UNL     1      -1.480  14.497  23.585  0.00  0.00    +0.000 C 
ATOM     23  C   UNL     1      -2.732  15.067  22.946  0.00  0.00    +0.000 C 
ATOM     24  C   UNL     1      -2.798  13.753  23.646  0.00  0.00    +0.000 C 
ENDBRANCH  18  22
ENDBRANCH  15  16
BRANCH  14  25
ATOM     25  C   UNL     1       1.351  12.679  18.292  0.00  0.00    +0.000 C 
ATOM     26  N   UNL     1       2.451  12.715  17.490  0.00  0.00    +0.000 N 
ATOM     27  O   UNL     1       0.479  13.545  18.226  0.00  0.00    +0.000 OA
ATOM     28  H   UNL     1       3.154  11.989  17.565  0.00  0.00    +0.000 HD
ATOM     29  H   UNL     1       2.561  13.470  16.829  0.00  0.00    +0.000 HD
ENDBRANCH  14  25
BRANCH   1  31
ATOM     30  C   UNL     1       4.989   5.208  17.493  0.00  0.00    +0.000 C 
ATOM     31  C   UNL     1       4.002   5.653  18.219  0.00  0.00    +0.000 C 
BRANCH  30  33
ATOM     32  C   UNL     1       7.440   4.740  17.443  0.00  0.00    +0.000 C 
ATOM     33  C   UNL     1       6.140   4.689  16.646  0.00  0.00    +0.000 C 
BRANCH  33  34
ATOM     34  O   UNL     1       5.855   3.335  16.282  0.00  0.00    +0.000 OA
ATOM     35  H   UNL     1       4.925   3.315  15.997  0.00  0.00    +0.000 HD
ENDBRANCH  33  34
BRANCH  33  36
ATOM     36  C   UNL     1       6.264   5.520  15.349  0.00  0.00    +0.000 C 
BRANCH  36  37
ATOM     37  O   UNL     1       7.543   5.346  14.729  0.00  0.00    +0.000 OA
ATOM     38  H   UNL     1       8.196   5.481  15.442  0.00  0.00    +0.000 HD
ENDBRANCH  36  37
ENDBRANCH  33  36
ENDBRANCH  30  33
ENDBRANCH   1  31
TORSDOF 8
ENDMDL
MODEL 4
REMARK VINA RESULT:      -6.9      0.901      1.178
REMARK  Name = 
REMARK  9 active torsions:
REMARK  status: ('A' for Active; 'I' for Inactive)
REMARK    1  A    between atoms: C_1  and  C_2
REMARK    2  A    between atoms: C_2  and  O_3
REMARK    3  A    between atoms: C_2  and  C_4
REMARK    4  A    between atoms: C_2  and  C_32
REMARK    5  A    between atoms: C_5  and  C_6
REMARK    6  A    between atoms: C_19  and  C_20
REMARK    7  A    between atoms: C_23  and  C_24
REMARK    8  A    between atoms: C_26  and  C_27
REMARK    9  A    between atoms: C_32  and  O_33
REMARK                            x       y       z     vdW  Elec       q    Type
REMARK                         _______ _______ _______ _____ _____    ______ ____
ROOT
ATOM      1  C   UNL     1       2.702   6.891  18.931  0.00  0.00    +0.000 A 
ATOM      2  C   UNL     1       2.181   8.187  18.960  0.00  0.00    +0.000 A 
ATOM      3  C   UNL     1       1.260   8.594  19.957  0.00  0.00    +0.000 A 
ATOM      4  C   UNL     1       0.866   7.661  20.930  0.00  0.00    +0.000 A 
ATOM      5  C   UNL     1       1.356   6.348  20.859  0.00  0.00    +0.000 A 
ATOM      6  C   UNL     1       2.267   5.973  19.880  0.00  0.00    +0.000 A 
ATOM      7  F   UNL     1       2.728   4.714  19.879  0.00  0.00    +0.000 F 
ATOM      8  O   UNL     1       0.040   7.822  22.003  0.00  0.00    +0.000 OA
ATOM      9  C   UNL     1      -0.372   9.095  22.498  0.00  0.00    +0.000 C 
ATOM     10  C   UNL     1       0.642  10.216  22.370  0.00  0.00    +0.000 C 
ATOM     11  N   UNL     1       0.579  10.762  21.028  0.00  0.00    +0.000 N 
ATOM     12  C   UNL     1       0.815   9.990  19.912  0.00  0.00    +0.000 A 
ATOM     13  N   UNL     1       0.647  10.714  18.819  0.00  0.00    +0.000 NA
ATOM     14  C   UNL     1       0.334  11.996  19.245  0.00  0.00    +0.000 A 
ATOM     15  C   UNL     1       0.273  12.043  20.630  0.00  0.00    +0.000 A 
ENDROOT
BRANCH  15  16
ATOM     16  C   UNL     1      -0.099  13.115  21.496  0.00  0.00    +0.000 A 
ATOM     17  N   UNL     1       0.558  14.245  21.625  0.00  0.00    +0.000 NA
ATOM     18  C   UNL     1      -0.086  14.862  22.668  0.00  0.00    +0.000 A 
ATOM     19  N   UNL     1      -1.146  14.207  23.147  0.00  0.00    +0.000 NA
ATOM     20  N   UNL     1      -1.126  13.091  22.398  0.00  0.00    +0.000 N 
ATOM     21  H   UNL     1      -1.773  12.330  22.592  0.00  0.00    +0.000 HD
BRANCH  18  22
ATOM     22  C   UNL     1       0.396  16.165  23.274  0.00  0.00    +0.000 C 
ATOM     23  C   UNL     1      -0.347  17.438  22.920  0.00  0.00    +0.000 C 
ATOM     24  C   UNL     1      -0.490  16.861  24.286  0.00  0.00    +0.000 C 
ENDBRANCH  18  22
ENDBRANCH  15  16
BRANCH  14  25
ATOM     25  C   UNL     1       0.068  13.092  18.318  0.00  0.00    +0.000 C 
ATOM     26  N   UNL     1      -1.013  12.901  17.510  0.00  0.00    +0.000 N 
ATOM     27  O   UNL     1       0.738  14.123  18.262  0.00  0.00    +0.000 OA
ATOM     28  H   UNL     1      -1.547  12.044  17.576  0.00  0.00    +0.000 HD
ATOM     29  H   UNL     1      -1.269  13.616  16.845  0.00  0.00    +0.000 HD
ENDBRANCH  14  25
BRANCH   1  31
ATOM     30  C   UNL     1       4.573   6.156  17.074  0.00  0.00    +0.000 C 
ATOM     31  C   UNL     1       3.676   6.516  17.950  0.00  0.00    +0.000 C 
BRANCH  30  33
ATOM     32  C   UNL     1       5.383   4.290  15.629  0.00  0.00    +0.000 C 
ATOM     33  C   UNL     1       5.619   5.736  16.054  0.00  0.00    +0.000 C 
BRANCH  33  34
ATOM     34  O   UNL     1       5.505   6.594  14.915  0.00  0.00    +0.000 OA
ATOM     35  H   UNL     1       4.803   6.220  14.355  0.00  0.00    +0.000 HD
ENDBRANCH  33  34
BRANCH  33  36
ATOM     36  C   UNL     1       7.037   5.905  16.643  0.00  0.00    +0.000 C 
BRANCH  36  37
ATOM     37  O   UNL     1       7.678   4.642  16.852  0.00  0.00    +0.000 OA
ATOM     38  H   UNL     1       8.013   4.375  15.975  0.00  0.00    +0.000 HD
ENDBRANCH  36  37
ENDBRANCH  33  36
ENDBRANCH  30  33
ENDBRANCH   1  31
TORSDOF 8
ENDMDL
MODEL 5
REMARK VINA RESULT:      -6.8      7.766      8.931
REMARK  Name = 
REMARK  9 active torsions:
REMARK  status: ('A' for Active; 'I' for Inactive)
REMARK    1  A    between atoms: C_1  and  C_2
REMARK    2  A    between atoms: C_2  and  O_3
REMARK    3  A    between atoms: C_2  and  C_4
REMARK    4  A    between atoms: C_2  and  C_32
REMARK    5  A    between atoms: C_5  and  C_6
REMARK    6  A    between atoms: C_19  and  C_20
REMARK    7  A    between atoms: C_23  and  C_24
REMARK    8  A    between atoms: C_26  and  C_27
REMARK    9  A    between atoms: C_32  and  O_33
REMARK                            x       y       z     vdW  Elec       q    Type
REMARK                         _______ _______ _______ _____ _____    ______ ____
ROOT
ATOM      1  C   UNL     1       9.233  10.447  19.119  0.00  0.00    +0.000 A 
ATOM      2  C   UNL     1       8.857  10.915  20.381  0.00  0.00    +0.000 A 
ATOM      3  C   UNL     1       9.393  12.113  20.917  0.00  0.00    +0.000 A 
ATOM      4  C   UNL     1      10.327  12.832  20.155  0.00  0.00    +0.000 A 
ATOM      5  C   UNL     1      10.736  12.323  18.913  0.00  0.00    +0.000 A 
ATOM      6  C   UNL     1      10.189  11.154  18.400  0.00  0.00    +0.000 A 
ATOM      7  F   UNL     1      10.591  10.731  17.193  0.00  0.00    +0.000 F 
ATOM      8  O   UNL     1      10.943  14.018  20.428  0.00  0.00    +0.000 OA
ATOM      9  C   UNL     1      10.521  14.906  21.462  0.00  0.00    +0.000 C 
ATOM     10  C   UNL     1       9.029  14.948  21.732  0.00  0.00    +0.000 C 
ATOM     11  N   UNL     1       8.671  13.838  22.595  0.00  0.00    +0.000 N 
ATOM     12  C   UNL     1       8.892  12.528  22.231  0.00  0.00    +0.000 A 
ATOM     13  N   UNL     1       8.522  11.719  23.210  0.00  0.00    +0.000 NA
ATOM     14  C   UNL     1       8.013  12.530  24.213  0.00  0.00    +0.000 A 
ATOM     15  C   UNL     1       8.110  13.865  23.850  0.00  0.00    +0.000 A 
ENDROOT
BRANCH  15  16
ATOM     16  C   UNL     1       7.800  15.042  24.596  0.00  0.00    +0.000 A 
ATOM     17  N   UNL     1       8.477  15.481  25.631  0.00  0.00    +0.000 NA
ATOM     18  C   UNL     1       7.709  16.522  26.089  0.00  0.00    +0.000 A 
ATOM     19  N   UNL     1       6.627  16.793  25.354  0.00  0.00    +0.000 NA
ATOM     20  N   UNL     1       6.696  15.830  24.419  0.00  0.00    +0.000 N 
ATOM     21  H   UNL     1       5.942  15.711  23.747  0.00  0.00    +0.000 HD
BRANCH  18  22
ATOM     22  C   UNL     1       8.025  17.278  27.364  0.00  0.00    +0.000 C 
ATOM     23  C   UNL     1       7.738  16.599  28.689  0.00  0.00    +0.000 C 
ATOM     24  C   UNL     1       9.149  16.770  28.243  0.00  0.00    +0.000 C 
ENDBRANCH  18  22
ENDBRANCH  15  16
BRANCH  14  25
ATOM     25  C   UNL     1       7.505  11.997  25.474  0.00  0.00    +0.000 C 
ATOM     26  N   UNL     1       8.192  12.402  26.578  0.00  0.00    +0.000 N 
ATOM     27  O   UNL     1       6.526  11.256  25.561  0.00  0.00    +0.000 OA
ATOM     28  H   UNL     1       8.994  13.012  26.478  0.00  0.00    +0.000 HD
ATOM     29  H   UNL     1       7.899  12.084  27.491  0.00  0.00    +0.000 HD
ENDBRANCH  14  25
BRANCH   1  31
ATOM     30  C   UNL     1       8.068   8.197  18.085  0.00  0.00    +0.000 C 
ATOM     31  C   UNL     1       8.636   9.266  18.571  0.00  0.00    +0.000 C 
BRANCH  30  33
ATOM     32  C   UNL     1       5.905   7.181  17.365  0.00  0.00    +0.000 C 
ATOM     33  C   UNL     1       7.406   6.951  17.518  0.00  0.00    +0.000 C 
BRANCH  33  34
ATOM     34  O   UNL     1       7.981   6.681  16.236  0.00  0.00    +0.000 OA
ATOM     35  H   UNL     1       7.245   6.671  15.599  0.00  0.00    +0.000 HD
ENDBRANCH  33  34
BRANCH  33  36
ATOM     36  C   UNL     1       7.680   5.739  18.434  0.00  0.00    +0.000 C 
BRANCH  36  37
ATOM     37  O   UNL     1       7.948   4.553  17.677  0.00  0.00    +0.000 OA
ATOM     38  H   UNL     1       7.584   4.726  16.789  0.00  0.00    +0.000 HD
ENDBRANCH  36  37
ENDBRANCH  33  36
ENDBRANCH  30  33
ENDBRANCH   1  31
TORSDOF 8
ENDMDL
MODEL 6
REMARK VINA RESULT:      -6.5      2.751      4.155
REMARK  Name = 
REMARK  9 active torsions:
REMARK  status: ('A' for Active; 'I' for Inactive)
REMARK    1  A    between atoms: C_1  and  C_2
REMARK    2  A    between atoms: C_2  and  O_3
REMARK    3  A    between atoms: C_2  and  C_4
REMARK    4  A    between atoms: C_2  and  C_32
REMARK    5  A    between atoms: C_5  and  C_6
REMARK    6  A    between atoms: C_19  and  C_20
REMARK    7  A    between atoms: C_23  and  C_24
REMARK    8  A    between atoms: C_26  and  C_27
REMARK    9  A    between atoms: C_32  and  O_33
REMARK                            x       y       z     vdW  Elec       q    Type
REMARK                         _______ _______ _______ _____ _____    ______ ____
ROOT
ATOM      1  C   UNL     1       2.529   6.495  18.650  0.00  0.00    +0.000 A 
ATOM      2  C   UNL     1       1.772   7.368  19.434  0.00  0.00    +0.000 A 
ATOM      3  C   UNL     1       1.747   8.762  19.178  0.00  0.00    +0.000 A 
ATOM      4  C   UNL     1       2.511   9.264  18.112  0.00  0.00    +0.000 A 
ATOM      5  C   UNL     1       3.309   8.383  17.366  0.00  0.00    +0.000 A 
ATOM      6  C   UNL     1       3.309   7.018  17.626  0.00  0.00    +0.000 A 
ATOM      7  F   UNL     1       4.064   6.218  16.860  0.00  0.00    +0.000 F 
ATOM      8  O   UNL     1       2.616  10.540  17.644  0.00  0.00    +0.000 OA
ATOM      9  C   UNL     1       1.718  11.589  18.005  0.00  0.00    +0.000 C 
ATOM     10  C   UNL     1       0.279  11.175  18.251  0.00  0.00    +0.000 C 
ATOM     11  N   UNL     1       0.158  10.661  19.602  0.00  0.00    +0.000 N 
ATOM     12  C   UNL     1       0.882   9.574  20.040  0.00  0.00    +0.000 A 
ATOM     13  N   UNL     1       0.624   9.344  21.316  0.00  0.00    +0.000 NA
ATOM     14  C   UNL     1      -0.321  10.284  21.698  0.00  0.00    +0.000 A 
ATOM     15  C   UNL     1      -0.617  11.129  20.638  0.00  0.00    +0.000 A 
ENDROOT
BRANCH  15  16
ATOM     16  C   UNL     1      -1.453  12.284  20.593  0.00  0.00    +0.000 A 
ATOM     17  N   UNL     1      -1.031  13.526  20.660  0.00  0.00    +0.000 NA
ATOM     18  C   UNL     1      -2.196  14.247  20.741  0.00  0.00    +0.000 A 
ATOM     19  N   UNL     1      -3.316  13.526  20.661  0.00  0.00    +0.000 NA
ATOM     20  N   UNL     1      -2.821  12.279  20.583  0.00  0.00    +0.000 N 
ATOM     21  H   UNL     1      -3.445  11.476  20.603  0.00  0.00    +0.000 HD
BRANCH  18  22
ATOM     22  C   UNL     1      -2.219  15.747  20.961  0.00  0.00    +0.000 C 
ATOM     23  C   UNL     1      -2.181  16.262  22.387  0.00  0.00    +0.000 C 
ATOM     24  C   UNL     1      -0.978  16.413  21.520  0.00  0.00    +0.000 C 
ENDBRANCH  18  22
ENDBRANCH  15  16
BRANCH  14  25
ATOM     25  C   UNL     1      -0.858  10.355  23.053  0.00  0.00    +0.000 C 
ATOM     26  N   UNL     1      -0.299   9.476  23.931  0.00  0.00    +0.000 N 
ATOM     27  O   UNL     1      -1.732  11.148  23.405  0.00  0.00    +0.000 OA
ATOM     28  H   UNL     1       0.418   8.835  23.616  0.00  0.00    +0.000 HD
ATOM     29  H   UNL     1      -0.610   9.467  24.892  0.00  0.00    +0.000 HD
ENDBRANCH  14  25
BRANCH   1  31
ATOM     30  C   UNL     1       2.460   3.802  19.134  0.00  0.00    +0.000 C 
ATOM     31  C   UNL     1       2.495   5.082  18.889  0.00  0.00    +0.000 C 
BRANCH  30  33
ATOM     32  C   UNL     1       2.046   2.066  20.878  0.00  0.00    +0.000 C 
ATOM     33  C   UNL     1       2.419   2.309  19.419  0.00  0.00    +0.000 C 
BRANCH  33  34
ATOM     34  O   UNL     1       1.434   1.716  18.568  0.00  0.00    +0.000 OA
ATOM     35  H   UNL     1       1.837   1.644  17.685  0.00  0.00    +0.000 HD
ENDBRANCH  33  34
BRANCH  33  36
ATOM     36  C   UNL     1       3.785   1.666  19.093  0.00  0.00    +0.000 C 
BRANCH  36  37
ATOM     37  O   UNL     1       4.874   2.471  19.560  0.00  0.00    +0.000 OA
ATOM     38  H   UNL     1       4.498   3.029  20.267  0.00  0.00    +0.000 HD
ENDBRANCH  36  37
ENDBRANCH  33  36
ENDBRANCH  30  33
ENDBRANCH   1  31
TORSDOF 8
ENDMDL
MODEL 7
REMARK VINA RESULT:      -6.4      5.465      7.875
REMARK  Name = 
REMARK  9 active torsions:
REMARK  status: ('A' for Active; 'I' for Inactive)
REMARK    1  A    between atoms: C_1  and  C_2
REMARK    2  A    between atoms: C_2  and  O_3
REMARK    3  A    between atoms: C_2  and  C_4
REMARK    4  A    between atoms: C_2  and  C_32
REMARK    5  A    between atoms: C_5  and  C_6
REMARK    6  A    between atoms: C_19  and  C_20
REMARK    7  A    between atoms: C_23  and  C_24
REMARK    8  A    between atoms: C_26  and  C_27
REMARK    9  A    between atoms: C_32  and  O_33
REMARK                            x       y       z     vdW  Elec       q    Type
REMARK                         _______ _______ _______ _____ _____    ______ ____
ROOT
ATOM      1  C   UNL     1       4.991  15.507  19.937  0.00  0.00    +0.000 A 
ATOM      2  C   UNL     1       3.992  14.546  20.111  0.00  0.00    +0.000 A 
ATOM      3  C   UNL     1       2.618  14.889  20.066  0.00  0.00    +0.000 A 
ATOM      4  C   UNL     1       2.266  16.230  19.848  0.00  0.00    +0.000 A 
ATOM      5  C   UNL     1       3.280  17.194  19.728  0.00  0.00    +0.000 A 
ATOM      6  C   UNL     1       4.621  16.834  19.763  0.00  0.00    +0.000 A 
ATOM      7  F   UNL     1       5.548  17.791  19.609  0.00  0.00    +0.000 F 
ATOM      8  O   UNL     1       1.032  16.795  19.720  0.00  0.00    +0.000 OA
ATOM      9  C   UNL     1      -0.162  16.042  19.508  0.00  0.00    +0.000 C 
ATOM     10  C   UNL     1      -0.011  14.778  18.683  0.00  0.00    +0.000 C 
ATOM     11  N   UNL     1       0.465  13.707  19.539  0.00  0.00    +0.000 N 
ATOM     12  C   UNL     1       1.660  13.789  20.218  0.00  0.00    +0.000 A 
ATOM     13  N   UNL     1       1.832  12.709  20.960  0.00  0.00    +0.000 NA
ATOM     14  C   UNL     1       0.737  11.892  20.720  0.00  0.00    +0.000 A 
ATOM     15  C   UNL     1      -0.139  12.509  19.839  0.00  0.00    +0.000 A 
ENDROOT
BRANCH  15  16
ATOM     16  C   UNL     1      -1.425  12.089  19.382  0.00  0.00    +0.000 A 
ATOM     17  N   UNL     1      -1.638  11.184  18.455  0.00  0.00    +0.000 NA
ATOM     18  C   UNL     1      -2.995  11.252  18.259  0.00  0.00    +0.000 A 
ATOM     19  N   UNL     1      -3.641  12.102  19.060  0.00  0.00    +0.000 NA
ATOM     20  N   UNL     1      -2.622  12.635  19.755  0.00  0.00    +0.000 N 
ATOM     21  H   UNL     1      -2.786  13.404  20.401  0.00  0.00    +0.000 HD
BRANCH  18  22
ATOM     22  C   UNL     1      -3.709  10.466  17.177  0.00  0.00    +0.000 C 
ATOM     23  C   UNL     1      -3.601  10.957  15.746  0.00  0.00    +0.000 C 
ATOM     24  C   UNL     1      -2.873   9.723  16.155  0.00  0.00    +0.000 C 
ENDBRANCH  18  22
ENDBRANCH  15  16
BRANCH  14  25
ATOM     25  C   UNL     1       0.563  10.597  21.369  0.00  0.00    +0.000 C 
ATOM     26  N   UNL     1       0.789   9.523  20.561  0.00  0.00    +0.000 N 
ATOM     27  O   UNL     1       0.255  10.457  22.552  0.00  0.00    +0.000 OA
ATOM     28  H   UNL     1       1.042   9.666  19.591  0.00  0.00    +0.000 HD
ATOM     29  H   UNL     1       0.697   8.590  20.936  0.00  0.00    +0.000 HD
ENDBRANCH  14  25
BRANCH   1  31
ATOM     30  C   UNL     1       7.627  14.767  19.938  0.00  0.00    +0.000 C 
ATOM     31  C   UNL     1       6.374  15.130  19.927  0.00  0.00    +0.000 C 
BRANCH  30  33
ATOM     32  C   UNL     1       9.988  15.574  19.909  0.00  0.00    +0.000 C 
ATOM     33  C   UNL     1       9.087  14.343  19.949  0.00  0.00    +0.000 C 
BRANCH  33  34
ATOM     34  O   UNL     1       9.332  13.610  21.152  0.00  0.00    +0.000 OA
ATOM     35  H   UNL     1       9.604  14.261  21.823  0.00  0.00    +0.000 HD
ENDBRANCH  33  34
BRANCH  33  36
ATOM     36  C   UNL     1       9.381  13.414  18.751  0.00  0.00    +0.000 C 
BRANCH  36  37
ATOM     37  O   UNL     1       9.237  14.099  17.501  0.00  0.00    +0.000 OA
ATOM     38  H   UNL     1       8.276  14.234  17.391  0.00  0.00    +0.000 HD
ENDBRANCH  36  37
ENDBRANCH  33  36
ENDBRANCH  30  33
ENDBRANCH   1  31
TORSDOF 8
ENDMDL
MODEL 8
REMARK VINA RESULT:      -6.4      7.409      8.551
REMARK  Name = 
REMARK  9 active torsions:
REMARK  status: ('A' for Active; 'I' for Inactive)
REMARK    1  A    between atoms: C_1  and  C_2
REMARK    2  A    between atoms: C_2  and  O_3
REMARK    3  A    between atoms: C_2  and  C_4
REMARK    4  A    between atoms: C_2  and  C_32
REMARK    5  A    between atoms: C_5  and  C_6
REMARK    6  A    between atoms: C_19  and  C_20
REMARK    7  A    between atoms: C_23  and  C_24
REMARK    8  A    between atoms: C_26  and  C_27
REMARK    9  A    between atoms: C_32  and  O_33
REMARK                            x       y       z     vdW  Elec       q    Type
REMARK                         _______ _______ _______ _____ _____    ______ ____
ROOT
ATOM      1  C   UNL     1       9.197  10.467  19.087  0.00  0.00    +0.000 A 
ATOM      2  C   UNL     1       8.815  10.956  20.339  0.00  0.00    +0.000 A 
ATOM      3  C   UNL     1       9.379  12.140  20.875  0.00  0.00    +0.000 A 
ATOM      4  C   UNL     1      10.348  12.825  20.124  0.00  0.00    +0.000 A 
ATOM      5  C   UNL     1      10.761  12.294  18.892  0.00  0.00    +0.000 A 
ATOM      6  C   UNL     1      10.186  11.139  18.379  0.00  0.00    +0.000 A 
ATOM      7  F   UNL     1      10.595  10.694  17.181  0.00  0.00    +0.000 F 
ATOM      8  O   UNL     1      10.996  13.992  20.400  0.00  0.00    +0.000 OA
ATOM      9  C   UNL     1      10.585  14.901  21.420  0.00  0.00    +0.000 C 
ATOM     10  C   UNL     1       9.090  14.991  21.665  0.00  0.00    +0.000 C 
ATOM     11  N   UNL     1       8.684  13.899  22.529  0.00  0.00    +0.000 N 
ATOM     12  C   UNL     1       8.869  12.580  22.178  0.00  0.00    +0.000 A 
ATOM     13  N   UNL     1       8.459  11.791  23.156  0.00  0.00    +0.000 NA
ATOM     14  C   UNL     1       7.959  12.625  24.145  0.00  0.00    +0.000 A 
ATOM     15  C   UNL     1       8.103  13.953  23.775  0.00  0.00    +0.000 A 
ENDROOT
BRANCH  15  16
ATOM     16  C   UNL     1       7.818  15.145  24.507  0.00  0.00    +0.000 A 
ATOM     17  N   UNL     1       6.614  15.584  24.797  0.00  0.00    +0.000 NA
ATOM     18  C   UNL     1       6.857  16.815  25.351  0.00  0.00    +0.000 A 
ATOM     19  N   UNL     1       8.146  17.135  25.480  0.00  0.00    +0.000 NA
ATOM     20  N   UNL     1       8.739  16.066  24.923  0.00  0.00    +0.000 N 
ATOM     21  H   UNL     1       9.747  16.051  24.784  0.00  0.00    +0.000 HD
BRANCH  18  22
ATOM     22  C   UNL     1       5.748  17.773  25.740  0.00  0.00    +0.000 C 
ATOM     23  C   UNL     1       5.128  18.631  24.653  0.00  0.00    +0.000 C 
ATOM     24  C   UNL     1       4.348  17.500  25.230  0.00  0.00    +0.000 C 
ENDBRANCH  18  22
ENDBRANCH  15  16
BRANCH  14  25
ATOM     25  C   UNL     1       7.413  12.118  25.400  0.00  0.00    +0.000 C 
ATOM     26  N   UNL     1       6.380  11.240  25.256  0.00  0.00    +0.000 N 
ATOM     27  O   UNL     1       7.842  12.428  26.511  0.00  0.00    +0.000 OA
ATOM     28  H   UNL     1       6.046  11.002  24.331  0.00  0.00    +0.000 HD
ATOM     29  H   UNL     1       5.952  10.838  26.077  0.00  0.00    +0.000 HD
ENDBRANCH  14  25
BRANCH   1  31
ATOM     30  C   UNL     1       8.026   8.225  18.040  0.00  0.00    +0.000 C 
ATOM     31  C   UNL     1       8.572   9.302  18.536  0.00  0.00    +0.000 C 
BRANCH  30  33
ATOM     32  C   UNL     1       5.887   7.173  17.305  0.00  0.00    +0.000 C 
ATOM     33  C   UNL     1       7.390   6.971  17.463  0.00  0.00    +0.000 C 
BRANCH  33  34
ATOM     34  O   UNL     1       7.976   6.719  16.183  0.00  0.00    +0.000 OA
ATOM     35  H   UNL     1       7.330   6.191  15.682  0.00  0.00    +0.000 HD
ENDBRANCH  33  34
BRANCH  33  36
ATOM     36  C   UNL     1       7.683   5.758  18.373  0.00  0.00    +0.000 C 
BRANCH  36  37
ATOM     37  O   UNL     1       7.944   4.574  17.611  0.00  0.00    +0.000 OA
ATOM     38  H   UNL     1       7.076   4.144  17.498  0.00  0.00    +0.000 HD
ENDBRANCH  36  37
ENDBRANCH  33  36
ENDBRANCH  30  33
ENDBRANCH   1  31
TORSDOF 8
ENDMDL
MODEL 9
REMARK VINA RESULT:      -6.4      5.494      7.870
REMARK  Name = 
REMARK  9 active torsions:
REMARK  status: ('A' for Active; 'I' for Inactive)
REMARK    1  A    between atoms: C_1  and  C_2
REMARK    2  A    between atoms: C_2  and  O_3
REMARK    3  A    between atoms: C_2  and  C_4
REMARK    4  A    between atoms: C_2  and  C_32
REMARK    5  A    between atoms: C_5  and  C_6
REMARK    6  A    between atoms: C_19  and  C_20
REMARK    7  A    between atoms: C_23  and  C_24
REMARK    8  A    between atoms: C_26  and  C_27
REMARK    9  A    between atoms: C_32  and  O_33
REMARK                            x       y       z     vdW  Elec       q    Type
REMARK                         _______ _______ _______ _____ _____    ______ ____
ROOT
ATOM      1  C   UNL     1       4.937  15.320  20.293  0.00  0.00    +0.000 A 
ATOM      2  C   UNL     1       3.883  14.420  20.465  0.00  0.00    +0.000 A 
ATOM      3  C   UNL     1       2.541  14.789  20.195  0.00  0.00    +0.000 A 
ATOM      4  C   UNL     1       2.279  16.095  19.752  0.00  0.00    +0.000 A 
ATOM      5  C   UNL     1       3.341  17.005  19.634  0.00  0.00    +0.000 A 
ATOM      6  C   UNL     1       4.650  16.619  19.892  0.00  0.00    +0.000 A 
ATOM      7  F   UNL     1       5.630  17.521  19.731  0.00  0.00    +0.000 F 
ATOM      8  O   UNL     1       1.096  16.668  19.389  0.00  0.00    +0.000 OA
ATOM      9  C   UNL     1      -0.094  15.924  19.129  0.00  0.00    +0.000 C 
ATOM     10  C   UNL     1       0.104  14.553  18.511  0.00  0.00    +0.000 C 
ATOM     11  N   UNL     1       0.421  13.602  19.560  0.00  0.00    +0.000 N 
ATOM     12  C   UNL     1       1.525  13.747  20.371  0.00  0.00    +0.000 A 
ATOM     13  N   UNL     1       1.555  12.778  21.269  0.00  0.00    +0.000 NA
ATOM     14  C   UNL     1       0.464  11.965  21.003  0.00  0.00    +0.000 A 
ATOM     15  C   UNL     1      -0.268  12.473  19.940  0.00  0.00    +0.000 A 
ENDROOT
BRANCH  15  16
ATOM     16  C   UNL     1      -1.503  12.027  19.381  0.00  0.00    +0.000 A 
ATOM     17  N   UNL     1      -1.632  11.044  18.519  0.00  0.00    +0.000 NA
ATOM     18  C   UNL     1      -2.957  11.109  18.168  0.00  0.00    +0.000 A 
ATOM     19  N   UNL     1      -3.671  12.033  18.815  0.00  0.00    +0.000 NA
ATOM     20  N   UNL     1      -2.723  12.616  19.569  0.00  0.00    +0.000 N 
ATOM     21  H   UNL     1      -2.942  13.441  20.123  0.00  0.00    +0.000 HD
BRANCH  18  22
ATOM     22  C   UNL     1      -3.563  10.235  17.087  0.00  0.00    +0.000 C 
ATOM     23  C   UNL     1      -3.719  10.821  15.697  0.00  0.00    +0.000 C 
ATOM     24  C   UNL     1      -2.677   9.784  15.944  0.00  0.00    +0.000 C 
ENDBRANCH  18  22
ENDBRANCH  15  16
BRANCH  14  25
ATOM     25  C   UNL     1       0.153  10.779  21.794  0.00  0.00    +0.000 C 
ATOM     26  N   UNL     1       0.191   9.607  21.099  0.00  0.00    +0.000 N 
ATOM     27  O   UNL     1      -0.108  10.804  22.997  0.00  0.00    +0.000 OA
ATOM     28  H   UNL     1       0.408   9.614  20.111  0.00  0.00    +0.000 HD
ATOM     29  H   UNL     1      -0.005   8.739  21.576  0.00  0.00    +0.000 HD
ENDBRANCH  14  25
BRANCH   1  31
ATOM     30  C   UNL     1       7.523  14.543  20.742  0.00  0.00    +0.000 C 
ATOM     31  C   UNL     1       6.292  14.910  20.514  0.00  0.00    +0.000 C 
BRANCH  30  33
ATOM     32  C   UNL     1       9.570  13.525  19.742  0.00  0.00    +0.000 C 
ATOM     33  C   UNL     1       8.957  14.115  21.009  0.00  0.00    +0.000 C 
BRANCH  33  34
ATOM     34  O   UNL     1       9.703  15.268  21.408  0.00  0.00    +0.000 OA
ATOM     35  H   UNL     1       9.463  15.981  20.790  0.00  0.00    +0.000 HD
ENDBRANCH  33  34
BRANCH  33  36
ATOM     36  C   UNL     1       9.001  13.090  22.163  0.00  0.00    +0.000 C 
BRANCH  36  37
ATOM     37  O   UNL     1       9.813  11.957  21.835  0.00  0.00    +0.000 OA
ATOM     38  H   UNL     1      10.504  11.927  22.523  0.00  0.00    +0.000 HD
ENDBRANCH  36  37
ENDBRANCH  33  36
ENDBRANCH  30  33
ENDBRANCH   1  31
TORSDOF 8
ENDMDL
