MODEL 1
REMARK VINA RESULT:      -8.3      0.000      0.000
REMARK  Name = 
REMARK  10 active torsions:
REMARK  status: ('A' for Active; 'I' for Inactive)
REMARK    1  A    between atoms: C_2  and  C_3
REMARK    2  A    between atoms: C_2  and  C_4
REMARK    3  A    between atoms: C_4  and  O_5
REMARK    4  A    between atoms: O_5  and  C_6
REMARK    5  A    between atoms: C_9  and  C_10
REMARK    6  A    between atoms: C_15  and  C_16
REMARK    7  A    between atoms: C_20  and  C_21
REMARK    8  A    between atoms: C_24  and  O_25
REMARK    9  A    between atoms: O_25  and  C_26
REMARK   10  A    between atoms: C_29  and  O_30
REMARK                            x       y       z     vdW  Elec       q    Type
REMARK                         _______ _______ _______ _____ _____    ______ ____
ROOT
ATOM      1  C   UNL     1       4.526   3.999  18.856  0.00  0.00    +0.000 A 
ATOM      2  N   UNL     1       4.963   2.704  18.797  0.00  0.00    +0.000 NA
ATOM      3  C   UNL     1       4.118   1.739  19.134  0.00  0.00    +0.000 A 
ATOM      4  N   UNL     1       4.531   0.437  19.012  0.00  0.00    +0.000 N 
ATOM      5  N   UNL     1       2.888   1.958  19.562  0.00  0.00    +0.000 NA
ATOM      6  C   UNL     1       2.418   3.248  19.591  0.00  0.00    +0.000 A 
ATOM      7  C   UNL     1       3.207   4.353  19.228  0.00  0.00    +0.000 A 
ATOM      8  H   UNL     1       5.533   0.346  19.081  0.00  0.00    +0.000 HD
ATOM      9  H   UNL     1       3.965  -0.176  19.582  0.00  0.00    +0.000 HD
ENDROOT
BRANCH   1  13
ATOM     10  C   UNL     1       7.367   6.997  17.535  0.00  0.00    +0.000 A 
ATOM     11  C   UNL     1       7.377   6.547  18.853  0.00  0.00    +0.000 A 
ATOM     12  C   UNL     1       6.544   5.492  19.259  0.00  0.00    +0.000 A 
ATOM     13  C   UNL     1       5.599   4.930  18.385  0.00  0.00    +0.000 A 
ATOM     14  C   UNL     1       5.671   5.358  17.039  0.00  0.00    +0.000 A 
ATOM     15  C   UNL     1       6.532   6.374  16.615  0.00  0.00    +0.000 A 
BRANCH  14  16
ATOM     16  O   UNL     1       4.872   4.817  16.060  0.00  0.00    +0.000 OA
ATOM     17  H   UNL     1       4.817   5.481  15.340  0.00  0.00    +0.000 HD
ENDBRANCH  14  16
BRANCH  10  18
ATOM     18  O   UNL     1       8.159   8.083  17.274  0.00  0.00    +0.000 OA
BRANCH  18  19
ATOM     19  C   UNL     1       7.584   9.354  17.588  0.00  0.00    +0.000 C 
BRANCH  19  21
ATOM     20  C   UNL     1       9.319   9.714  19.355  0.00  0.00    +0.000 C 
ATOM     21  C   UNL     1       8.617  10.188  18.311  0.00  0.00    +0.000 C 
ATOM     22  C   UNL     1       8.852  11.572  17.774  0.00  0.00    +0.000 C 
ENDBRANCH  19  21
ENDBRANCH  18  19
ENDBRANCH  10  18
ENDBRANCH   1  13
BRANCH   7  23
ATOM     23  C   UNL     1       2.688   5.761  19.186  0.00  0.00    +0.000 A 
ATOM     24  C   UNL     1       2.426   6.506  20.349  0.00  0.00    +0.000 A 
ATOM     25  C   UNL     1       1.960   7.830  20.309  0.00  0.00    +0.000 A 
ATOM     26  C   UNL     1       1.848   8.499  19.099  0.00  0.00    +0.000 A 
ATOM     27  C   UNL     1       2.134   7.804  17.931  0.00  0.00    +0.000 A 
ATOM     28  C   UNL     1       2.473   6.444  17.972  0.00  0.00    +0.000 A 
BRANCH  26  29
ATOM     29  O   UNL     1       1.494   9.808  18.938  0.00  0.00    +0.000 OA
ATOM     30  C   UNL     1       0.099  10.078  18.852  0.00  0.00    +0.000 C 
ENDBRANCH  26  29
ENDBRANCH   7  23
BRANCH   6  31
ATOM     31  C   UNL     1       0.973   3.333  20.061  0.00  0.00    +0.000 C 
ATOM     32  F   UNL     1       0.477   4.607  20.081  0.00  0.00    +0.000 F 
ATOM     33  F   UNL     1       0.111   2.651  19.253  0.00  0.00    +0.000 F 
ATOM     34  F   UNL     1       0.771   2.861  21.325  0.00  0.00    +0.000 F 
ENDBRANCH   6  31
TORSDOF 8
ENDMDL
MODEL 2
REMARK VINA RESULT:      -8.2      0.559      1.338
REMARK  Name = 
REMARK  10 active torsions:
REMARK  status: ('A' for Active; 'I' for Inactive)
REMARK    1  A    between atoms: C_2  and  C_3
REMARK    2  A    between atoms: C_2  and  C_4
REMARK    3  A    between atoms: C_4  and  O_5
REMARK    4  A    between atoms: O_5  and  C_6
REMARK    5  A    between atoms: C_9  and  C_10
REMARK    6  A    between atoms: C_15  and  C_16
REMARK    7  A    between atoms: C_20  and  C_21
REMARK    8  A    between atoms: C_24  and  O_25
REMARK    9  A    between atoms: O_25  and  C_26
REMARK   10  A    between atoms: C_29  and  O_30
REMARK                            x       y       z     vdW  Elec       q    Type
REMARK                         _______ _______ _______ _____ _____    ______ ____
ROOT
ATOM      1  C   UNL     1       4.448   4.102  18.784  0.00  0.00    +0.000 A 
ATOM      2  N   UNL     1       4.839   2.806  18.583  0.00  0.00    +0.000 NA
ATOM      3  C   UNL     1       3.971   1.840  18.852  0.00  0.00    +0.000 A 
ATOM      4  N   UNL     1       4.335   0.544  18.590  0.00  0.00    +0.000 N 
ATOM      5  N   UNL     1       2.764   2.054  19.341  0.00  0.00    +0.000 NA
ATOM      6  C   UNL     1       2.340   3.349  19.513  0.00  0.00    +0.000 A 
ATOM      7  C   UNL     1       3.155   4.459  19.233  0.00  0.00    +0.000 A 
ATOM      8  H   UNL     1       5.336   0.416  18.615  0.00  0.00    +0.000 HD
ATOM      9  H   UNL     1       3.766  -0.105  19.115  0.00  0.00    +0.000 HD
ENDROOT
BRANCH   1  13
ATOM     10  C   UNL     1       7.350   7.126  17.668  0.00  0.00    +0.000 A 
ATOM     11  C   UNL     1       7.388   6.543  18.933  0.00  0.00    +0.000 A 
ATOM     12  C   UNL     1       6.532   5.480  19.261  0.00  0.00    +0.000 A 
ATOM     13  C   UNL     1       5.538   5.042  18.370  0.00  0.00    +0.000 A 
ATOM     14  C   UNL     1       5.580   5.602  17.073  0.00  0.00    +0.000 A 
ATOM     15  C   UNL     1       6.462   6.628  16.722  0.00  0.00    +0.000 A 
BRANCH  14  16
ATOM     16  O   UNL     1       4.730   5.191  16.074  0.00  0.00    +0.000 OA
ATOM     17  H   UNL     1       5.114   4.372  15.694  0.00  0.00    +0.000 HD
ENDBRANCH  14  16
BRANCH  10  18
ATOM     18  O   UNL     1       8.171   8.206  17.490  0.00  0.00    +0.000 OA
BRANCH  18  19
ATOM     19  C   UNL     1       8.723   8.765  18.684  0.00  0.00    +0.000 C 
BRANCH  19  21
ATOM     20  C   UNL     1       8.181  10.969  17.629  0.00  0.00    +0.000 C 
ATOM     21  C   UNL     1       8.938  10.246  18.473  0.00  0.00    +0.000 C 
ATOM     22  C   UNL     1      10.024  10.886  19.292  0.00  0.00    +0.000 C 
ENDBRANCH  19  21
ENDBRANCH  18  19
ENDBRANCH  10  18
ENDBRANCH   1  13
BRANCH   7  23
ATOM     23  C   UNL     1       2.683   5.880  19.347  0.00  0.00    +0.000 A 
ATOM     24  C   UNL     1       2.490   6.705  18.226  0.00  0.00    +0.000 A 
ATOM     25  C   UNL     1       2.029   8.027  18.331  0.00  0.00    +0.000 A 
ATOM     26  C   UNL     1       1.634   8.537  19.559  0.00  0.00    +0.000 A 
ATOM     27  C   UNL     1       1.777   7.736  20.685  0.00  0.00    +0.000 A 
ATOM     28  C   UNL     1       2.359   6.463  20.589  0.00  0.00    +0.000 A 
BRANCH  26  29
ATOM     29  O   UNL     1       1.088   9.770  19.776  0.00  0.00    +0.000 OA
ATOM     30  C   UNL     1       1.228  10.716  18.722  0.00  0.00    +0.000 C 
ENDBRANCH  26  29
ENDBRANCH   7  23
BRANCH   6  31
ATOM     31  C   UNL     1       0.914   3.432  20.038  0.00  0.00    +0.000 C 
ATOM     32  F   UNL     1       0.059   2.546  19.441  0.00  0.00    +0.000 F 
ATOM     33  F   UNL     1       0.819   3.145  21.368  0.00  0.00    +0.000 F 
ATOM     34  F   UNL     1       0.328   4.651  19.865  0.00  0.00    +0.000 F 
ENDBRANCH   6  31
TORSDOF 8
ENDMDL
MODEL 3
REMARK VINA RESULT:      -7.4      1.181      1.412
REMARK  Name = 
REMARK  10 active torsions:
REMARK  status: ('A' for Active; 'I' for Inactive)
REMARK    1  A    between atoms: C_2  and  C_3
REMARK    2  A    between atoms: C_2  and  C_4
REMARK    3  A    between atoms: C_4  and  O_5
REMARK    4  A    between atoms: O_5  and  C_6
REMARK    5  A    between atoms: C_9  and  C_10
REMARK    6  A    between atoms: C_15  and  C_16
REMARK    7  A    between atoms: C_20  and  C_21
REMARK    8  A    between atoms: C_24  and  O_25
REMARK    9  A    between atoms: O_25  and  C_26
REMARK   10  A    between atoms: C_29  and  O_30
REMARK                            x       y       z     vdW  Elec       q    Type
REMARK                         _______ _______ _______ _____ _____    ______ ____
ROOT
ATOM      1  C   UNL     1       4.604   4.698  19.314  0.00  0.00    +0.000 A 
ATOM      2  N   UNL     1       5.209   3.471  19.322  0.00  0.00    +0.000 NA
ATOM      3  C   UNL     1       4.472   2.408  19.614  0.00  0.00    +0.000 A 
ATOM      4  N   UNL     1       5.060   1.171  19.559  0.00  0.00    +0.000 N 
ATOM      5  N   UNL     1       3.193   2.469  19.937  0.00  0.00    +0.000 NA
ATOM      6  C   UNL     1       2.558   3.687  19.897  0.00  0.00    +0.000 A 
ATOM      7  C   UNL     1       3.224   4.880  19.570  0.00  0.00    +0.000 A 
ATOM      8  H   UNL     1       6.056   1.213  19.709  0.00  0.00    +0.000 HD
ATOM      9  H   UNL     1       4.533   0.496  20.096  0.00  0.00    +0.000 HD
ENDROOT
BRANCH   1  13
ATOM     10  C   UNL     1       7.585   7.495  17.866  0.00  0.00    +0.000 A 
ATOM     11  C   UNL     1       6.277   7.546  17.389  0.00  0.00    +0.000 A 
ATOM     12  C   UNL     1       5.279   6.727  17.938  0.00  0.00    +0.000 A 
ATOM     13  C   UNL     1       5.582   5.756  18.906  0.00  0.00    +0.000 A 
ATOM     14  C   UNL     1       6.899   5.785  19.420  0.00  0.00    +0.000 A 
ATOM     15  C   UNL     1       7.888   6.631  18.912  0.00  0.00    +0.000 A 
BRANCH  14  16
ATOM     16  O   UNL     1       7.301   4.957  20.441  0.00  0.00    +0.000 OA
ATOM     17  H   UNL     1       6.761   5.190  21.225  0.00  0.00    +0.000 HD
ENDBRANCH  14  16
BRANCH  10  18
ATOM     18  O   UNL     1       8.489   8.277  17.200  0.00  0.00    +0.000 OA
BRANCH  18  19
ATOM     19  C   UNL     1       8.265   9.686  17.285  0.00  0.00    +0.000 C 
BRANCH  19  21
ATOM     20  C   UNL     1       9.153   9.994  19.604  0.00  0.00    +0.000 C 
ATOM     21  C   UNL     1       9.229  10.272  18.291  0.00  0.00    +0.000 C 
ATOM     22  C   UNL     1      10.313  11.157  17.740  0.00  0.00    +0.000 C 
ENDBRANCH  19  21
ENDBRANCH  18  19
ENDBRANCH  10  18
ENDBRANCH   1  13
BRANCH   7  23
ATOM     23  C   UNL     1       2.531   6.207  19.452  0.00  0.00    +0.000 A 
ATOM     24  C   UNL     1       2.186   6.982  20.572  0.00  0.00    +0.000 A 
ATOM     25  C   UNL     1       1.557   8.233  20.460  0.00  0.00    +0.000 A 
ATOM     26  C   UNL     1       1.352   8.807  19.214  0.00  0.00    +0.000 A 
ATOM     27  C   UNL     1       1.715   8.084  18.085  0.00  0.00    +0.000 A 
ATOM     28  C   UNL     1       2.224   6.782  18.202  0.00  0.00    +0.000 A 
BRANCH  26  29
ATOM     29  O   UNL     1       0.835  10.049  18.980  0.00  0.00    +0.000 OA
ATOM     30  C   UNL     1      -0.519  10.097  18.546  0.00  0.00    +0.000 C 
ENDBRANCH  26  29
ENDBRANCH   7  23
BRANCH   6  31
ATOM     31  C   UNL     1       1.081   3.587  20.248  0.00  0.00    +0.000 C 
ATOM     32  F   UNL     1       0.440   4.795  20.267  0.00  0.00    +0.000 F 
ATOM     33  F   UNL     1       0.371   2.845  19.350  0.00  0.00    +0.000 F 
ATOM     34  F   UNL     1       0.836   3.043  21.475  0.00  0.00    +0.000 F 
ENDBRANCH   6  31
TORSDOF 8
ENDMDL
MODEL 4
REMARK VINA RESULT:      -7.4      6.442      9.402
REMARK  Name = 
REMARK  10 active torsions:
REMARK  status: ('A' for Active; 'I' for Inactive)
REMARK    1  A    between atoms: C_2  and  C_3
REMARK    2  A    between atoms: C_2  and  C_4
REMARK    3  A    between atoms: C_4  and  O_5
REMARK    4  A    between atoms: O_5  and  C_6
REMARK    5  A    between atoms: C_9  and  C_10
REMARK    6  A    between atoms: C_15  and  C_16
REMARK    7  A    between atoms: C_20  and  C_21
REMARK    8  A    between atoms: C_24  and  O_25
REMARK    9  A    between atoms: O_25  and  C_26
REMARK   10  A    between atoms: C_29  and  O_30
REMARK                            x       y       z     vdW  Elec       q    Type
REMARK                         _______ _______ _______ _____ _____    ______ ____
ROOT
ATOM      1  C   UNL     1       1.273  12.282  19.432  0.00  0.00    +0.000 A 
ATOM      2  N   UNL     1       2.401  12.587  18.719  0.00  0.00    +0.000 NA
ATOM      3  C   UNL     1       2.646  13.860  18.443  0.00  0.00    +0.000 A 
ATOM      4  N   UNL     1       3.808  14.174  17.787  0.00  0.00    +0.000 N 
ATOM      5  N   UNL     1       1.842  14.852  18.783  0.00  0.00    +0.000 NA
ATOM      6  C   UNL     1       0.726  14.571  19.532  0.00  0.00    +0.000 A 
ATOM      7  C   UNL     1       0.376  13.265  19.915  0.00  0.00    +0.000 A 
ATOM      8  H   UNL     1       4.148  13.409  17.225  0.00  0.00    +0.000 HD
ATOM      9  H   UNL     1       3.742  15.083  17.350  0.00  0.00    +0.000 HD
ENDROOT
BRANCH   1  13
ATOM     10  C   UNL     1       1.480   8.026  20.241  0.00  0.00    +0.000 A 
ATOM     11  C   UNL     1       1.111   8.920  21.245  0.00  0.00    +0.000 A 
ATOM     12  C   UNL     1       0.924  10.282  20.963  0.00  0.00    +0.000 A 
ATOM     13  C   UNL     1       1.206  10.809  19.692  0.00  0.00    +0.000 A 
ATOM     14  C   UNL     1       1.503   9.865  18.682  0.00  0.00    +0.000 A 
ATOM     15  C   UNL     1       1.643   8.499  18.945  0.00  0.00    +0.000 A 
BRANCH  14  16
ATOM     16  O   UNL     1       1.701  10.235  17.374  0.00  0.00    +0.000 OA
ATOM     17  H   UNL     1       2.668  10.347  17.254  0.00  0.00    +0.000 HD
ENDBRANCH  14  16
BRANCH  10  18
ATOM     18  O   UNL     1       1.713   6.741  20.649  0.00  0.00    +0.000 OA
BRANCH  18  19
ATOM     19  C   UNL     1       2.527   5.956  19.776  0.00  0.00    +0.000 C 
BRANCH  19  21
ATOM     20  C   UNL     1       1.043   3.990  20.216  0.00  0.00    +0.000 C 
ATOM     21  C   UNL     1       1.742   4.737  19.346  0.00  0.00    +0.000 C 
ATOM     22  C   UNL     1       1.750   4.424  17.875  0.00  0.00    +0.000 C 
ENDBRANCH  19  21
ENDBRANCH  18  19
ENDBRANCH  10  18
ENDBRANCH   1  13
BRANCH   7  23
ATOM     23  C   UNL     1      -0.800  12.948  20.793  0.00  0.00    +0.000 A 
ATOM     24  C   UNL     1      -0.719  12.950  22.196  0.00  0.00    +0.000 A 
ATOM     25  C   UNL     1      -1.824  12.675  23.017  0.00  0.00    +0.000 A 
ATOM     26  C   UNL     1      -3.083  12.498  22.463  0.00  0.00    +0.000 A 
ATOM     27  C   UNL     1      -3.207  12.526  21.080  0.00  0.00    +0.000 A 
ATOM     28  C   UNL     1      -2.077  12.673  20.263  0.00  0.00    +0.000 A 
BRANCH  26  29
ATOM     29  O   UNL     1      -4.245  12.314  23.158  0.00  0.00    +0.000 OA
ATOM     30  C   UNL     1      -4.191  12.575  24.556  0.00  0.00    +0.000 C 
ENDBRANCH  26  29
ENDBRANCH   7  23
BRANCH   6  31
ATOM     31  C   UNL     1      -0.071  15.819  19.883  0.00  0.00    +0.000 C 
ATOM     32  F   UNL     1      -1.374  15.770  19.470  0.00  0.00    +0.000 F 
ATOM     33  F   UNL     1      -0.152  16.037  21.226  0.00  0.00    +0.000 F 
ATOM     34  F   UNL     1       0.424  16.966  19.336  0.00  0.00    +0.000 F 
ENDBRANCH   6  31
TORSDOF 8
ENDMDL
MODEL 5
REMARK VINA RESULT:      -7.3      6.516      9.504
REMARK  Name = 
REMARK  10 active torsions:
REMARK  status: ('A' for Active; 'I' for Inactive)
REMARK    1  A    between atoms: C_2  and  C_3
REMARK    2  A    between atoms: C_2  and  C_4
REMARK    3  A    between atoms: C_4  and  O_5
REMARK    4  A    between atoms: O_5  and  C_6
REMARK    5  A    between atoms: C_9  and  C_10
REMARK    6  A    between atoms: C_15  and  C_16
REMARK    7  A    between atoms: C_20  and  C_21
REMARK    8  A    between atoms: C_24  and  O_25
REMARK    9  A    between atoms: O_25  and  C_26
REMARK   10  A    between atoms: C_29  and  O_30
REMARK                            x       y       z     vdW  Elec       q    Type
REMARK                         _______ _______ _______ _____ _____    ______ ____
ROOT
ATOM      1  C   UNL     1       1.346  12.440  19.365  0.00  0.00    +0.000 A 
ATOM      2  N   UNL     1       2.509  12.697  18.692  0.00  0.00    +0.000 NA
ATOM      3  C   UNL     1       2.801  13.957  18.400  0.00  0.00    +0.000 A 
ATOM      4  N   UNL     1       3.996  14.225  17.785  0.00  0.00    +0.000 N 
ATOM      5  N   UNL     1       2.013  14.978  18.686  0.00  0.00    +0.000 NA
ATOM      6  C   UNL     1       0.859  14.744  19.395  0.00  0.00    +0.000 A 
ATOM      7  C   UNL     1       0.458  13.457  19.791  0.00  0.00    +0.000 A 
ATOM      8  H   UNL     1       4.337  13.438  17.253  0.00  0.00    +0.000 HD
ATOM      9  H   UNL     1       3.974  15.125  17.327  0.00  0.00    +0.000 HD
ENDROOT
BRANCH   1  13
ATOM     10  C   UNL     1       1.399   8.198  20.268  0.00  0.00    +0.000 A 
ATOM     11  C   UNL     1       1.024   9.123  21.240  0.00  0.00    +0.000 A 
ATOM     12  C   UNL     1       0.887  10.484  20.924  0.00  0.00    +0.000 A 
ATOM     13  C   UNL     1       1.226  10.975  19.652  0.00  0.00    +0.000 A 
ATOM     14  C   UNL     1       1.527  10.002  18.673  0.00  0.00    +0.000 A 
ATOM     15  C   UNL     1       1.619   8.638  18.968  0.00  0.00    +0.000 A 
BRANCH  14  16
ATOM     16  O   UNL     1       1.780  10.338  17.365  0.00  0.00    +0.000 OA
ATOM     17  H   UNL     1       2.247  11.200  17.378  0.00  0.00    +0.000 HD
ENDBRANCH  14  16
BRANCH  10  18
ATOM     18  O   UNL     1       1.580   6.916  20.710  0.00  0.00    +0.000 OA
BRANCH  18  19
ATOM     19  C   UNL     1       2.470   6.115  19.928  0.00  0.00    +0.000 C 
BRANCH  19  21
ATOM     20  C   UNL     1       1.061   4.095  20.371  0.00  0.00    +0.000 C 
ATOM     21  C   UNL     1       1.744   4.859  19.502  0.00  0.00    +0.000 C 
ATOM     22  C   UNL     1       1.790   4.527  18.036  0.00  0.00    +0.000 C 
ENDBRANCH  19  21
ENDBRANCH  18  19
ENDBRANCH  10  18
ENDBRANCH   1  13
BRANCH   7  23
ATOM     23  C   UNL     1      -0.760  13.192  20.627  0.00  0.00    +0.000 A 
ATOM     24  C   UNL     1      -2.011  12.883  20.065  0.00  0.00    +0.000 A 
ATOM     25  C   UNL     1      -3.145  12.614  20.847  0.00  0.00    +0.000 A 
ATOM     26  C   UNL     1      -3.043  12.533  22.228  0.00  0.00    +0.000 A 
ATOM     27  C   UNL     1      -1.813  12.797  22.817  0.00  0.00    +0.000 A 
ATOM     28  C   UNL     1      -0.716  13.191  22.036  0.00  0.00    +0.000 A 
BRANCH  26  29
ATOM     29  O   UNL     1      -4.049  12.194  23.087  0.00  0.00    +0.000 OA
ATOM     30  C   UNL     1      -3.944  12.701  24.413  0.00  0.00    +0.000 C 
ENDBRANCH  26  29
ENDBRANCH   7  23
BRANCH   6  31
ATOM     31  C   UNL     1       0.085  16.021  19.687  0.00  0.00    +0.000 C 
ATOM     32  F   UNL     1      -0.051  16.285  21.022  0.00  0.00    +0.000 F 
ATOM     33  F   UNL     1       0.690  17.136  19.186  0.00  0.00    +0.000 F 
ATOM     34  F   UNL     1      -1.189  16.023  19.200  0.00  0.00    +0.000 F 
ENDBRANCH   6  31
TORSDOF 8
ENDMDL
MODEL 6
REMARK VINA RESULT:      -7.3      7.906     11.408
REMARK  Name = 
REMARK  10 active torsions:
REMARK  status: ('A' for Active; 'I' for Inactive)
REMARK    1  A    between atoms: C_2  and  C_3
REMARK    2  A    between atoms: C_2  and  C_4
REMARK    3  A    between atoms: C_4  and  O_5
REMARK    4  A    between atoms: O_5  and  C_6
REMARK    5  A    between atoms: C_9  and  C_10
REMARK    6  A    between atoms: C_15  and  C_16
REMARK    7  A    between atoms: C_20  and  C_21
REMARK    8  A    between atoms: C_24  and  O_25
REMARK    9  A    between atoms: O_25  and  C_26
REMARK   10  A    between atoms: C_29  and  O_30
REMARK                            x       y       z     vdW  Elec       q    Type
REMARK                         _______ _______ _______ _____ _____    ______ ____
ROOT
ATOM      1  C   UNL     1       0.654  13.506  21.451  0.00  0.00    +0.000 A 
ATOM      2  N   UNL     1       1.454  14.370  22.149  0.00  0.00    +0.000 NA
ATOM      3  C   UNL     1       2.581  14.779  21.583  0.00  0.00    +0.000 A 
ATOM      4  N   UNL     1       3.352  15.694  22.252  0.00  0.00    +0.000 N 
ATOM      5  N   UNL     1       2.997  14.370  20.399  0.00  0.00    +0.000 NA
ATOM      6  C   UNL     1       2.190  13.534  19.666  0.00  0.00    +0.000 A 
ATOM      7  C   UNL     1       0.958  13.057  20.143  0.00  0.00    +0.000 A 
ATOM      8  H   UNL     1       3.215  15.653  23.250  0.00  0.00    +0.000 HD
ATOM      9  H   UNL     1       4.302  15.686  21.909  0.00  0.00    +0.000 HD
ENDROOT
BRANCH   1  13
ATOM     10  C   UNL     1      -3.140  12.595  23.346  0.00  0.00    +0.000 A 
ATOM     11  C   UNL     1      -2.164  11.611  23.207  0.00  0.00    +0.000 A 
ATOM     12  C   UNL     1      -0.891  11.924  22.707  0.00  0.00    +0.000 A 
ATOM     13  C   UNL     1      -0.591  13.210  22.228  0.00  0.00    +0.000 A 
ATOM     14  C   UNL     1      -1.576  14.199  22.454  0.00  0.00    +0.000 A 
ATOM     15  C   UNL     1      -2.830  13.905  22.998  0.00  0.00    +0.000 A 
BRANCH  14  16
ATOM     16  O   UNL     1      -1.373  15.518  22.126  0.00  0.00    +0.000 OA
ATOM     17  H   UNL     1      -1.013  15.532  21.214  0.00  0.00    +0.000 HD
ENDBRANCH  14  16
BRANCH  10  18
ATOM     18  O   UNL     1      -4.366  12.158  23.766  0.00  0.00    +0.000 OA
BRANCH  18  19
ATOM     19  C   UNL     1      -5.407  13.139  23.753  0.00  0.00    +0.000 C 
BRANCH  19  21
ATOM     20  C   UNL     1      -6.221  12.700  21.427  0.00  0.00    +0.000 C 
ATOM     21  C   UNL     1      -6.457  12.718  22.750  0.00  0.00    +0.000 C 
ATOM     22  C   UNL     1      -7.779  12.276  23.314  0.00  0.00    +0.000 C 
ENDBRANCH  19  21
ENDBRANCH  18  19
ENDBRANCH  10  18
ENDBRANCH   1  13
BRANCH   7  23
ATOM     23  C   UNL     1       0.031  12.202  19.329  0.00  0.00    +0.000 A 
ATOM     24  C   UNL     1      -0.978  12.744  18.514  0.00  0.00    +0.000 A 
ATOM     25  C   UNL     1      -1.831  11.945  17.735  0.00  0.00    +0.000 A 
ATOM     26  C   UNL     1      -1.630  10.575  17.656  0.00  0.00    +0.000 A 
ATOM     27  C   UNL     1      -0.617  10.009  18.419  0.00  0.00    +0.000 A 
ATOM     28  C   UNL     1       0.146  10.798  19.293  0.00  0.00    +0.000 A 
BRANCH  26  29
ATOM     29  O   UNL     1      -2.332   9.707  16.868  0.00  0.00    +0.000 OA
ATOM     30  C   UNL     1      -2.776  10.212  15.614  0.00  0.00    +0.000 C 
ENDBRANCH  26  29
ENDBRANCH   7  23
BRANCH   6  31
ATOM     31  C   UNL     1       2.784  13.192  18.308  0.00  0.00    +0.000 C 
ATOM     32  F   UNL     1       2.930  11.848  18.097  0.00  0.00    +0.000 F 
ATOM     33  F   UNL     1       2.009  13.612  17.268  0.00  0.00    +0.000 F 
ATOM     34  F   UNL     1       4.027  13.715  18.097  0.00  0.00    +0.000 F 
ENDBRANCH   6  31
TORSDOF 8
ENDMDL
MODEL 7
REMARK VINA RESULT:      -7.2      6.438      9.382
REMARK  Name = 
REMARK  10 active torsions:
REMARK  status: ('A' for Active; 'I' for Inactive)
REMARK    1  A    between atoms: C_2  and  C_3
REMARK    2  A    between atoms: C_2  and  C_4
REMARK    3  A    between atoms: C_4  and  O_5
REMARK    4  A    between atoms: O_5  and  C_6
REMARK    5  A    between atoms: C_9  and  C_10
REMARK    6  A    between atoms: C_15  and  C_16
REMARK    7  A    between atoms: C_20  and  C_21
REMARK    8  A    between atoms: C_24  and  O_25
REMARK    9  A    between atoms: O_25  and  C_26
REMARK   10  A    between atoms: C_29  and  O_30
REMARK                            x       y       z     vdW  Elec       q    Type
REMARK                         _______ _______ _______ _____ _____    ______ ____
ROOT
ATOM      1  C   UNL     1       1.354  12.326  19.284  0.00  0.00    +0.000 A 
ATOM      2  N   UNL     1       2.525  12.613  18.637  0.00  0.00    +0.000 NA
ATOM      3  C   UNL     1       2.796  13.882  18.361  0.00  0.00    +0.000 A 
ATOM      4  N   UNL     1       3.998  14.179  17.772  0.00  0.00    +0.000 N 
ATOM      5  N   UNL     1       1.982  14.883  18.639  0.00  0.00    +0.000 NA
ATOM      6  C   UNL     1       0.819  14.619  19.323  0.00  0.00    +0.000 A 
ATOM      7  C   UNL     1       0.437  13.320  19.700  0.00  0.00    +0.000 A 
ATOM      8  H   UNL     1       4.366  13.404  17.241  0.00  0.00    +0.000 HD
ATOM      9  H   UNL     1       3.966  15.083  17.322  0.00  0.00    +0.000 HD
ENDROOT
BRANCH   1  13
ATOM     10  C   UNL     1       1.477   8.079  20.154  0.00  0.00    +0.000 A 
ATOM     11  C   UNL     1       1.060   8.987  21.124  0.00  0.00    +0.000 A 
ATOM     12  C   UNL     1       0.901  10.347  20.816  0.00  0.00    +0.000 A 
ATOM     13  C   UNL     1       1.259  10.857  19.556  0.00  0.00    +0.000 A 
ATOM     14  C   UNL     1       1.604   9.898  18.577  0.00  0.00    +0.000 A 
ATOM     15  C   UNL     1       1.718   8.534  18.863  0.00  0.00    +0.000 A 
BRANCH  14  16
ATOM     16  O   UNL     1       1.880  10.251  17.277  0.00  0.00    +0.000 OA
ATOM     17  H   UNL     1       1.075  10.685  16.924  0.00  0.00    +0.000 HD
ENDBRANCH  14  16
BRANCH  10  18
ATOM     18  O   UNL     1       1.676   6.797  20.589  0.00  0.00    +0.000 OA
BRANCH  18  19
ATOM     19  C   UNL     1       2.546   6.000  19.782  0.00  0.00    +0.000 C 
BRANCH  19  21
ATOM     20  C   UNL     1       1.802   4.399  18.008  0.00  0.00    +0.000 C 
ATOM     21  C   UNL     1       1.782   4.790  19.293  0.00  0.00    +0.000 C 
ATOM     22  C   UNL     1       1.023   4.015  20.335  0.00  0.00    +0.000 C 
ENDBRANCH  19  21
ENDBRANCH  18  19
ENDBRANCH  10  18
ENDBRANCH   1  13
BRANCH   7  23
ATOM     23  C   UNL     1      -0.792  13.023  20.508  0.00  0.00    +0.000 A 
ATOM     24  C   UNL     1      -0.795  13.039  21.914  0.00  0.00    +0.000 A 
ATOM     25  C   UNL     1      -1.950  12.781  22.670  0.00  0.00    +0.000 A 
ATOM     26  C   UNL     1      -3.176  12.610  22.043  0.00  0.00    +0.000 A 
ATOM     27  C   UNL     1      -3.217  12.625  20.655  0.00  0.00    +0.000 A 
ATOM     28  C   UNL     1      -2.038  12.754  19.906  0.00  0.00    +0.000 A 
BRANCH  26  29
ATOM     29  O   UNL     1      -4.378  12.443  22.669  0.00  0.00    +0.000 OA
ATOM     30  C   UNL     1      -5.537  12.753  21.902  0.00  0.00    +0.000 C 
ENDBRANCH  26  29
ENDBRANCH   7  23
BRANCH   6  31
ATOM     31  C   UNL     1       0.013  15.877  19.610  0.00  0.00    +0.000 C 
ATOM     32  F   UNL     1       0.595  17.020  19.135  0.00  0.00    +0.000 F 
ATOM     33  F   UNL     1      -1.220  15.862  19.028  0.00  0.00    +0.000 F 
ATOM     34  F   UNL     1      -0.191  16.116  20.937  0.00  0.00    +0.000 F 
ENDBRANCH   6  31
TORSDOF 8
ENDMDL
MODEL 8
REMARK VINA RESULT:      -7.2      7.878     11.443
REMARK  Name = 
REMARK  10 active torsions:
REMARK  status: ('A' for Active; 'I' for Inactive)
REMARK    1  A    between atoms: C_2  and  C_3
REMARK    2  A    between atoms: C_2  and  C_4
REMARK    3  A    between atoms: C_4  and  O_5
REMARK    4  A    between atoms: O_5  and  C_6
REMARK    5  A    between atoms: C_9  and  C_10
REMARK    6  A    between atoms: C_15  and  C_16
REMARK    7  A    between atoms: C_20  and  C_21
REMARK    8  A    between atoms: C_24  and  O_25
REMARK    9  A    between atoms: O_25  and  C_26
REMARK   10  A    between atoms: C_29  and  O_30
REMARK                            x       y       z     vdW  Elec       q    Type
REMARK                         _______ _______ _______ _____ _____    ______ ____
ROOT
ATOM      1  C   UNL     1       0.173  13.202  21.164  0.00  0.00    +0.000 A 
ATOM      2  N   UNL     1       0.864  14.044  21.992  0.00  0.00    +0.000 NA
ATOM      3  C   UNL     1       2.042  14.498  21.585  0.00  0.00    +0.000 A 
ATOM      4  N   UNL     1       2.707  15.393  22.383  0.00  0.00    +0.000 N 
ATOM      5  N   UNL     1       2.607  14.152  20.443  0.00  0.00    +0.000 NA
ATOM      6  C   UNL     1       1.912  13.339  19.581  0.00  0.00    +0.000 A 
ATOM      7  C   UNL     1       0.642  12.820  19.884  0.00  0.00    +0.000 A 
ATOM      8  H   UNL     1       2.452  15.303  23.355  0.00  0.00    +0.000 HD
ATOM      9  H   UNL     1       3.692  15.416  22.157  0.00  0.00    +0.000 HD
ENDROOT
BRANCH   1  13
ATOM     10  C   UNL     1      -3.561  12.426  23.229  0.00  0.00    +0.000 A 
ATOM     11  C   UNL     1      -3.502  13.369  22.205  0.00  0.00    +0.000 A 
ATOM     12  C   UNL     1      -2.331  13.541  21.451  0.00  0.00    +0.000 A 
ATOM     13  C   UNL     1      -1.150  12.850  21.770  0.00  0.00    +0.000 A 
ATOM     14  C   UNL     1      -1.268  11.849  22.761  0.00  0.00    +0.000 A 
ATOM     15  C   UNL     1      -2.445  11.638  23.484  0.00  0.00    +0.000 A 
BRANCH  14  16
ATOM     16  O   UNL     1      -0.216  11.031  23.100  0.00  0.00    +0.000 OA
ATOM     17  H   UNL     1      -0.595  10.151  23.306  0.00  0.00    +0.000 HD
ENDBRANCH  14  16
BRANCH  10  18
ATOM     18  O   UNL     1      -4.725  12.405  23.949  0.00  0.00    +0.000 OA
BRANCH  18  19
ATOM     19  C   UNL     1      -5.477  13.621  23.938  0.00  0.00    +0.000 C 
BRANCH  19  21
ATOM     20  C   UNL     1      -7.373  12.050  23.490  0.00  0.00    +0.000 C 
ATOM     21  C   UNL     1      -6.946  13.281  23.817  0.00  0.00    +0.000 C 
ATOM     22  C   UNL     1      -7.914  14.390  24.124  0.00  0.00    +0.000 C 
ENDBRANCH  19  21
ENDBRANCH  18  19
ENDBRANCH  10  18
ENDBRANCH   1  13
BRANCH   7  23
ATOM     23  C   UNL     1      -0.161  11.989  18.926  0.00  0.00    +0.000 A 
ATOM     24  C   UNL     1      -0.002  10.597  18.814  0.00  0.00    +0.000 A 
ATOM     25  C   UNL     1      -0.769   9.817  17.933  0.00  0.00    +0.000 A 
ATOM     26  C   UNL     1      -1.805  10.389  17.210  0.00  0.00    +0.000 A 
ATOM     27  C   UNL     1      -2.015  11.757  17.323  0.00  0.00    +0.000 A 
ATOM     28  C   UNL     1      -1.163  12.549  18.107  0.00  0.00    +0.000 A 
BRANCH  26  29
ATOM     29  O   UNL     1      -2.673   9.723  16.392  0.00  0.00    +0.000 OA
ATOM     30  C   UNL     1      -3.072  10.403  15.207  0.00  0.00    +0.000 C 
ENDBRANCH  26  29
ENDBRANCH   7  23
BRANCH   6  31
ATOM     31  C   UNL     1       2.672  13.070  18.291  0.00  0.00    +0.000 C 
ATOM     32  F   UNL     1       2.897  11.742  18.054  0.00  0.00    +0.000 F 
ATOM     33  F   UNL     1       2.005  13.500  17.182  0.00  0.00    +0.000 F 
ATOM     34  F   UNL     1       3.908  13.646  18.244  0.00  0.00    +0.000 F 
ENDBRANCH   6  31
TORSDOF 8
ENDMDL
MODEL 9
REMARK VINA RESULT:      -7.1      7.977     11.408
REMARK  Name = 
REMARK  10 active torsions:
REMARK  status: ('A' for Active; 'I' for Inactive)
REMARK    1  A    between atoms: C_2  and  C_3
REMARK    2  A    between atoms: C_2  and  C_4
REMARK    3  A    between atoms: C_4  and  O_5
REMARK    4  A    between atoms: O_5  and  C_6
REMARK    5  A    between atoms: C_9  and  C_10
REMARK    6  A    between atoms: C_15  and  C_16
REMARK    7  A    between atoms: C_20  and  C_21
REMARK    8  A    between atoms: C_24  and  O_25
REMARK    9  A    between atoms: O_25  and  C_26
REMARK   10  A    between atoms: C_29  and  O_30
REMARK                            x       y       z     vdW  Elec       q    Type
REMARK                         _______ _______ _______ _____ _____    ______ ____
ROOT
ATOM      1  C   UNL     1       0.667  13.523  21.434  0.00  0.00    +0.000 A 
ATOM      2  N   UNL     1       1.456  14.393  22.136  0.00  0.00    +0.000 NA
ATOM      3  C   UNL     1       2.585  14.808  21.578  0.00  0.00    +0.000 A 
ATOM      4  N   UNL     1       3.345  15.730  22.250  0.00  0.00    +0.000 N 
ATOM      5  N   UNL     1       3.013  14.400  20.398  0.00  0.00    +0.000 NA
ATOM      6  C   UNL     1       2.217  13.557  19.661  0.00  0.00    +0.000 A 
ATOM      7  C   UNL     1       0.983  13.073  20.130  0.00  0.00    +0.000 A 
ATOM      8  H   UNL     1       3.201  15.690  23.248  0.00  0.00    +0.000 HD
ATOM      9  H   UNL     1       4.298  15.727  21.914  0.00  0.00    +0.000 HD
ENDROOT
BRANCH   1  13
ATOM     10  C   UNL     1      -3.134  12.589  23.303  0.00  0.00    +0.000 A 
ATOM     11  C   UNL     1      -2.145  11.614  23.184  0.00  0.00    +0.000 A 
ATOM     12  C   UNL     1      -0.872  11.936  22.692  0.00  0.00    +0.000 A 
ATOM     13  C   UNL     1      -0.582  13.221  22.203  0.00  0.00    +0.000 A 
ATOM     14  C   UNL     1      -1.580  14.201  22.409  0.00  0.00    +0.000 A 
ATOM     15  C   UNL     1      -2.835  13.898  22.944  0.00  0.00    +0.000 A 
BRANCH  14  16
ATOM     16  O   UNL     1      -1.388  15.519  22.069  0.00  0.00    +0.000 OA
ATOM     17  H   UNL     1      -0.691  15.867  22.665  0.00  0.00    +0.000 HD
ENDBRANCH  14  16
BRANCH  10  18
ATOM     18  O   UNL     1      -4.359  12.142  23.716  0.00  0.00    +0.000 OA
BRANCH  18  19
ATOM     19  C   UNL     1      -5.398  13.124  23.735  0.00  0.00    +0.000 C 
BRANCH  19  21
ATOM     20  C   UNL     1      -6.243  12.703  21.417  0.00  0.00    +0.000 C 
ATOM     21  C   UNL     1      -6.465  12.721  22.742  0.00  0.00    +0.000 C 
ATOM     22  C   UNL     1      -7.787  12.297  23.319  0.00  0.00    +0.000 C 
ENDBRANCH  19  21
ENDBRANCH  18  19
ENDBRANCH  10  18
ENDBRANCH   1  13
BRANCH   7  23
ATOM     23  C   UNL     1       0.069  12.210  19.311  0.00  0.00    +0.000 A 
ATOM     24  C   UNL     1       0.088  10.807  19.381  0.00  0.00    +0.000 A 
ATOM     25  C   UNL     1      -0.783  10.000  18.630  0.00  0.00    +0.000 A 
ATOM     26  C   UNL     1      -1.785  10.574  17.863  0.00  0.00    +0.000 A 
ATOM     27  C   UNL     1      -1.858  11.960  17.799  0.00  0.00    +0.000 A 
ATOM     28  C   UNL     1      -0.904  12.757  18.449  0.00  0.00    +0.000 A 
BRANCH  26  29
ATOM     29  O   UNL     1      -2.744   9.899  17.163  0.00  0.00    +0.000 OA
ATOM     30  C   UNL     1      -3.844  10.670  16.694  0.00  0.00    +0.000 C 
ENDBRANCH  26  29
ENDBRANCH   7  23
BRANCH   6  31
ATOM     31  C   UNL     1       2.823  13.215  18.308  0.00  0.00    +0.000 C 
ATOM     32  F   UNL     1       2.103  13.695  17.248  0.00  0.00    +0.000 F 
ATOM     33  F   UNL     1       4.068  13.744  18.135  0.00  0.00    +0.000 F 
ATOM     34  F   UNL     1       2.937  11.876  18.072  0.00  0.00    +0.000 F 
ENDBRANCH   6  31
TORSDOF 8
ENDMDL
